13
Frame=0 idx=004990 GeodesicLength=0.0 rxn_smarts="[C:1]1([H:7])([H:8])[C:2]([H:9])([H:10])[O:3][C:4]([H:11])=[N:5][C:6]1([H:12])[H:13]>>[C:1]([C:2]([O:3][H:11])([H:9])[H:10])([C:6]([N+:5]#[C-:4])([H:12])[H:13])([H:7])[H:8]"
C        0.51594121      -0.68539334       0.49681223
C       -0.90814079      -0.86830051      -0.05807764
O       -1.74918065       0.15485496       0.36657090
C       -0.77900255       1.74015100      -0.33122644
N        0.38783622       1.60465770      -0.45034684
C        1.26274537       0.46952474      -0.15577161
H        0.42689643      -0.51683284       1.57211434
H        1.10419739      -1.59491860       0.34978720
H       -0.86426898      -0.94356596      -1.15994886
H       -1.30177509      -1.82704885       0.30014639
H       -1.86804263       1.44078291      -0.27936964
H        2.07592060       0.84653448       0.46374662
H        1.69687348       0.17955436      -1.11443670
13
Frame=1 idx=004990 GeodesicLength=0.062180337552813214 rxn_smarts="[C:1]1([H:7])([H:8])[C:2]([H:9])([H:10])[O:3][C:4]([H:11])=[N:5][C:6]1([H:12])[H:13]>>[C:1]([C:2]([O:3][H:11])([H:9])[H:10])([C:6]([N+:5]#[C-:4])([H:12])[H:13])([H:7])[H:8]"
C        0.51584066      -0.68494458       0.49821467
C       -0.90397315      -0.87190498      -0.06284912
O       -1.74783606       0.15585971       0.34867660
C       -0.77876409       1.74387295      -0.35209335
N        0.39207634       1.60887622      -0.43803717
C        1.26239021       0.46920024      -0.15595590
H        0.42350609      -0.51283385       1.57272368
H        1.10567716      -1.59429204       0.35661173
H       -0.85549067      -0.95617927      -1.16336815
H       -1.30263377      -1.82581713       0.30150991
H       -1.88202844       1.44976400      -0.24851159
H        2.08100819       0.83969262       0.46051773
H        1.69022754       0.17870610      -1.11743903
13
Frame=2 idx=004990 GeodesicLength=0.12439616125629221 rxn_smarts="[C:1]1([H:7])([H:8])[C:2]([H:9])([H:10])[O:3][C:4]([H:11])=[N:5][C:6]1([H:12])[H:13]>>[C:1]([C:2]([O:3][H:11])([H:9])[H:10])([C:6]([N+:5]#[C-:4])([H:12])[H:13])([H:7])[H:8]"
C        0.51552676      -0.68441369       0.49954125
C       -0.89986160      -0.87583400      -0.06797353
O       -1.74677245       0.15669071       0.32926364
C       -0.77851646       1.74686034      -0.37534457
N        0.39567772       1.61286060      -0.42618821
C        1.26179784       0.46906692      -0.15614839
H        0.41948173      -0.50854270       1.57316352
H        1.10716676      -1.59349073       0.36367648
H       -0.84633441      -0.96980067      -1.16696653
H       -1.30368486      -1.82466090       0.30283069
H       -1.89373538       1.45981499      -0.21318184
H        2.08543306       0.83346745       0.45750338
H        1.68382130       0.17798167      -1.12017588
13
Frame=3 idx=004990 GeodesicLength=0.18656220067498447 rxn_smarts="[C:1]1([H:7])([H:8])[C:2]([H:9])([H:10])[O:3][C:4]([H:11])=[N:5][C:6]1([H:12])[H:13]>>[C:1]([C:2]([O:3][H:11])([H:9])[H:10])([C:6]([N+:5]#[C-:4])([H:12])[H:13])([H:7])[H:8]"
C        0.51488805      -0.68373216       0.50082650
C       -0.89579894      -0.88008463      -0.07351831
O       -1.74608813       0.15721801       0.30796069
C       -0.77824248       1.74910039      -0.40053201
N        0.39844587       1.61650635      -0.41521821
C        1.26082702       0.46915715      -0.15644607
H        0.41456622      -0.50383943       1.57344781
H        1.10857482      -1.59236330       0.37119956
H       -0.83665888      -0.98437019      -1.17080560
H       -1.30493873      -1.82351903       0.30410349
H       -1.90213207       1.47058802      -0.17293763
H        2.08897336       0.82793108       0.45463026
H        1.67758390       0.17740773      -1.12271049
13
Frame=4 idx=004990 GeodesicLength=0.24864355614852648 rxn_smarts="[C:1]1([H:7])([H:8])[C:2]([H:9])([H:10])[O:3][C:4]([H:11])=[N:5][C:6]1([H:12])[H:13]>>[C:1]([C:2]([O:3][H:11])([H:9])[H:10])([C:6]([N+:5]#[C-:4])([H:12])[H:13])([H:7])[H:8]"
C        0.51382489      -0.68274076       0.50204289
C       -0.89182858      -0.88471564      -0.07962250
O       -1.74599481       0.15742570       0.28433948
C       -0.77793711       1.75103378      -0.42592197
N        0.40028884       1.61965248      -0.40581704
C        1.25942121       0.46942980      -0.15695847
H        0.40851988      -0.49804525       1.57341642
H        1.10982735      -1.59083182       0.37939475
H       -0.82643207      -1.00011907      -1.17493812
H       -1.30638910      -1.82245513       0.30505440
H       -1.90632483       1.48147109      -0.12776553
H        2.09150769       0.82341895       0.45178213
H        1.67151663       0.17647586      -1.12500644
13
Frame=5 idx=004990 GeodesicLength=0.31061948889080065 rxn_smarts="[C:1]1([H:7])([H:8])[C:2]([H:9])([H:10])[O:3][C:4]([H:11])=[N:5][C:6]1([H:12])[H:13]>>[C:1]([C:2]([O:3][H:11])([H:9])[H:10])([C:6]([N+:5]#[C-:4])([H:12])[H:13])([H:7])[H:8]"
C        0.51241461      -0.68150925       0.50325091
C       -0.88795818      -0.88930402      -0.08579467
O       -1.74613181       0.15757010       0.25940203
C       -0.77737834       1.75340011      -0.44918021
N        0.40142332       1.62249232      -0.39744998
C        1.25755247       0.46986723      -0.15772934
H        0.40178970      -0.49174122       1.57324153
H        1.11074545      -1.58889489       0.38791092
H       -0.81594773      -1.01602519      -1.17895517
H       -1.30809899      -1.82102795       0.30611887
H       -1.90679979       1.49022992      -0.08201379
H        2.09331760       0.81931439       0.44863937
H        1.66507170       0.17562846      -1.12744047
13
Frame=6 idx=004990 GeodesicLength=0.3726292987453087 rxn_smarts="[C:1]1([H:7])([H:8])[C:2]([H:9])([H:10])[O:3][C:4]([H:11])=[N:5][C:6]1([H:12])[H:13]>>[C:1]([C:2]([O:3][H:11])([H:9])[H:10])([C:6]([N+:5]#[C-:4])([H:12])[H:13])([H:7])[H:8]"
C        0.51081581      -0.68010733       0.50444107
C       -0.88433580      -0.89382311      -0.09191938
O       -1.74654961       0.15787801       0.23360867
C       -0.77668996       1.75675495      -0.46955872
N        0.40216478       1.62526132      -0.38994047
C        1.25551666       0.47044455      -0.15871472
H        0.39472004      -0.48492629       1.57293024
H        1.11147825      -1.58680995       0.39659018
H       -0.80555303      -1.03206045      -1.18274537
H       -1.31026248      -1.81933591       0.30725876
H       -1.90467193       1.49641000      -0.03713605
H        2.09493117       0.81561940       0.44521386
H        1.65843611       0.17469481      -1.13002808
13
Frame=7 idx=004990 GeodesicLength=0.4346397115080086 rxn_smarts="[C:1]1([H:7])([H:8])[C:2]([H:9])([H:10])[O:3][C:4]([H:11])=[N:5][C:6]1([H:12])[H:13]>>[C:1]([C:2]([O:3][H:11])([H:9])[H:10])([C:6]([N+:5]#[C-:4])([H:12])[H:13])([H:7])[H:8]"
C        0.50908042      -0.67857363       0.50561183
C       -0.88088226      -0.89811790      -0.09785927
O       -1.74690758       0.15847891       0.20736628
C       -0.77577703       1.76111857      -0.48721865
N        0.40270000       1.62803223      -0.38281047
C        1.25332460       0.47111406      -0.15986134
H        0.38751686      -0.47785956       1.57250937
H        1.11196969      -1.58459072       0.40526387
H       -0.79528679      -1.04795167      -1.18616574
H       -1.31282269      -1.81716840       0.30860164
H       -1.90078177       1.49968201       0.00591413
H        2.09644425       0.81201992       0.44146655
H        1.65142230       0.17381618      -1.13281820
13
Frame=8 idx=004990 GeodesicLength=0.49673874752957325 rxn_smarts="[C:1]1([H:7])([H:8])[C:2]([H:9])([H:10])[O:3][C:4]([H:11])=[N:5][C:6]1([H:12])[H:13]>>[C:1]([C:2]([O:3][H:11])([H:9])[H:10])([C:6]([N+:5]#[C-:4])([H:12])[H:13])([H:7])[H:8]"
C        0.50729637      -0.67695499       0.50674893
C       -0.87758885      -0.90213005      -0.10351980
O       -1.74701738       0.15948415       0.18104848
C       -0.77457138       1.76646443      -0.50246116
N        0.40319250       1.63088713      -0.37562213
C        1.25106704       0.47185511      -0.16110179
H        0.38040962      -0.47071556       1.57202194
H        1.11225693      -1.58230664       0.41372734
H       -0.78525713      -1.06363617      -1.18914110
H       -1.31580575      -1.81444187       0.31022357
H       -1.89603332       1.50007151       0.04648562
H        2.09804204       0.80835860       0.43742495
H        1.64400931       0.17306437      -1.13583484
13
Frame=9 idx=004990 GeodesicLength=0.5589014682894147 rxn_smarts="[C:1]1([H:7])([H:8])[C:2]([H:9])([H:10])[O:3][C:4]([H:11])=[N:5][C:6]1([H:12])[H:13]>>[C:1]([C:2]([O:3][H:11])([H:9])[H:10])([C:6]([N+:5]#[C-:4])([H:12])[H:13])([H:7])[H:8]"
C        0.50549818      -0.67528692       0.50785647
C       -0.87443362      -0.90584296      -0.10888640
O       -1.74677353       0.16091010       0.15474531
C       -0.77306208       1.77268846      -0.51577971
N        0.40370744       1.63384198      -0.36824123
C        1.24878159       0.47265552      -0.16240476
H        0.37346597      -0.46361755       1.57149116
H        1.11236625      -1.57999108       0.42195090
H       -0.77547275      -1.07909222      -1.19165407
H       -1.31919526      -1.81113250       0.31213908
H       -1.89087636       1.49780378       0.08471105
H        2.09976423       0.80457379       0.43312540
H        1.63622994       0.17248960      -1.13905319
13
Frame=10 idx=004990 GeodesicLength=0.621129506825278 rxn_smarts="[C:1]1([H:7])([H:8])[C:2]([H:9])([H:10])[O:3][C:4]([H:11])=[N:5][C:6]1([H:12])[H:13]>>[C:1]([C:2]([O:3][H:11])([H:9])[H:10])([C:6]([N+:5]#[C-:4])([H:12])[H:13])([H:7])[H:8]"
C        0.50371521      -0.67358882       0.50892947
C       -0.87140466      -0.90927302      -0.11396333
O       -1.74610939       0.16276231       0.12848945
C       -0.77123106       1.77969561      -0.52755394
N        0.40428749       1.63691377      -0.36052246
C        1.24649940       0.47351305      -0.16374062
H        0.36673852      -0.45660928       1.57091936
H        1.11232750      -1.57767088       0.42990052
H       -0.76593995      -1.09438159      -1.19369462
H       -1.32299359      -1.80723544       0.31435140
H       -1.88565041       1.49312191       0.12074536
H        2.10165950       0.80063828       0.42858768
H        1.62810144       0.17211410      -1.14244826
13
Frame=11 idx=004990 GeodesicLength=0.6834288144183638 rxn_smarts="[C:1]1([H:7])([H:8])[C:2]([H:9])([H:10])[O:3][C:4]([H:11])=[N:5][C:6]1([H:12])[H:13]>>[C:1]([C:2]([O:3][H:11])([H:9])[H:10])([C:6]([N+:5]#[C-:4])([H:12])[H:13])([H:7])[H:8]"
C        0.50197161      -0.67187220       0.50997085
C       -0.86848088      -0.91241909      -0.11876678
O       -1.74497716       0.16504419       0.10227007
C       -0.76906394       1.78738831      -0.53810625
N        0.40492788       1.64008210      -0.35239452
C        1.24422205       0.47441465      -0.16508904
H        0.36026353      -0.44972481       1.57032212
H        1.11217769      -1.57535216       0.43757526
H       -0.75665029      -1.10953093      -1.19527371
H       -1.32717601      -1.80271543       0.31685462
H       -1.88055716       1.48621892       0.15479898
H        2.10372282       0.79651876       0.42383586
H        1.61961986       0.17194769      -1.14599745
13
Frame=12 idx=004990 GeodesicLength=0.7457581664200823 rxn_smarts="[C:1]1([H:7])([H:8])[C:2]([H:9])([H:10])[O:3][C:4]([H:11])=[N:5][C:6]1([H:12])[H:13]>>[C:1]([C:2]([O:3][H:11])([H:9])[H:10])([C:6]([N+:5]#[C-:4])([H:12])[H:13])([H:7])[H:8]"
C        0.50028370      -0.67016996       0.51097101
C       -0.86566099      -0.91529311      -0.12327529
O       -1.74331842       0.16776317       0.07617634
C       -0.76654502       1.79568828      -0.54771671
N        0.40564161       1.64335580      -0.34380822
C        1.24196625       0.47537411      -0.16642801
H        0.35408774      -0.44305595       1.56971314
H        1.11192839      -1.57307772       0.44490505
H       -0.74763609      -1.12455238      -1.19636867
H       -1.33173955      -1.79759047       0.31966623
H       -1.87578911       1.47728570       0.18692637
H        2.10594127       0.79224558       0.41890953
H        1.61084023       0.17202695      -1.14967078
13
Frame=13 idx=004990 GeodesicLength=0.808133239281227 rxn_smarts="[C:1]1([H:7])([H:8])[C:2]([H:9])([H:10])[O:3][C:4]([H:11])=[N:5][C:6]1([H:12])[H:13]>>[C:1]([C:2]([O:3][H:11])([H:9])[H:10])([C:6]([N+:5]#[C-:4])([H:12])[H:13])([H:7])[H:8]"
C        0.49867245      -0.66849299       0.51192172
C       -0.86294547      -0.91789839      -0.12748581
O       -1.74111485       0.17091297       0.05025828
C       -0.76365245       1.80451189      -0.55661703
N        0.40641651       1.64670442      -0.33472905
C        1.23974250       0.47639055      -0.16773655
H        0.34825273      -0.43664500       1.56910173
H        1.11161261      -1.57085337       0.45183941
H       -0.73892066      -1.13945792      -1.19697549
H       -1.33668006      -1.79184396       0.32278179
H       -1.87149219       1.46648090       0.21723167
H        2.10830479       0.78783234       0.41384291
H        1.60180409       0.17235856      -1.15343359
13
Frame=14 idx=004990 GeodesicLength=0.8705542333802779 rxn_smarts="[C:1]1([H:7])([H:8])[C:2]([H:9])([H:10])[O:3][C:4]([H:11])=[N:5][C:6]1([H:12])[H:13]>>[C:1]([C:2]([O:3][H:11])([H:9])[H:10])([C:6]([N+:5]#[C-:4])([H:12])[H:13])([H:7])[H:8]"
C        0.49714705      -0.66685027       0.51282620
C       -0.86032691      -0.92024868      -0.13141534
O       -1.73834474       0.17448431       0.02449128
C       -0.76037068       1.81381311      -0.56497176
N        0.40723865       1.65011550      -0.32515877
C        1.23754656       0.47746594      -0.16900835
H        0.34276770      -0.43050103       1.56849595
H        1.11124896      -1.56869156       0.45839605
H       -0.73050575      -1.15427436      -1.19710304
H       -1.34198331      -1.78547461       0.32618722
H       -1.86772835       1.45392610       0.24588152
H        2.11079840       0.78328902       0.40864534
H        1.59251243       0.17294654      -1.15726629
13
Frame=15 idx=004990 GeodesicLength=0.9330246544378803 rxn_smarts="[C:1]1([H:7])([H:8])[C:2]([H:9])([H:10])[O:3][C:4]([H:11])=[N:5][C:6]1([H:12])[H:13]>>[C:1]([C:2]([O:3][H:11])([H:9])[H:10])([C:6]([N+:5]#[C-:4])([H:12])[H:13])([H:7])[H:8]"
C        0.49570134      -0.66524196       0.51368264
C       -0.85780345      -0.92235367      -0.13508074
O       -1.73499351       0.17846190      -0.00113889
C       -0.75668950       1.82354645      -0.57291289
N        0.40810149       1.65356554      -0.31514012
C        1.23537793       0.47860303      -0.17024564
H        0.33760914      -0.42461700       1.56789547
H        1.11083897      -1.56659065       0.46459202
H       -0.72238357      -1.16902014      -1.19675960
H       -1.34764581      -1.77848125       0.32985945
H       -1.86450468       1.43969540       0.27307165
H        2.11339115       0.77864956       0.40332771
H        1.58300049       0.17378281      -1.16115105
13
Frame=16 idx=004990 GeodesicLength=0.9955235360391543 rxn_smarts="[C:1]1([H:7])([H:8])[C:2]([H:9])([H:10])[O:3][C:4]([H:11])=[N:5][C:6]1([H:12])[H:13]>>[C:1]([C:2]([O:3][H:11])([H:9])[H:10])([C:6]([N+:5]#[C-:4])([H:12])[H:13])([H:7])[H:8]"
C        0.49435943      -0.66369225       0.51447891
C       -0.85538172      -0.92421194      -0.13846145
O       -1.73104422       0.18285132      -0.02651357
C       -0.75258966       1.83364677      -0.58061883
N        0.40897848       1.65702891      -0.30468086
C        1.23324101       0.47980716      -0.17142370
H        0.33284872      -0.41906614       1.56731206
H        1.11041010      -1.56458007       0.47034954
H       -0.71461969      -1.18365786      -1.19593494
H       -1.35364689      -1.77086744       0.33379718
H       -1.86192940       1.42391403       0.29878566
H        2.11604916       0.77395424       0.39794844
H        1.57332468       0.17487327      -1.16503843
