12
Frame=0 idx=004259 GeodesicLength=0.0 rxn_smarts="[O:1]([C:2]([C@@:3]([O:4][H:11])([C:5](=[O:6])[H:12])[H:10])([H:8])[H:9])[H:7]>>[O:1]([C:2](/[C:3]([O:4][H:10])=[C:5](/[O:6][H:11])[H:12])([H:8])[H:9])[H:7]"
O       -1.79418484       0.79479417      -0.30641910
C       -1.21409952      -0.36620041       0.26241652
C        0.26692591      -0.39163930       0.23172726
O        0.81443958      -0.54797377      -1.25974742
C        1.11230881       0.59852881       0.79900133
O        2.10436777       1.01746333       0.20098327
H       -1.55956183       0.82166800      -1.23658170
H       -1.62468666      -1.27047219      -0.19861023
H       -1.51221999      -0.37880408       1.31376162
H        0.96009963      -1.31391839      -0.45691888
H        1.58466817       0.08635016      -1.16036170
H        0.86194300       0.95020363       1.81074904
12
Frame=1 idx=004259 GeodesicLength=0.09473020199843178 rxn_smarts="[O:1]([C:2]([C@@:3]([O:4][H:11])([C:5](=[O:6])[H:12])[H:10])([H:8])[H:9])[H:7]>>[O:1]([C:2](/[C:3]([O:4][H:10])=[C:5](/[O:6][H:11])[H:12])([H:8])[H:9])[H:7]"
O       -1.79339470       0.79200244      -0.30958967
C       -1.21364714      -0.36614136       0.26433890
C        0.26789927      -0.39264876       0.22411515
O        0.81001532      -0.53809893      -1.25688308
C        1.11361406       0.59142533       0.80177602
O        2.09803790       1.02176009       0.19260760
H       -1.55226630       0.81769586      -1.23821320
H       -1.62554212      -1.27273144      -0.19147585
H       -1.50687541      -0.37222068       1.31702637
H        0.94486491      -1.33143103      -0.46403315
H        1.59968587       0.10050034      -1.14869860
H        0.85760833       0.94988815       1.80902949
12
Frame=2 idx=004259 GeodesicLength=0.1894779093507107 rxn_smarts="[O:1]([C:2]([C@@:3]([O:4][H:11])([C:5](=[O:6])[H:12])[H:10])([H:8])[H:9])[H:7]>>[O:1]([C:2](/[C:3]([O:4][H:10])=[C:5](/[O:6][H:11])[H:12])([H:8])[H:9])[H:7]"
O       -1.79267699       0.78906775      -0.31303782
C       -1.21308925      -0.36597940       0.26625041
C        0.26894810      -0.39346328       0.21645967
O        0.80558857      -0.52877954      -1.25405166
C        1.11479574       0.58466882       0.80432481
O        2.09211302       1.02590563       0.18493634
H       -1.54517391       0.81336342      -1.24011650
H       -1.62624952      -1.27501699      -0.18406752
H       -1.50143995      -0.36534615       1.32021501
H        0.92916474      -1.34872003      -0.47110396
H        1.61441167       0.11531435      -1.13732137
H        0.85360778       0.94898543       1.80751259
12
Frame=3 idx=004259 GeodesicLength=0.2842396948243807 rxn_smarts="[O:1]([C:2]([C@@:3]([O:4][H:11])([C:5](=[O:6])[H:12])[H:10])([H:8])[H:9])[H:7]>>[O:1]([C:2](/[C:3]([O:4][H:10])=[C:5](/[O:6][H:11])[H:12])([H:8])[H:9])[H:7]"
O       -1.79201956       0.78598921      -0.31677559
C       -1.21242788      -0.36571285       0.26814472
C        0.27007097      -0.39410265       0.20876405
O        0.80115778      -0.52005547      -1.25125837
C        1.11584760       0.57824303       0.80665009
O        2.08659500       1.02992566       0.17793886
H       -1.53825417       0.80867507      -1.24229895
H       -1.62681793      -1.27731923      -0.17638718
H       -1.49592756      -0.35817256       1.32331421
H        0.91299966      -1.36583170      -0.47805208
H        1.62880817       0.13090221      -1.12626548
H        0.84996790       0.94745928       1.80622573
12
Frame=4 idx=004259 GeodesicLength=0.3790218637303201 rxn_smarts="[O:1]([C:2]([C@@:3]([O:4][H:11])([C:5](=[O:6])[H:12])[H:10])([H:8])[H:9])[H:7]>>[O:1]([C:2](/[C:3]([O:4][H:10])=[C:5](/[O:6][H:11])[H:12])([H:8])[H:9])[H:7]"
O       -1.79140323       0.78276868      -0.32081171
C       -1.21166299      -0.36533920       0.27001449
C        0.27126901      -0.39459054       0.20103024
O        0.79672260      -0.51197347      -1.24850787
C        1.11677209       0.57211996       0.80875829
O        2.08147291       1.03385566       0.17158522
H       -1.53147154       0.80363668      -1.24476356
H       -1.62725705      -1.27962262      -0.16843723
H       -1.49034977      -0.35069033       1.32630766
H        0.89636911      -1.38281734      -0.48479559
H        1.64283193       0.14738046      -1.11556665
H        0.84670693       0.94527206       1.80518671
12
Frame=5 idx=004259 GeodesicLength=0.4738036696683089 rxn_smarts="[O:1]([C:2]([C@@:3]([O:4][H:11])([C:5](=[O:6])[H:12])[H:10])([H:8])[H:9])[H:7]>>[O:1]([C:2](/[C:3]([O:4][H:10])=[C:5](/[O:6][H:11])[H:12])([H:8])[H:9])[H:7]"
O       -1.79080185       0.77941427      -0.32515735
C       -1.21079441      -0.36485411       0.27185287
C        0.27254298      -0.39495333       0.19326028
O        0.79228586      -0.50458011      -1.24580170
C        1.11757918       0.56626388       0.81065941
O        2.07671001       1.03775014       0.16583100
H       -1.52478573       0.79825689      -1.24751831
H       -1.62757974      -1.28191224      -0.16022140
H       -1.48471858      -0.34288969       1.32918177
H        0.87927358      -1.39972394      -0.49125578
H        1.65644069       0.16485061      -1.10525852
H        0.84384801       0.94237764       1.80442773
12
Frame=6 idx=004259 GeodesicLength=0.5685622564199675 rxn_smarts="[O:1]([C:2]([C@@:3]([O:4][H:11])([C:5](=[O:6])[H:12])[H:10])([H:8])[H:9])[H:7]>>[O:1]([C:2](/[C:3]([O:4][H:10])=[C:5](/[O:6][H:11])[H:12])([H:8])[H:9])[H:7]"
O       -1.79017501       0.77593968      -0.32981265
C       -1.20981733      -0.36425692       0.27365284
C        0.27389983      -0.39523327       0.18546061
O        0.78785322      -0.49792881      -1.24314267
C        1.11829293       0.56060521       0.81237202
O        2.07227419       1.04167257       0.16065348
H       -1.51814626       0.79255176      -1.25055863
H       -1.62780353      -1.28416633      -0.15174945
H       -1.47903813      -0.33476708       1.33192241
H        0.86170769      -1.41661648      -0.49735983
H        1.66956799       0.18343284      -1.09537585
H        0.84138440       0.93876683       1.80393769
12
Frame=7 idx=004259 GeodesicLength=0.663309427439435 rxn_smarts="[O:1]([C:2]([C@@:3]([O:4][H:11])([C:5](=[O:6])[H:12])[H:10])([H:8])[H:9])[H:7]>>[O:1]([C:2](/[C:3]([O:4][H:10])=[C:5](/[O:6][H:11])[H:12])([H:8])[H:9])[H:7]"
O       -1.78948488       0.77235798      -0.33478908
C       -1.20872825      -0.36354012       0.27540515
C        0.27534454      -0.39546409       0.17763289
O        0.78343250      -0.49207520      -1.24053373
C        1.11893562       0.55509039       0.81390545
O        2.06810140       1.04570237       0.15600876
H       -1.51150478       0.78652865      -1.25389111
H       -1.62794493      -1.28635939      -0.14302839
H       -1.47331540      -0.32630594       1.33451161
H        0.84366713      -1.43355326      -0.50301516
H        1.68215445       0.20324201      -1.08594706
H        0.83934262       0.93437658       1.80374065
12
Frame=8 idx=004259 GeodesicLength=0.7580222684846372 rxn_smarts="[O:1]([C:2]([C@@:3]([O:4][H:11])([C:5](=[O:6])[H:12])[H:10])([H:8])[H:9])[H:7]>>[O:1]([C:2](/[C:3]([O:4][H:10])=[C:5](/[O:6][H:11])[H:12])([H:8])[H:9])[H:7]"
O       -1.78869102       0.76868717      -0.34010691
C       -1.20752445      -0.36269528       0.27710263
C        0.27688103      -0.39567850       0.16978300
O        0.77903308      -0.48707324      -1.23797048
C        1.11953024       0.54966706       0.81527470
O        2.06411675       1.04992741       0.15185213
H       -1.50481255       0.78019265      -1.25753526
H       -1.62802216      -1.28847219      -0.13406038
H       -1.46755851      -0.31748296       1.33693914
H        0.82515052      -1.45058238      -0.50814691
H        1.69413741       0.22438026      -1.07700011
H        0.83775966       0.92913001       1.80386847
12
Frame=9 idx=004259 GeodesicLength=0.8527224796778885 rxn_smarts="[O:1]([C:2]([C@@:3]([O:4][H:11])([C:5](=[O:6])[H:12])[H:10])([H:8])[H:9])[H:7]>>[O:1]([C:2](/[C:3]([O:4][H:10])=[C:5](/[O:6][H:11])[H:12])([H:8])[H:9])[H:7]"
O       -1.78775256       0.76494673      -0.34578108
C       -1.20620355      -0.36171142       0.27873691
C        0.27851321      -0.39591245       0.16191259
O        0.77466401      -0.48298004      -1.23545533
C        1.12010528       0.54427036       0.81648829
O        2.06023373       1.05444898       0.14814585
H       -1.49802138       0.77354967      -1.26150444
H       -1.62805461      -1.29047823      -0.12484778
H       -1.46177486      -0.30827315       1.33918927
H        0.80615729      -1.46776057      -0.51267104
H        1.70546185       0.24695067      -1.06856298
H        0.83667160       0.92294945       1.80434976
12
Frame=10 idx=004259 GeodesicLength=0.9473933703897499 rxn_smarts="[O:1]([C:2]([C@@:3]([O:4][H:11])([C:5](=[O:6])[H:12])[H:10])([H:8])[H:9])[H:7]>>[O:1]([C:2](/[C:3]([O:4][H:10])=[C:5](/[O:6][H:11])[H:12])([H:8])[H:9])[H:7]"
O       -1.78660651       0.76115517      -0.35183514
C       -1.20475497      -0.36057719       0.28029622
C        0.28025453      -0.39621706       0.15403334
O        0.77035291      -0.47985737      -1.23297915
C        1.12070042       0.53882579       0.81755786
O        2.05637527       1.05934398       0.14486094
H       -1.49106207       0.76659691      -1.26581211
H       -1.62806465      -1.29234230      -0.11539672
H       -1.45596008      -0.29864625       1.34123832
H        0.78667232      -1.48515755      -0.51649083
H        1.71598240       0.27111867      -1.06065180
H        0.83611042       0.91575721       1.80517906
12
Frame=11 idx=004259 GeodesicLength=1.0420146313469596 rxn_smarts="[O:1]([C:2]([C@@:3]([O:4][H:11])([C:5](=[O:6])[H:12])[H:10])([H:8])[H:9])[H:7]>>[O:1]([C:2](/[C:3]([O:4][H:10])=[C:5](/[O:6][H:11])[H:12])([H:8])[H:9])[H:7]"
O       -1.78520708       0.75733210      -0.35829542
C       -1.20317335      -0.35927859       0.28177104
C        0.28211187      -0.39662822       0.14614770
O        0.76611616      -0.47775954      -1.23053895
C        1.12134802       0.53327493       0.81848645
O        2.05245014       1.06470704       0.14196866
H       -1.48388332       0.75933037      -1.27048588
H       -1.62807165      -1.29403701      -0.10570838
H       -1.45011576      -0.28856520       1.34307082
H        0.76669417      -1.50281688      -0.51952515
H        1.72559937       0.29698850      -1.05327983
H        0.83613143       0.90745249       1.80638895
12
Frame=12 idx=004259 GeodesicLength=1.1366042535558523 rxn_smarts="[O:1]([C:2]([C@@:3]([O:4][H:11])([C:5](=[O:6])[H:12])[H:10])([H:8])[H:9])[H:7]>>[O:1]([C:2](/[C:3]([O:4][H:10])=[C:5](/[O:6][H:11])[H:12])([H:8])[H:9])[H:7]"
O       -1.78349687       0.75349462      -0.36519932
C       -1.20145113      -0.35779835       0.28314948
C        0.28409475      -0.39719081       0.13826443
O        0.76198102      -0.47674607      -1.22812550
C        1.12208368       0.52755537       0.81927799
O        2.04838237       1.07060099       0.13945406
H       -1.47642419       0.75173368      -1.27555614
H       -1.62809742      -1.29552811      -0.09577971
H       -1.44423953      -0.27798333       1.34466335
H        0.74621549      -1.52079375      -0.52167730
H        1.73415527       0.32473040      -1.04646110
H        0.83679656       0.89792535       1.80798976
12
Frame=13 idx=004259 GeodesicLength=1.231198948633769 rxn_smarts="[O:1]([C:2]([C@@:3]([O:4][H:11])([C:5](=[O:6])[H:12])[H:10])([H:8])[H:9])[H:7]>>[O:1]([C:2](/[C:3]([O:4][H:10])=[C:5](/[O:6][H:11])[H:12])([H:8])[H:9])[H:7]"
O       -1.78142154       0.74966200      -0.37258797
C       -1.19958072      -0.35611813       0.28441703
C        0.28621283      -0.39794691       0.13038932
O        0.75797512      -0.47687646      -1.22572938
C        1.12294446       0.52160812       0.81993062
O        2.04410419       1.07707465       0.13729270
H       -1.46862326       0.74378926      -1.28106235
H       -1.62816165      -1.29678394      -0.08560961
H       -1.43833226      -0.26685215       1.34599607
H        0.72523254      -1.53913754      -0.52284693
H        1.74147925       0.35451737      -1.04021332
H        0.83817107       0.88706372       1.81002381
12
Frame=14 idx=004259 GeodesicLength=1.325789878226042 rxn_smarts="[O:1]([C:2]([C@@:3]([O:4][H:11])([C:5](=[O:6])[H:12])[H:10])([H:8])[H:9])[H:7]>>[O:1]([C:2](/[C:3]([O:4][H:10])=[C:5](/[O:6][H:11])[H:12])([H:8])[H:9])[H:7]"
O       -1.77891538       0.74584915      -0.38050743
C       -1.19755036      -0.35422039       0.28556100
C        0.28847943      -0.39894924       0.12253563
O        0.75413747      -0.47820683      -1.22333585
C        1.12397104       0.51536904       0.82044447
O        2.03956709       1.08414508       0.13549062
H       -1.46041286       0.73546757      -1.28704124
H       -1.62828613      -1.29776531      -0.07519330
H       -1.43238401      -0.25511202       1.34703986
H        0.70373934      -1.55789431      -0.52294705
H        1.74733531       0.38655123      -1.03453746
H        0.84031906       0.87476603       1.81249077
12
Frame=15 idx=004259 GeodesicLength=1.420406840409182 rxn_smarts="[O:1]([C:2]([C@@:3]([O:4][H:11])([C:5](=[O:6])[H:12])[H:10])([H:8])[H:9])[H:7]>>[O:1]([C:2](/[C:3]([O:4][H:10])=[C:5](/[O:6][H:11])[H:12])([H:8])[H:9])[H:7]"
O       -1.77591335       0.74207101      -0.38901299
C       -1.19534826      -0.35208322       0.28656556
C        0.29090800      -0.40024791       0.11471403
O        0.75050826      -0.48079764      -1.22092687
C        1.12520590       0.50877556       0.82081776
O        2.03474446       1.09180251       0.13405600
H       -1.45172391       0.72673303      -1.29354339
H       -1.62849044      -1.29843419      -0.06452495
H       -1.42638803      -0.24269805       1.34776768
H        0.68173192      -1.57710938      -0.52188052
H        1.75145129       0.42106476      -1.02944053
H        0.84331417       0.86092352       1.81540823
12
Frame=16 idx=004259 GeodesicLength=1.5150781889471665 rxn_smarts="[O:1]([C:2]([C@@:3]([O:4][H:11])([C:5](=[O:6])[H:12])[H:10])([H:8])[H:9])[H:7]>>[O:1]([C:2](/[C:3]([O:4][H:10])=[C:5](/[O:6][H:11])[H:12])([H:8])[H:9])[H:7]"
O       -1.77234958       0.73833972      -0.39816492
C       -1.19296162      -0.34968497       0.28741370
C        0.29351253      -0.40189452       0.10693662
O        0.74713289      -0.48470313      -1.21848261
C        1.12669002       0.50177175       0.82104629
O        2.02964832       1.09998915       0.13300376
H       -1.44248682       0.71754206      -1.30062257
H       -1.62879245      -1.29875345      -0.05359897
H       -1.42033569      -0.22954191       1.34814822
H        0.65920843      -1.59681811      -0.51955338
H        1.75350413       0.45831374      -1.02491711
H        0.84722984       0.84543966       1.81879096
