16
Frame=0 idx=003602 GeodesicLength=0.0 rxn_smarts="[C:1]([C:2]1([C:3]([O:4][H:12])([H:10])[H:11])[C:5]([H:13])([H:14])[C:6]1([H:15])[H:16])([H:7])([H:8])[H:9]>>[C:1]([C:2][C:6]([C:5]([C:3]([O:4][H:12])([H:10])[H:11])([H:13])[H:14])([H:15])[H:16])([H:7])([H:8])[H:9]"
C        0.11794046       1.79160196      -0.09282443
C       -0.43460629       0.59382669       0.63522087
C        0.95685572      -0.72375116       0.70795824
O        1.89238457      -1.44093522      -0.10462303
C       -0.42757771      -0.79479164      -0.50055102
C       -1.60103896       0.00596752      -0.04882780
H        0.06280944       1.75675035      -1.19084823
H       -0.50085085       2.63418122       0.22938390
H        1.14853544       2.01726130       0.19052753
H        0.62433889      -1.32125418       1.55306100
H        1.57010056       0.10326117       1.04240411
H        1.52175213      -2.29067411      -0.35625839
H       -0.53070681      -1.85744854      -0.31091360
H       -0.01562466      -0.54987323      -1.47039922
H       -2.05468111       0.60293102      -0.83829557
H       -2.32963087      -0.52705313       0.55498560
16
Frame=1 idx=003602 GeodesicLength=0.06321219518286297 rxn_smarts="[C:1]([C:2]1([C:3]([O:4][H:12])([H:10])[H:11])[C:5]([H:13])([H:14])[C:6]1([H:15])[H:16])([H:7])([H:8])[H:9]>>[C:1]([C:2][C:6]([C:5]([C:3]([O:4][H:12])([H:10])[H:11])([H:13])[H:14])([H:15])[H:16])([H:7])([H:8])[H:9]"
C        0.11820455       1.80386866      -0.10732649
C       -0.42354696       0.60361765       0.61949685
C        0.95107343      -0.73558813       0.71691086
O        1.90449140      -1.44177424      -0.08330344
C       -0.42538147      -0.79429004      -0.50923765
C       -1.59636020       0.00516098      -0.04281251
H        0.03640602       1.77765511      -1.20369159
H       -0.49375812       2.64346312       0.23643821
H        1.15441075       2.02541291       0.15767948
H        0.60039385      -1.34287575       1.54856249
H        1.56199366       0.08032611       1.08402610
H        1.54034928      -2.28921081      -0.35112579
H       -0.53790171      -1.85936666      -0.33857255
H       -0.01836033      -0.54458640      -1.48028708
H       -2.06462703       0.59788672      -0.82703011
H       -2.30738712      -0.52969924       0.58027321
16
Frame=2 idx=003602 GeodesicLength=0.12630037532204694 rxn_smarts="[C:1]([C:2]1([C:3]([O:4][H:12])([H:10])[H:11])[C:5]([H:13])([H:14])[C:6]1([H:15])[H:16])([H:7])([H:8])[H:9]>>[C:1]([C:2][C:6]([C:5]([C:3]([O:4][H:12])([H:10])[H:11])([H:13])[H:14])([H:15])[H:16])([H:7])([H:8])[H:9]"
C        0.11831471       1.81630794      -0.12219103
C       -0.41186986       0.61325816       0.60338269
C        0.94500783      -0.74761012       0.72589965
O        1.91651644      -1.44254371      -0.06118487
C       -0.42303500      -0.79386330      -0.51813349
C       -1.59110778       0.00440429      -0.03650964
H        0.00908294       1.79887214      -1.21610634
H       -0.48602762       2.65258797       0.24376143
H        1.15999904       2.03378143       0.12346628
H        0.57633818      -1.36480649       1.54335271
H        1.55216656       0.05650655       1.12634859
H        1.55935417      -2.28741230      -0.34558616
H       -0.54507072      -1.86093248      -0.36648275
H       -0.02129176      -0.53926246      -1.49045644
H       -2.07424211       0.59275911      -0.81509704
H       -2.28413502      -0.53204672       0.60553640
16
Frame=3 idx=003602 GeodesicLength=0.18924809475690044 rxn_smarts="[C:1]([C:2]1([C:3]([O:4][H:12])([H:10])[H:11])[C:5]([H:13])([H:14])[C:6]1([H:15])[H:16])([H:7])([H:8])[H:9]>>[C:1]([C:2][C:6]([C:5]([C:3]([O:4][H:12])([H:10])[H:11])([H:13])[H:14])([H:15])[H:16])([H:7])([H:8])[H:9]"
C        0.11826594       1.82890499      -0.13740466
C       -0.39953832       0.62271727       0.58686915
C        0.93865624      -0.75982704       0.73491299
O        1.92845180      -1.44319418      -0.03825126
C       -0.42054846      -0.79353946      -0.52722349
C       -1.58524121       0.00371930      -0.02991718
H       -0.01913945       1.82035873      -1.22801288
H       -0.47760973       2.66151251       0.25135059
H        1.16523914       2.04241804       0.08785117
H        0.55221800      -1.38708923       1.53739363
H        1.54047133       0.03178782       1.16931027
H        1.57882393      -2.28520355      -0.33964982
H       -0.55226055      -1.86215486      -0.39455799
H       -0.02446011      -0.53395232      -1.50090531
H       -2.08346356       0.58756668      -0.80248664
H       -2.25986500      -0.53402469       0.63072142
16
Frame=4 idx=003602 GeodesicLength=0.2520433708188951 rxn_smarts="[C:1]([C:2]1([C:3]([O:4][H:12])([H:10])[H:11])[C:5]([H:13])([H:14])[C:6]1([H:15])[H:16])([H:7])([H:8])[H:9]>>[C:1]([C:2][C:6]([C:5]([C:3]([O:4][H:12])([H:10])[H:11])([H:13])[H:14])([H:15])[H:16])([H:7])([H:8])[H:9]"
C        0.11805570       1.84163971      -0.15294977
C       -0.38651934       0.63196447       0.56994752
C        0.93201880      -0.77224696       0.74394161
O        1.94028972      -1.44367352      -0.01448378
C       -0.41793227      -0.79334639      -0.53649162
C       -1.57872415       0.00312649      -0.02304655
H       -0.04824840       1.84208402      -1.23932763
H       -0.46844004       2.67018623       0.25921247
H        1.17006606       2.05136719       0.05079581
H        0.52809377      -1.40977023       1.53064178
H        1.52675446       0.00615542       1.21282919
H        1.59881481      -2.28249948      -0.33330830
H       -0.55952513      -1.86304636      -0.42270986
H       -0.02790536      -0.52871048      -1.51163051
H       -2.09222593       0.58233179      -0.78920144
H       -2.23457268      -0.53556192       0.65578109
16
Frame=5 idx=003602 GeodesicLength=0.3146829712187404 rxn_smarts="[C:1]([C:2]1([C:3]([O:4][H:12])([H:10])[H:11])[C:5]([H:13])([H:14])[C:6]1([H:15])[H:16])([H:7])([H:8])[H:9]>>[C:1]([C:2][C:6]([C:5]([C:3]([O:4][H:12])([H:10])[H:11])([H:13])[H:14])([H:15])[H:16])([H:7])([H:8])[H:9]"
C        0.11768428       1.85448911      -0.16880697
C       -0.37278216       0.64096566       0.55260027
C        0.92509235      -0.78487729       0.75298210
O        1.95202514      -1.44390997       0.01013579
C       -0.41520208      -0.79331562      -0.54591942
C       -1.57152121       0.00265295      -0.01590746
H       -0.07821461       1.86400433      -1.24996525
H       -0.45844644       2.67855265       0.26735652
H        1.17442036       2.06065699       0.01227087
H        0.50403061      -1.43289537       1.52306296
H        1.51087319      -0.02038959       1.25681141
H        1.61939468      -2.27919881      -0.32656436
H       -0.56693234      -1.86362577      -0.45084840
H       -0.03167184      -0.52359876      -1.52262564
H       -2.10046868       0.57708193      -0.77524413
H       -2.20828125      -0.53659243       0.68066172
16
Frame=6 idx=003602 GeodesicLength=0.37716838784346507 rxn_smarts="[C:1]([C:2]1([C:3]([O:4][H:12])([H:10])[H:11])[C:5]([H:13])([H:14])[C:6]1([H:15])[H:16])([H:7])([H:8])[H:9]>>[C:1]([C:2][C:6]([C:5]([C:3]([O:4][H:12])([H:10])[H:11])([H:13])[H:14])([H:15])[H:16])([H:7])([H:8])[H:9]"
C        0.11715918       1.86742078      -0.18495106
C       -0.35829914       0.64968829       0.53481907
C        0.91787513      -0.79772715       0.76202881
O        1.96364842      -1.44383423       0.03563990
C       -0.41237660      -0.79347932      -0.55548738
C       -1.56360404       0.00231962      -0.00851506
H       -0.10900482       1.88608300      -1.25982601
H       -0.44753641       2.68656245       0.27576749
H        1.17823272       2.07031893      -0.02774026
H        0.48010251      -1.45651034       1.51461469
H        1.49268020      -0.04785142       1.30113618
H        1.64063288      -2.27518177      -0.31941349
H       -0.57455245      -1.86391699      -0.47888651
H       -0.03580872      -0.51867704      -1.53388243
H       -2.10813130       0.57184635      -0.76062357
H       -2.18101755      -0.53706116       0.70531961
16
Frame=7 idx=003602 GeodesicLength=0.439499883160013 rxn_smarts="[C:1]([C:2]1([C:3]([O:4][H:12])([H:10])[H:11])[C:5]([H:13])([H:14])[C:6]1([H:15])[H:16])([H:7])([H:8])[H:9]>>[C:1]([C:2][C:6]([C:5]([C:3]([O:4][H:12])([H:10])[H:11])([H:13])[H:14])([H:15])[H:16])([H:7])([H:8])[H:9]"
C        0.11648932       1.88040380      -0.20135360
C       -0.34304498       0.65809865       0.51658734
C        0.91036435      -0.81079793       0.77108313
O        1.97515581      -1.44337364       0.06205731
C       -0.40947358      -0.79386992      -0.56517471
C       -1.55494377       0.00215057      -0.00088671
H       -0.14057329       1.90828240      -1.26880453
H       -0.43561783       2.69415700       0.28444332
H        1.18143469       2.08037480      -0.06924542
H        0.45638307      -1.48065200       1.50526488
H        1.47203386      -0.07621575       1.34564177
H        1.66259621      -2.27034100      -0.31184370
H       -0.58245697      -1.86394616      -0.50674063
H       -0.04035990      -0.51400787      -1.54538946
H       -2.11515745       0.56665800      -0.74534640
H       -2.15282954      -0.53692095       0.72970741
16
Frame=8 idx=003602 GeodesicLength=0.5016910814524459 rxn_smarts="[C:1]([C:2]1([C:3]([O:4][H:12])([H:10])[H:11])[C:5]([H:13])([H:14])[C:6]1([H:15])[H:16])([H:7])([H:8])[H:9]>>[C:1]([C:2][C:6]([C:5]([C:3]([O:4][H:12])([H:10])[H:11])([H:13])[H:14])([H:15])[H:16])([H:7])([H:8])[H:9]"
C        0.11569308       1.89339414      -0.21797790
C       -0.32699917       0.66615795       0.49789418
C        0.90256232      -0.82409464       0.78013699
O        1.98652592      -1.44245268       0.08943835
C       -0.40651545      -0.79452286      -0.57496480
C       -1.54552213       0.00216094       0.00695482
H       -0.17288489       1.93057540      -1.27678546
H       -0.42256903       2.70127764       0.29336529
H        1.18394779       2.09084035      -0.11224699
H        0.43295297      -1.50535437       1.49497041
H        1.44881403      -0.10547269       1.39015035
H        1.68535418      -2.26453331      -0.30382137
H       -0.59073244      -1.86373770      -0.53433409
H       -0.04537148      -0.50965258      -1.55713579
H       -2.12148999       0.56155162      -0.72942716
H       -2.12376571      -0.53613719       0.75378316
16
Frame=9 idx=003602 GeodesicLength=0.5638027356158889 rxn_smarts="[C:1]([C:2]1([C:3]([O:4][H:12])([H:10])[H:11])[C:5]([H:13])([H:14])[C:6]1([H:15])[H:16])([H:7])([H:8])[H:9]>>[C:1]([C:2][C:6]([C:5]([C:3]([O:4][H:12])([H:10])[H:11])([H:13])[H:14])([H:15])[H:16])([H:7])([H:8])[H:9]"
C        0.11482305       1.90634725      -0.23475289
C       -0.31018419       0.67386075       0.47872684
C        0.89445565      -0.83760770       0.78923627
O        1.99773154      -1.44100452       0.11779146
C       -0.40352498      -0.79544588      -0.58482512
C       -1.53534614       0.00235618       0.01493540
H       -0.20594327       1.95301841      -1.28365443
H       -0.40831812       2.70791589       0.30239080
H        1.18567145       2.10168922      -0.15663744
H        0.40982285      -1.53057421       1.48376263
H        1.42331335      -0.13570620       1.43443815
H        1.70891471      -2.25766784      -0.29528608
H       -0.59944618      -1.86327301      -0.56159066
H       -0.05089724      -0.50563957      -1.56907509
H       -2.12708773       0.55655265      -0.71295012
H       -2.09398475      -0.53482143       0.77749028
16
Frame=10 idx=003602 GeodesicLength=0.625811253190079 rxn_smarts="[C:1]([C:2]1([C:3]([O:4][H:12])([H:10])[H:11])[C:5]([H:13])([H:14])[C:6]1([H:15])[H:16])([H:7])([H:8])[H:9]>>[C:1]([C:2][C:6]([C:5]([C:3]([O:4][H:12])([H:10])[H:11])([H:13])[H:14])([H:15])[H:16])([H:7])([H:8])[H:9]"
C        0.11387542       1.91920681      -0.25166443
C       -0.29257070       0.68112758       0.45905169
C        0.88603831      -0.85134322       0.79831267
O        2.00876011      -1.43892875       0.14720192
C       -0.40054472      -0.79671120      -0.59476337
C       -1.52438686       0.00275299       0.02307423
H       -0.23962278       1.97548320      -1.28926235
H       -0.39267315       2.71394727       0.31163748
H        1.18656557       2.11291918      -0.20249666
H        0.38713166      -1.55637708       1.47153973
H        1.39504288      -0.16676381       1.47833615
H        1.73341387      -2.24950526      -0.28622950
H       -0.60870129      -1.86263486      -0.58844553
H       -0.05699482      -0.50207001      -1.58123673
H       -2.13189859       0.55169735      -0.69587580
H       -2.06343493      -0.53280018       0.80082049
16
Frame=11 idx=003602 GeodesicLength=0.6877567348438233 rxn_smarts="[C:1]([C:2]1([C:3]([O:4][H:12])([H:10])[H:11])[C:5]([H:13])([H:14])[C:6]1([H:15])[H:16])([H:7])([H:8])[H:9]>>[C:1]([C:2][C:6]([C:5]([C:3]([O:4][H:12])([H:10])[H:11])([H:13])[H:14])([H:15])[H:16])([H:7])([H:8])[H:9]"
C        0.11287999       1.93191974      -0.26865634
C       -0.27415838       0.68790855       0.43883531
C        0.87731630      -0.86529743       0.80734087
O        2.01958473      -1.43615121       0.17771855
C       -0.39760775      -0.79835791      -0.60477570
C       -1.51263999       0.00335317       0.03133844
H       -0.27384315       1.99792602      -1.29348098
H       -0.37551850       2.71929388       0.32109395
H        1.18656486       2.12448700      -0.24977531
H        0.36494507      -1.58275845       1.45827960
H        1.36392751      -0.19853891       1.52163292
H        1.75890880      -2.23990181      -0.27661807
H       -0.61858718      -1.86185048      -0.61484878
H       -0.06371908      -0.49900187      -1.59361323
H       -2.13588740       0.54701813      -0.67822288
H       -2.03216583      -0.53004843       0.82375166
16
Frame=12 idx=003602 GeodesicLength=0.7496813126145736 rxn_smarts="[C:1]([C:2]1([C:3]([O:4][H:12])([H:10])[H:11])[C:5]([H:13])([H:14])[C:6]1([H:15])[H:16])([H:7])([H:8])[H:9]>>[C:1]([C:2][C:6]([C:5]([C:3]([O:4][H:12])([H:10])[H:11])([H:13])[H:14])([H:15])[H:16])([H:7])([H:8])[H:9]"
C        0.11186953       1.94443218      -0.28566571
C       -0.25496746       0.69415949       0.41805213
C        0.86828851      -0.87945826       0.81629714
O        2.03017349      -1.43262146       0.20939593
C       -0.39474858      -0.80042290      -0.61486015
C       -1.50010858       0.00415178       0.03969482
H       -0.30852744       2.02031233      -1.29616879
H       -0.35671634       2.72387545       0.33075106
H        1.18560028       2.13634044      -0.29841696
H        0.34333856      -1.60968788       1.44396766
H        1.32992681      -0.23092016       1.56406824
H        1.78543632      -2.22870146      -0.26638815
H       -0.62918724      -1.86094923      -0.64075988
H       -0.07112167      -0.49648121      -1.60619655
H       -2.13902297       0.54253819      -0.66001948
H       -2.00023320      -0.52656731       0.84624869
16
Frame=13 idx=003602 GeodesicLength=0.8116336370049134 rxn_smarts="[C:1]([C:2]1([C:3]([O:4][H:12])([H:10])[H:11])[C:5]([H:13])([H:14])[C:6]1([H:15])[H:16])([H:7])([H:8])[H:9]>>[C:1]([C:2][C:6]([C:5]([C:3]([O:4][H:12])([H:10])[H:11])([H:13])[H:14])([H:15])[H:16])([H:7])([H:8])[H:9]"
C        0.11087140       1.95669629      -0.30261959
C       -0.23502972       0.69983659       0.39666186
C        0.85896422      -0.89379743       0.82514825
O        2.04047493      -1.42829602       0.24229987
C       -0.39200336      -0.80294149      -0.62502099
C       -1.48680228       0.00513917       0.04809685
H       -0.34358856       2.04261166      -1.29718328
H       -0.33612854       2.72759738       0.34061435
H        1.18361055       2.14841519      -0.34834742
H        0.32239522      -1.63709647       1.42859936
H        1.29304495      -0.26378816       1.60536433
H        1.81301707      -2.21575911      -0.25546603
H       -0.64058623      -1.85995445      -0.66614203
H       -0.07925194      -0.49455818      -1.61898242
H       -2.14128779       0.53827729      -0.64130105
H       -1.96769992      -0.52238225       0.86827795
16
Frame=14 idx=003602 GeodesicLength=0.8736629820240995 rxn_smarts="[C:1]([C:2]1([C:3]([O:4][H:12])([H:10])[H:11])[C:5]([H:13])([H:14])[C:6]1([H:15])[H:16])([H:7])([H:8])[H:9]>>[C:1]([C:2][C:6]([C:5]([C:3]([O:4][H:12])([H:10])[H:11])([H:13])[H:14])([H:15])[H:16])([H:7])([H:8])[H:9]"
C        0.10991142       1.96866546      -0.31943719
C       -0.21438079       0.70489722       0.37464983
C        0.84937951      -0.90828936       0.83384483
O        2.05043638      -1.42322393       0.27643961
C       -0.38939693      -0.80593712      -0.63526442
C       -1.47274071       0.00629154       0.05649843
H       -0.37887142       2.06478398      -1.29635613
H       -0.31372344       2.73042112       0.35056388
H        1.18046269       2.16074465      -0.39936704
H        0.30217644      -1.66487754       1.41221435
H        1.25345937      -0.29698076       1.64522097
H        1.84159303      -2.20107454      -0.24374720
H       -0.65285601      -1.85887127      -0.69098358
H       -0.08814789      -0.49324498      -1.63195606
H       -2.14266811       0.53424526      -0.62210771
H       -1.93463356      -0.51754973       0.88978744
16
Frame=15 idx=003602 GeodesicLength=0.9358449914620004 rxn_smarts="[C:1]([C:2]1([C:3]([O:4][H:12])([H:10])[H:11])[C:5]([H:13])([H:14])[C:6]1([H:15])[H:16])([H:7])([H:8])[H:9]>>[C:1]([C:2][C:6]([C:5]([C:3]([O:4][H:12])([H:10])[H:11])([H:13])[H:14])([H:15])[H:16])([H:7])([H:8])[H:9]"
C        0.10903906       1.98027603      -0.33604803
C       -0.19308225       0.70929630       0.35197650
C        0.83955495      -0.92289903       0.84233697
O        2.05998286      -1.41739210       0.31190411
C       -0.38696851      -0.80944608      -0.64561064
C       -1.45794757       0.00757688       0.06484626
H       -0.41430712       2.08684099      -1.29351772
H       -0.28931202       2.73224671       0.36058655
H        1.17607302       2.17326327      -0.45141507
H        0.28276150      -1.69292764       1.39482145
H        1.21122861      -0.33037991       1.68336691
H        1.87115308      -2.18446788      -0.23112084
H       -0.66607013      -1.85772212      -0.71527015
H       -0.09785712      -0.49257469      -1.64512106
H       -2.14315563       0.53044776      -0.60248243
H       -1.90109273      -0.51213850       0.91074718
16
Frame=16 idx=003602 GeodesicLength=0.9982474134495086 rxn_smarts="[C:1]([C:2]1([C:3]([O:4][H:12])([H:10])[H:11])[C:5]([H:13])([H:14])[C:6]1([H:15])[H:16])([H:7])([H:8])[H:9]>>[C:1]([C:2][C:6]([C:5]([C:3]([O:4][H:12])([H:10])[H:11])([H:13])[H:14])([H:15])[H:16])([H:7])([H:8])[H:9]"
C        0.10827902       1.99147735      -0.35237750
C       -0.17121336       0.71299710       0.32861737
C        0.82952420      -0.93757891       0.85057909
O        2.06903664      -1.41086111       0.34873887
C       -0.38474794      -0.81349408      -0.65607378
C       -1.44246141       0.00895233       0.07307828
H       -0.44976491       2.10878629      -1.28847607
H       -0.26278931       2.73302164       0.37057616
H        1.17032615       2.18595868      -0.50433961
H        0.26421630      -1.72110426       1.37647167
H        1.16656877      -0.36384517       1.71953881
H        1.90163038      -2.16587369      -0.21748809
H       -0.68028510      -1.85651141      -0.73899634
H       -0.10841370      -0.49255773      -1.65846735
H       -2.14275643       0.52687327      -0.58248588
H       -1.86714930      -0.50624030       0.93110436
