14
Frame=0 idx=003044 GeodesicLength=0.0 rxn_smarts="[O:1]([C:2]([C:3]1([O:4][H:10])[C:5]([H:11])([H:12])[C:6]1([H:13])[H:14])([H:8])[H:9])[H:7]>>[H:9][H:10].[O:1]([C@:2]1([H:8])[C:3](=[O:4])[C:6]([H:13])([H:14])[C:5]1([H:11])[H:12])[H:7]"
O        2.02994622      -0.86396088       0.21567623
C        1.07995538      -0.31865919      -0.48601349
C       -0.10815813       0.08547618       0.25834215
O        0.29065499       0.63356617       1.40809957
C       -1.31239814      -0.84625623       0.15395652
C       -1.34531429       0.49941905      -0.49393631
H        1.81518932      -0.58587501       1.13933918
H        1.11662110      -0.54122280      -1.54979102
H        1.55874961       1.40311029      -0.24805830
H        1.19196215       1.41778669       0.56743135
H       -1.82802083      -0.97830269       1.09451395
H       -1.26065573      -1.72801332      -0.47116359
H       -1.31105691       0.54321478      -1.57667688
H       -1.91747470       1.27971697      -0.01171935
14
Frame=1 idx=003044 GeodesicLength=0.10564159603915205 rxn_smarts="[O:1]([C:2]([C:3]1([O:4][H:10])[C:5]([H:11])([H:12])[C:6]1([H:13])[H:14])([H:8])[H:9])[H:7]>>[H:9][H:10].[O:1]([C@:2]1([H:8])[C:3](=[O:4])[C:6]([H:13])([H:14])[C:5]1([H:11])[H:12])[H:7]"
O        2.01079255      -0.87753791       0.22681209
C        1.06292541      -0.31883140      -0.47807345
C       -0.11365285       0.12414028       0.26580986
O        0.28773346       0.68573718       1.40398073
C       -1.29126740      -0.85519901       0.14497484
C       -1.35867625       0.49765840      -0.49035571
H        1.79659027      -0.61697171       1.15372181
H        1.09370909      -0.53855084      -1.54257413
H        1.60782360       1.38764675      -0.26214764
H        1.22975049       1.43912819       0.56355125
H       -1.80088359      -1.00758546       1.08617268
H       -1.24589735      -1.72838991      -0.49252072
H       -1.32105588       0.55182981      -1.57257694
H       -1.95789154       1.25692565      -0.00677466
14
Frame=2 idx=003044 GeodesicLength=0.21074957299842728 rxn_smarts="[O:1]([C:2]([C:3]1([O:4][H:10])[C:5]([H:11])([H:12])[C:6]1([H:13])[H:14])([H:8])[H:9])[H:7]>>[H:9][H:10].[O:1]([C@:2]1([H:8])[C:3](=[O:4])[C:6]([H:13])([H:14])[C:5]1([H:11])[H:12])[H:7]"
O        1.99209642      -0.88975123       0.23817966
C        1.04623064      -0.31828595      -0.47017868
C       -0.11915188       0.16136103       0.27235277
O        0.28463658       0.73740343       1.39843821
C       -1.26993207      -0.86356633       0.13593488
C       -1.37131641       0.49556009      -0.48666017
H        1.77675604      -0.64808237       1.16806373
H        1.07198343      -0.53487323      -1.53541952
H        1.65429182       1.37097436      -0.27577502
H        1.26688283       1.45939494       0.56003851
H       -1.77250371      -1.03532579       1.07804244
H       -1.23272694      -1.72855020      -0.51323410
H       -1.33133521       0.56017246      -1.56830487
H       -1.99591154       1.23356880      -0.00147784
14
Frame=3 idx=003044 GeodesicLength=0.31546264063510754 rxn_smarts="[O:1]([C:2]([C:3]1([O:4][H:10])[C:5]([H:11])([H:12])[C:6]1([H:13])[H:14])([H:8])[H:9])[H:7]>>[H:9][H:10].[O:1]([C@:2]1([H:8])[C:3](=[O:4])[C:6]([H:13])([H:14])[C:5]1([H:11])[H:12])[H:7]"
O        1.97389700      -0.90068245       0.24973829
C        1.02990943      -0.31706394      -0.46234536
C       -0.12466857       0.19717558       0.27809805
O        0.28133430       0.78863169       1.39150443
C       -1.24854623      -0.87139487       0.12680322
C       -1.38325488       0.49315775      -0.48283710
H        1.75587271      -0.67930261       1.18223852
H        1.05136642      -0.53032541      -1.52833206
H        1.69822645       1.35326917      -0.28896686
H        1.30335868       1.47868784       0.55699149
H       -1.74313249      -1.06158694       1.07006392
H       -1.22091136      -1.72855247      -0.53326269
H       -1.34186518       0.56824125      -1.56384412
H       -2.03158628       1.20974542       0.00415025
14
Frame=4 idx=003044 GeodesicLength=0.419831645845651 rxn_smarts="[O:1]([C:2]([C:3]1([O:4][H:10])[C:5]([H:11])([H:12])[C:6]1([H:13])[H:14])([H:8])[H:9])[H:7]>>[H:9][H:10].[O:1]([C@:2]1([H:8])[C:3](=[O:4])[C:6]([H:13])([H:14])[C:5]1([H:11])[H:12])[H:7]"
O        1.95620189      -0.91043216       0.26145700
C        1.01398412      -0.31519916      -0.45458808
C       -0.13022260       0.23163838       0.28315327
O        0.27779887       0.83952380       1.38318116
C       -1.22723674      -0.87873083       0.11756067
C       -1.39452694       0.49047488      -0.47887671
H        1.73409149      -0.71070986       1.19612517
H        1.03178182      -0.52500293      -1.52132039
H        1.73975977       1.33467020      -0.30170694
H        1.33920891       1.49709375       0.55448567
H       -1.71299271      -1.08643893       1.06218794
H       -1.21021010      -1.72845748      -0.55257762
H       -1.35264089       0.57601847      -1.55918150
H       -2.06499692       1.18555187       0.01010038
14
Frame=5 idx=003044 GeodesicLength=0.523948181093992 rxn_smarts="[O:1]([C:2]([C:3]1([O:4][H:10])[C:5]([H:11])([H:12])[C:6]1([H:13])[H:14])([H:8])[H:9])[H:7]>>[H:9][H:10].[O:1]([C@:2]1([H:8])[C:3](=[O:4])[C:6]([H:13])([H:14])[C:5]1([H:11])[H:12])[H:7]"
O        1.93901333      -0.91909858       0.27330226
C        0.99846110      -0.31272656      -0.44690793
C       -0.13583172       0.26482084       0.28763015
O        0.27401390       0.89018028       1.37346085
C       -1.20610483      -0.88559954       0.10820161
C       -1.40516622       0.48753724      -0.47477205
H        1.71154381      -0.74242572       1.20961098
H        1.01314801      -0.51898788      -1.51438407
H        1.77901699       1.31530501      -0.31401631
H        1.37446442       1.51470894       0.55261373
H       -1.68228140      -1.10994381       1.05437776
H       -1.20037990      -1.72831607      -0.57115218
H       -1.36364265       0.58348979      -1.55431382
H       -2.09625484       1.16105607       0.01634902
14
Frame=6 idx=003044 GeodesicLength=0.6278564865186358 rxn_smarts="[O:1]([C:2]([C:3]1([O:4][H:10])[C:5]([H:11])([H:12])[C:6]1([H:13])[H:14])([H:8])[H:9])[H:7]>>[H:9][H:10].[O:1]([C@:2]1([H:8])[C:3](=[O:4])[C:6]([H:13])([H:14])[C:5]1([H:11])[H:12])[H:7]"
O        1.92230290      -0.92675552       0.28528084
C        0.98333944      -0.30967301      -0.43930107
C       -0.14151852       0.29679987       0.29162351
O        0.26996585       0.94074425       1.36230114
C       -1.18522428      -0.89204966       0.09873427
C       -1.41522822       0.48436218      -0.47051283
H        1.68833499      -0.77458479       1.22255476
H        0.99539751      -0.51233732      -1.50751471
H        1.81616319       1.29526980      -0.32587734
H        1.40917832       1.53161599       0.55144351
H       -1.65115431      -1.13218089       1.04660773
H       -1.19120189      -1.72817267      -0.58898825
H       -1.37487716       0.59062000      -1.54923105
H       -2.12547781       1.13634177       0.02287950
14
Frame=7 idx=003044 GeodesicLength=0.731622908376127 rxn_smarts="[O:1]([C:2]([C:3]1([O:4][H:10])[C:5]([H:11])([H:12])[C:6]1([H:13])[H:14])([H:8])[H:9])[H:7]>>[H:9][H:10].[O:1]([C@:2]1([H:8])[C:3](=[O:4])[C:6]([H:13])([H:14])[C:5]1([H:11])[H:12])[H:7]"
O        1.90605382      -0.93348291       0.29739263
C        0.96860823      -0.30606275      -0.43174998
C       -0.14730706       0.32765812       0.29522861
O        0.26565703       0.99133725       1.34964873
C       -1.16464955      -0.89811586       0.08917067
C       -1.42476249       0.48096339      -0.46609199
H        1.66455396      -0.80731097       1.23483652
H        0.97846060      -0.50511009      -1.50069064
H        1.85133661       1.27465692      -0.33731460
H        1.44340683       1.54789458       0.55106315
H       -1.61975089      -1.15322775       1.03885320
H       -1.18247725      -1.72806468      -0.60609286
H       -1.38633772       0.59738621      -1.54392856
H       -2.15279212       1.11147853       0.02967511
14
Frame=8 idx=003044 GeodesicLength=0.8352889969430627 rxn_smarts="[O:1]([C:2]([C:3]1([O:4][H:10])[C:5]([H:11])([H:12])[C:6]1([H:13])[H:14])([H:8])[H:9])[H:7]>>[H:9][H:10].[O:1]([C@:2]1([H:8])[C:3](=[O:4])[C:6]([H:13])([H:14])[C:5]1([H:11])[H:12])[H:7]"
O        1.89024064      -0.93933891       0.30964629
C        0.95425374      -0.30191832      -0.42423563
C       -0.15322120       0.35747929       0.29852815
O        0.26107411       1.04212020       1.33540905
C       -1.14441451      -0.90383379       0.07952871
C       -1.43381541       0.47734605      -0.46150008
H        1.64028463      -0.84072173       1.24633524
H        0.96227889      -0.49734012      -1.49389483
H        1.88469888       1.25351950      -0.34833076
H        1.47723293       1.56359503       0.55156332
H       -1.58820185      -1.17314107       1.03109123
H       -1.17403298      -1.72801900      -0.62249013
H       -1.39802968       0.60375599      -1.53839801
H       -2.17834818       1.08649689       0.03674745
14
Frame=9 idx=003044 GeodesicLength=0.9387781409014516 rxn_smarts="[O:1]([C:2]([C:3]1([O:4][H:10])[C:5]([H:11])([H:12])[C:6]1([H:13])[H:14])([H:8])[H:9])[H:7]>>[H:9][H:10].[O:1]([C@:2]1([H:8])[C:3](=[O:4])[C:6]([H:13])([H:14])[C:5]1([H:11])[H:12])[H:7]"
O        1.87481867      -0.94437972       0.32201057
C        0.94019661      -0.29719361      -0.41672278
C       -0.15929336       0.38639418       0.30161449
O        0.25632395       1.09310663       1.31945545
C       -1.12454999      -0.90924314       0.06989070
C       -1.44249678       0.47350244      -0.45674917
H        1.61567610      -0.87491671       1.25677446
H        0.94676753      -0.48889787      -1.48709479
H        1.91688876       1.23194138      -0.35865128
H        1.51075521       1.57877193       0.55288822
H       -1.55678050      -1.19190154       1.02332812
H       -1.16573841      -1.72810497      -0.63807231
H       -1.40998130       0.60962377      -1.53265250
H       -2.20258648       1.06129725       0.04398083
14
Frame=10 idx=003044 GeodesicLength=1.042243513811909 rxn_smarts="[O:1]([C:2]([C:3]1([O:4][H:10])[C:5]([H:11])([H:12])[C:6]1([H:13])[H:14])([H:8])[H:9])[H:7]>>[H:9][H:10].[O:1]([C@:2]1([H:8])[C:3](=[O:4])[C:6]([H:13])([H:14])[C:5]1([H:11])[H:12])[H:7]"
O        1.85979249      -0.94868398       0.33453105
C        0.92647435      -0.29197819      -0.40919220
C       -0.16553885       0.41443116       0.30456749
O        0.25130478       1.14460423       1.30161561
C       -1.10504815      -0.91437337       0.06023499
C       -1.45078012       0.46945554      -0.45180557
H        1.59071932      -0.91008618       1.26617005
H        0.93190264      -0.47996779      -1.48026964
H        1.94752952       1.20997080      -0.36854289
H        1.54396349       1.59348324       0.55530945
H       -1.52541260      -1.20965762       1.01556276
H       -1.15743499      -1.72830468      -0.65299976
H       -1.42215549       0.61502029      -1.52667409
H       -2.22531637       1.03608656       0.05149275
14
Frame=11 idx=003044 GeodesicLength=1.1456438906737696 rxn_smarts="[O:1]([C:2]([C:3]1([O:4][H:10])[C:5]([H:11])([H:12])[C:6]1([H:13])[H:14])([H:8])[H:9])[H:7]>>[H:9][H:10].[O:1]([C@:2]1([H:8])[C:3](=[O:4])[C:6]([H:13])([H:14])[C:5]1([H:11])[H:12])[H:7]"
O        1.84512736      -0.95228789       0.34724716
C        0.91306529      -0.28630141      -0.40160851
C       -0.17197397       0.44165312       0.30745969
O        0.24601283       1.19676267       1.28168656
C       -1.08591341      -0.91925010       0.05058550
C       -1.45868826       0.46520804      -0.44664020
H        1.56549381      -0.94633929       1.27440067
H        0.91764949      -0.47056865      -1.47338716
H        1.97669535       1.18764549      -0.37800849
H        1.57688502       1.60775689       0.55893240
H       -1.49418186      -1.22647604       1.00779687
H       -1.14902962      -1.72861542      -0.66732345
H       -1.43455415       0.61992361      -1.52043959
H       -2.24658787       1.01088895       0.05929855
14
Frame=12 idx=003044 GeodesicLength=1.249063099575662 rxn_smarts="[O:1]([C:2]([C:3]1([O:4][H:10])[C:5]([H:11])([H:12])[C:6]1([H:13])[H:14])([H:8])[H:9])[H:7]>>[H:9][H:10].[O:1]([C@:2]1([H:8])[C:3](=[O:4])[C:6]([H:13])([H:14])[C:5]1([H:11])[H:12])[H:7]"
O        1.83080664      -0.95525238       0.36016669
C        0.89993943      -0.28018486      -0.39393526
C       -0.17861541       0.46812928       0.31037814
O        0.24043681       1.24973881       1.25941070
C       -1.06713023      -0.92390634       0.04098144
C       -1.46625460       0.46076579      -0.44124710
H        1.54009379      -0.98381739       1.28132555
H        0.90395559      -0.46072452      -1.46641040
H        2.00453732       1.16502242      -0.38705390
H        1.60953820       1.62163316       0.56393502
H       -1.46315312      -1.24240734       1.00004166
H       -1.14044117      -1.72905376      -0.68106391
H       -1.44715905       0.62430385      -1.51395106
H       -2.26655419       0.98575330       0.06742244
14
Frame=13 idx=003044 GeodesicLength=1.3524768429276488 rxn_smarts="[O:1]([C:2]([C:3]1([O:4][H:10])[C:5]([H:11])([H:12])[C:6]1([H:13])[H:14])([H:8])[H:9])[H:7]>>[H:9][H:10].[O:1]([C@:2]1([H:8])[C:3](=[O:4])[C:6]([H:13])([H:14])[C:5]1([H:11])[H:12])[H:7]"
O        1.81680655      -0.95761979       0.37331144
C        0.88707266      -0.27365033      -0.38613974
C       -0.18547628       0.49391875       0.31339617
O        0.23455768       1.30368801       1.23446228
C       -1.04868300      -0.92836568       0.03145519
C       -1.47350597       0.45612713      -0.43559641
H        1.51462325      -1.02262634       1.28680163
H        0.89078596      -0.45043988      -1.45930884
H        2.03119264       1.14211396      -0.39563503
H        1.64190945       1.63512851       0.57047571
H       -1.43240296      -1.25749471       0.99230659
H       -1.13160849      -1.72961655      -0.69425362
H       -1.45997366       0.62813933      -1.50718429
H       -2.28529782       0.96069760       0.07590891
14
Frame=14 idx=003044 GeodesicLength=1.4558911454562857 rxn_smarts="[O:1]([C:2]([C:3]1([O:4][H:10])[C:5]([H:11])([H:12])[C:6]1([H:13])[H:14])([H:8])[H:9])[H:7]>>[H:9][H:10].[O:1]([C@:2]1([H:8])[C:3](=[O:4])[C:6]([H:13])([H:14])[C:5]1([H:11])[H:12])[H:7]"
O        1.80308845      -0.95940936       0.38673452
C        0.87443541      -0.26669983      -0.37816749
C       -0.19257784       0.51909684       0.31660196
O        0.22841388       1.35873187       1.20645329
C       -1.03055345      -0.93263566       0.02205360
C       -1.48045517       0.45130463      -0.42966418
H        1.48919616      -1.06293630       1.29060627
H        0.87810825      -0.43972364      -1.45202923
H        2.05671800       1.11893118      -0.40372152
H        1.67396031       1.64827415       0.57877400
H       -1.40198951      -1.27178002       0.98462450
H       -1.12246865      -1.73029599      -0.70690213
H       -1.47300129       0.63140083      -1.50011577
H       -2.30287454       0.93574130       0.08475219
14
Frame=15 idx=003044 GeodesicLength=1.5592482873253832 rxn_smarts="[O:1]([C:2]([C:3]1([O:4][H:10])[C:5]([H:11])([H:12])[C:6]1([H:13])[H:14])([H:8])[H:9])[H:7]>>[H:9][H:10].[O:1]([C@:2]1([H:8])[C:3](=[O:4])[C:6]([H:13])([H:14])[C:5]1([H:11])[H:12])[H:7]"
O        1.78960847      -0.96066616       0.40047719
C        0.86200180      -0.25934411      -0.36997197
C       -0.19993450       0.54373050       0.32008153
O        0.22204705       1.41496093       1.17489899
C       -1.01272037      -0.93672040       0.01282119
C       -1.48711733       0.44630626      -0.42341539
H        1.46395499      -1.10487492       1.29251905
H        0.86589568      -0.42857135      -1.44452731
H        2.08120788       1.09546929      -0.41120713
H        1.70559807       1.66110623       0.58904211
H       -1.37197147      -1.28529378       0.97703171
H       -1.11298035      -1.73107358      -0.71902241
H       -1.48624861       0.63406259      -1.49271502
H       -2.31934132       0.91090849       0.09398747
14
Frame=16 idx=003044 GeodesicLength=1.6625346168447435 rxn_smarts="[O:1]([C:2]([C:3]1([O:4][H:10])[C:5]([H:11])([H:12])[C:6]1([H:13])[H:14])([H:8])[H:9])[H:7]>>[H:9][H:10].[O:1]([C@:2]1([H:8])[C:3](=[O:4])[C:6]([H:13])([H:14])[C:5]1([H:11])[H:12])[H:7]"
O        1.77632042      -0.96142612       0.41459743
C        0.84974596      -0.25159131      -0.36150432
C       -0.20755458       0.56789819       0.32392143
O        0.21551260       1.47241593       1.13923359
C       -0.99516246      -0.94061123       0.00381593
C       -1.49349990       0.44115392      -0.41681347
H        1.43907320      -1.14860748       1.29224712
H        0.85412201      -0.41699377      -1.43675267
H        2.10474648       1.07172253      -0.41797387
H        1.73665988       1.67367961       0.60155758
H       -1.34238959      -1.29805091       0.96958221
H       -1.10311596      -1.73192646      -0.73060056
H       -1.49971764       0.63609112      -1.48495465
H       -2.33474042       0.88624599       0.10364426
