15
Frame=0 idx=009339 GeodesicLength=0.0 rxn_smarts="[C:1]([n:2]1[c:3]([H:11])[c:4]([C:5]([H:12])([H:13])[H:14])[c:6]([H:15])[n:7]1)([H:8])([H:9])[H:10]>>[C:1]([N:2]1[C@@:3]2([H:11])[C:4]([C:5]([H:12])([H:13])[H:14])=[C:6]([H:15])[N:7]12)([H:8])([H:9])[H:10]"
C       -2.11514982       0.13834153      -0.58213524
N       -1.48669511      -0.61898170       0.49604100
C       -0.17714510      -0.96965173       0.40538374
C        0.81634860       0.03190304       0.07769125
C        2.14548849      -0.09482023      -0.57466464
C        0.28759791       0.82774650       1.04257542
N       -0.93371953       0.37211613       1.53142255
H       -1.44990935       0.88937944      -1.01817685
H       -2.99317923       0.61889621      -0.15707002
H       -2.43526201      -0.56356000      -1.35432167
H        0.09884621      -1.94179045       0.82564364
H        2.08101144      -0.07561850      -1.66564853
H        2.64370180      -1.02979721      -0.29617577
H        2.79614463       0.72672592      -0.27186232
H        0.72192113       1.68911105       1.54129743
15
Frame=1 idx=009339 GeodesicLength=0.047544262244351966 rxn_smarts="[C:1]([n:2]1[c:3]([H:11])[c:4]([C:5]([H:12])([H:13])[H:14])[c:6]([H:15])[n:7]1)([H:8])([H:9])[H:10]>>[C:1]([N:2]1[C@@:3]2([H:11])[C:4]([C:5]([H:12])([H:13])[H:14])=[C:6]([H:15])[N:7]12)([H:8])([H:9])[H:10]"
C       -2.12306154       0.12949877      -0.58006668
N       -1.48029644      -0.60454278       0.50323555
C       -0.17272670      -0.96591852       0.41471535
C        0.82401955       0.03093323       0.08643249
C        2.15176327      -0.09802830      -0.56788709
C        0.29013778       0.84557657       1.03308272
N       -0.92453757       0.37902728       1.52852891
H       -1.46988469       0.88343096      -1.02891144
H       -3.00488598       0.60496415      -0.15669753
H       -2.43694853      -0.58754478      -1.34068608
H        0.09161916      -1.94762339       0.81750601
H        2.09223115       0.00226766      -1.65460527
H        2.61468329      -1.06808164      -0.35766375
H        2.83630871       0.67091831      -0.20688402
H        0.71157855       1.72512249       1.50990083
15
Frame=2 idx=009339 GeodesicLength=0.09533945877721668 rxn_smarts="[C:1]([n:2]1[c:3]([H:11])[c:4]([C:5]([H:12])([H:13])[H:14])[c:6]([H:15])[n:7]1)([H:8])([H:9])[H:10]>>[C:1]([N:2]1[C@@:3]2([H:11])[C:4]([C:5]([H:12])([H:13])[H:14])=[C:6]([H:15])[N:7]12)([H:8])([H:9])[H:10]"
C       -2.13216109       0.12046926      -0.57703848
N       -1.47368906      -0.58979089       0.51015848
C       -0.16824449      -0.96186800       0.42297997
C        0.83140394       0.03031172       0.09345516
C        2.15898258      -0.10159911      -0.56026871
C        0.29290998       0.86369097       1.02148096
N       -0.91435448       0.38633087       1.52495241
H       -1.49208277       0.87722713      -1.03941077
H       -3.01741353       0.59040220      -0.15429441
H       -2.44014958      -0.61151877      -1.32553993
H        0.08443402      -1.95294215       0.80741177
H        2.11039992       0.08072400      -1.63664833
H        2.58455193      -1.10077971      -0.42076595
H        2.87369646       0.60869549      -0.14190730
H        0.70171616       1.76064697       1.47543510
15
Frame=3 idx=009339 GeodesicLength=0.14315891920618817 rxn_smarts="[C:1]([n:2]1[c:3]([H:11])[c:4]([C:5]([H:12])([H:13])[H:14])[c:6]([H:15])[n:7]1)([H:8])([H:9])[H:10]>>[C:1]([N:2]1[C@@:3]2([H:11])[C:4]([C:5]([H:12])([H:13])[H:14])=[C:6]([H:15])[N:7]12)([H:8])([H:9])[H:10]"
C       -2.14202084       0.11112523      -0.57362049
N       -1.46699602      -0.57452331       0.51674346
C       -0.16374276      -0.95729834       0.43077606
C        0.83853920       0.03036155       0.09939889
C        2.16673419      -0.10514980      -0.55222222
C        0.29570670       0.88249884       1.00829477
N       -0.90378329       0.39461986       1.52065410
H       -1.51596631       0.87074148      -1.05000005
H       -3.03072561       0.57491723      -0.15094036
H       -2.44379013      -0.63582633      -1.30961102
H        0.07712795      -1.95753875       0.79605124
H        2.13379739       0.15744205      -1.61235591
H        2.55356290      -1.12703628      -0.48484966
H        2.90763628       0.54165058      -0.07965176
H        0.69392036       1.79401601       1.44133294
15
Frame=4 idx=009339 GeodesicLength=0.19095446480982275 rxn_smarts="[C:1]([n:2]1[c:3]([H:11])[c:4]([C:5]([H:12])([H:13])[H:14])[c:6]([H:15])[n:7]1)([H:8])([H:9])[H:10]>>[C:1]([N:2]1[C@@:3]2([H:11])[C:4]([C:5]([H:12])([H:13])[H:14])=[C:6]([H:15])[N:7]12)([H:8])([H:9])[H:10]"
C       -2.15253733       0.10176510      -0.56984097
N       -1.46019784      -0.55878529       0.52271448
C       -0.15921425      -0.95229195       0.43787322
C        0.84543230       0.03104190       0.10435665
C        2.17492048      -0.10867506      -0.54376153
C        0.29851202       0.90163907       0.99381468
N       -0.89286594       0.40347313       1.51566535
H       -1.54145470       0.86436032      -1.06038899
H       -3.04470346       0.55868421      -0.14656622
H       -2.44769418      -0.65987511      -1.29318232
H        0.06964771      -1.96158517       0.78279455
H        2.16142400       0.22946113      -1.58256335
H        2.52321873      -1.14627213      -0.54737145
H        2.93726481       0.47217987      -0.02200052
H        0.68824764       1.82487998       1.40845644
15
Frame=5 idx=009339 GeodesicLength=0.2391114921686619 rxn_smarts="[C:1]([n:2]1[c:3]([H:11])[c:4]([C:5]([H:12])([H:13])[H:14])[c:6]([H:15])[n:7]1)([H:8])([H:9])[H:10]>>[C:1]([N:2]1[C@@:3]2([H:11])[C:4]([C:5]([H:12])([H:13])[H:14])=[C:6]([H:15])[N:7]12)([H:8])([H:9])[H:10]"
C       -2.16458125       0.09233971      -0.56502137
N       -1.45322769      -0.54272506       0.52799400
C       -0.15457755      -0.94670561       0.44318482
C        0.85186121       0.03273711       0.10683826
C        2.18420492      -0.11235432      -0.53444414
C        0.30134862       0.92123840       0.97699735
N       -0.88103857       0.41261335       1.50974831
H       -1.56993424       0.85821595      -1.07014633
H       -3.05992928       0.54136629      -0.13964242
H       -2.45315344      -0.68362252      -1.27551644
H        0.06225152      -1.96489699       0.76632518
H        2.19572981       0.29708578      -1.54711852
H        2.49406583      -1.15928936      -0.60752120
H        2.96289128       0.39967076       0.03344263
H        0.68408884       1.85432650       1.37487988
15
Frame=6 idx=009339 GeodesicLength=0.2876743718805747 rxn_smarts="[C:1]([n:2]1[c:3]([H:11])[c:4]([C:5]([H:12])([H:13])[H:14])[c:6]([H:15])[n:7]1)([H:8])([H:9])[H:10]>>[C:1]([N:2]1[C@@:3]2([H:11])[C:4]([C:5]([H:12])([H:13])[H:14])=[C:6]([H:15])[N:7]12)([H:8])([H:9])[H:10]"
C       -2.17751445       0.08278838      -0.55939347
N       -1.44606701      -0.52629608       0.53274871
C       -0.14984214      -0.94077963       0.44753492
C        0.85807808       0.03497547       0.10784344
C        2.19423150      -0.11630812      -0.52444223
C        0.30431878       0.94104622       0.95856008
N       -0.86856945       0.42222639       1.50308840
H       -1.60050634       0.85204616      -1.07934915
H       -3.07585065       0.52315296      -0.13087649
H       -2.45928058      -0.70720739      -1.25688163
H        0.05472184      -1.96763644       0.74763830
H        2.23514010       0.36154048      -1.50575788
H        2.46600612      -1.16641066      -0.66721226
H        2.98437308       0.32370802       0.08656135
H        0.68076110       1.88315425       1.33993790
15
Frame=7 idx=009339 GeodesicLength=0.33678509690487474 rxn_smarts="[C:1]([n:2]1[c:3]([H:11])[c:4]([C:5]([H:12])([H:13])[H:14])[c:6]([H:15])[n:7]1)([H:8])([H:9])[H:10]>>[C:1]([N:2]1[C@@:3]2([H:11])[C:4]([C:5]([H:12])([H:13])[H:14])=[C:6]([H:15])[N:7]12)([H:8])([H:9])[H:10]"
C       -2.19128674       0.07296357      -0.55295685
N       -1.43868919      -0.50943266       0.53697916
C       -0.14496833      -0.93441772       0.45104251
C        0.86406991       0.03782989       0.10731567
C        2.20490773      -0.12052793      -0.51378406
C        0.30740792       0.96115833       0.93837465
N       -0.85549963       0.43252540       1.49551559
H       -1.63319621       0.84561490      -1.08801765
H       -3.09239748       0.50389803      -0.12032634
H       -2.46594265      -0.73084497      -1.23719420
H        0.04712881      -1.96953608       0.72705413
H        2.27960801       0.42305366      -1.45801754
H        2.43899091      -1.16749424      -0.72708003
H        3.00151338       0.24379353       0.13749973
H        0.67835356       1.91141629       1.30359523
15
Frame=8 idx=009339 GeodesicLength=0.38606537912520084 rxn_smarts="[C:1]([n:2]1[c:3]([H:11])[c:4]([C:5]([H:12])([H:13])[H:14])[c:6]([H:15])[n:7]1)([H:8])([H:9])[H:10]>>[C:1]([N:2]1[C@@:3]2([H:11])[C:4]([C:5]([H:12])([H:13])[H:14])=[C:6]([H:15])[N:7]12)([H:8])([H:9])[H:10]"
C       -2.20557942       0.06314577      -0.54590470
N       -1.43113288      -0.49219786       0.54049216
C       -0.14000466      -0.92779748       0.45376430
C        0.86995502       0.04116491       0.10575718
C        2.21600797      -0.12490898      -0.50263911
C        0.31058210       0.98131900       0.91705042
N       -0.84205287       0.44320550       1.48723449
H       -1.66755046       0.83932302      -1.09596761
H       -3.10930385       0.48379940      -0.10823428
H       -2.47264363      -0.75406051      -1.21700735
H        0.03924631      -1.97085723       0.70429288
H        2.32717580       0.47919754      -1.40546000
H        2.41429759      -1.16273149      -0.78482166
H        3.01410310       0.16268110       0.18443245
H        0.67689989       1.93871730       1.26701084
15
Frame=9 idx=009339 GeodesicLength=0.4353437705066605 rxn_smarts="[C:1]([n:2]1[c:3]([H:11])[c:4]([C:5]([H:12])([H:13])[H:14])[c:6]([H:15])[n:7]1)([H:8])([H:9])[H:10]>>[C:1]([N:2]1[C@@:3]2([H:11])[C:4]([C:5]([H:12])([H:13])[H:14])=[C:6]([H:15])[N:7]12)([H:8])([H:9])[H:10]"
C       -2.22028004       0.05353094      -0.53832941
N       -1.42339225      -0.47462152       0.54303798
C       -0.13495344      -0.92093909       0.45553483
C        0.87579500       0.04495525       0.10336962
C        2.22740384      -0.12931580      -0.49102969
C        0.31380244       1.00131519       0.89482791
N       -0.82829692       0.45395759       1.47822325
H       -1.70344355       0.83341251      -1.10298912
H       -3.12642045       0.46291713      -0.09466278
H       -2.47923004      -0.77643260      -1.19664609
H        0.03097893      -1.97152469       0.67895825
H        2.37621734       0.52822653      -1.34979578
H        2.39286271      -1.15284735      -0.83820953
H        3.02240967       0.08281951       0.22652184
H        0.67654677       1.96454640       1.23118871
15
Frame=10 idx=009339 GeodesicLength=0.48488281157367696 rxn_smarts="[C:1]([n:2]1[c:3]([H:11])[c:4]([C:5]([H:12])([H:13])[H:14])[c:6]([H:15])[n:7]1)([H:8])([H:9])[H:10]>>[C:1]([N:2]1[C@@:3]2([H:11])[C:4]([C:5]([H:12])([H:13])[H:14])=[C:6]([H:15])[N:7]12)([H:8])([H:9])[H:10]"
C       -2.23567876       0.04395966      -0.52984517
N       -1.41543459      -0.45676564       0.54476556
C       -0.12978122      -0.91389632       0.45613081
C        0.88158789       0.04917415       0.09960488
C        2.23943672      -0.13397131      -0.47868052
C        0.31713756       1.02125969       0.87121596
N       -0.81398975       0.46488565       1.46840598
H       -1.74139086       0.82773497      -1.10888898
H       -3.14386471       0.44109592      -0.07889456
H       -2.48616621      -0.79822918      -1.17564082
H        0.02242148      -1.97149050       0.65094298
H        2.42813488       0.57212243      -1.28951891
H        2.37458675      -1.13817769      -0.88907756
H        3.02656248       0.00218887       0.26564000
H        0.67643834       1.99010933       1.19384035
15
Frame=11 idx=009339 GeodesicLength=0.5347070683048638 rxn_smarts="[C:1]([n:2]1[c:3]([H:11])[c:4]([C:5]([H:12])([H:13])[H:14])[c:6]([H:15])[n:7]1)([H:8])([H:9])[H:10]>>[C:1]([N:2]1[C@@:3]2([H:11])[C:4]([C:5]([H:12])([H:13])[H:14])=[C:6]([H:15])[N:7]12)([H:8])([H:9])[H:10]"
C       -2.25166542       0.03466246      -0.52030679
N       -1.40721951      -0.43872191       0.54561468
C       -0.12454593      -0.90694157       0.45544838
C        0.88746702       0.05336927       0.09466038
C        2.25210828      -0.13908915      -0.46543726
C        0.32073903       1.04070363       0.84636512
N       -0.79896928       0.47562813       1.45785438
H       -1.78129368       0.82255415      -1.11327172
H       -3.16134860       0.41859951      -0.06066177
H       -2.49350400      -0.81900741      -1.15404897
H        0.01342462      -1.97090948       0.61993089
H        2.48191227       0.61081873      -1.22446581
H        2.36047264      -1.11916256      -0.93703372
H        3.02664363      -0.07826580       0.30184620
H        0.67577895       2.01576202       1.15350602
15
Frame=12 idx=009339 GeodesicLength=0.5846118021774582 rxn_smarts="[C:1]([n:2]1[c:3]([H:11])[c:4]([C:5]([H:12])([H:13])[H:14])[c:6]([H:15])[n:7]1)([H:8])([H:9])[H:10]>>[C:1]([N:2]1[C@@:3]2([H:11])[C:4]([C:5]([H:12])([H:13])[H:14])=[C:6]([H:15])[N:7]12)([H:8])([H:9])[H:10]"
C       -2.26745087       0.02522295      -0.51051954
N       -1.39878152      -0.42016124       0.54567570
C       -0.11918664      -0.89972549       0.45485705
C        0.89354748       0.05783549       0.08988957
C        2.26464296      -0.14421344      -0.45187596
C        0.32443160       1.06016759       0.82104557
N       -0.78403110       0.48707815       1.44655895
H       -1.82199227       0.81711888      -1.11697174
H       -3.17845271       0.39507076      -0.04170442
H       -2.49978471      -0.83954221      -1.13247930
H        0.00396218      -1.96923663       0.58772183
H        2.53551785       0.64431603      -1.15596962
H        2.34838746      -1.09558582      -0.98305522
H        3.02333522      -0.15901960       0.33340606
H        0.67585506       2.04067456       1.11342105
15
Frame=13 idx=009339 GeodesicLength=0.6346747817452536 rxn_smarts="[C:1]([n:2]1[c:3]([H:11])[c:4]([C:5]([H:12])([H:13])[H:14])[c:6]([H:15])[n:7]1)([H:8])([H:9])[H:10]>>[C:1]([N:2]1[C@@:3]2([H:11])[C:4]([C:5]([H:12])([H:13])[H:14])=[C:6]([H:15])[N:7]12)([H:8])([H:9])[H:10]"
C       -2.28341643       0.01582746      -0.50006453
N       -1.39015903      -0.40124752       0.54485232
C       -0.11378468      -0.89248552       0.45372756
C        0.89985620       0.06232704       0.08474333
C        2.27746508      -0.14961348      -0.43766074
C        0.32832211       1.07939793       0.79486026
N       -0.76887208       0.49885143       1.43448418
H       -1.86408359       0.81179821      -1.11944932
H       -3.19530390       0.37060846      -0.02107680
H       -2.50570685      -0.85946332      -1.11072105
H       -0.00599485      -1.96662598       0.55353845
H        2.58941546       0.67273821      -1.08338819
H        2.33966781      -1.06785618      -1.02664509
H        3.01669973      -0.23967867       0.36114920
H        0.67589502       2.06542194       1.07165043
15
Frame=14 idx=009339 GeodesicLength=0.6852781797521105 rxn_smarts="[C:1]([n:2]1[c:3]([H:11])[c:4]([C:5]([H:12])([H:13])[H:14])[c:6]([H:15])[n:7]1)([H:8])([H:9])[H:10]>>[C:1]([N:2]1[C@@:3]2([H:11])[C:4]([C:5]([H:12])([H:13])[H:14])=[C:6]([H:15])[N:7]12)([H:8])([H:9])[H:10]"
C       -2.30015311       0.00655851      -0.48831187
N       -1.38123132      -0.38206787       0.54297553
C       -0.10829032      -0.88521704       0.45100048
C        0.90629942       0.06686565       0.07797708
C        2.29101415      -0.15551044      -0.42228115
C        0.33245218       1.09831160       0.76674699
N       -0.75288996       0.51068259       1.42122756
H       -1.90876383       0.80688618      -1.12000165
H       -3.21209465       0.34498410       0.00258289
H       -2.51217220      -0.87849353      -1.08827996
H       -0.01621329      -1.96288599       0.51641055
H        2.64473678       0.69624233      -1.00497953
H        2.33570895      -1.03598566      -1.06750829
H        3.00627157      -0.32070161       0.38640985
H        0.67532562       2.09033119       1.02603151
15
Frame=15 idx=009339 GeodesicLength=0.7360621247085948 rxn_smarts="[C:1]([n:2]1[c:3]([H:11])[c:4]([C:5]([H:12])([H:13])[H:14])[c:6]([H:15])[n:7]1)([H:8])([H:9])[H:10]>>[C:1]([N:2]1[C@@:3]2([H:11])[C:4]([C:5]([H:12])([H:13])[H:14])=[C:6]([H:15])[N:7]12)([H:8])([H:9])[H:10]"
C       -2.31709071      -0.00264818      -0.47580589
N       -1.37211931      -0.36250300       0.54003035
C       -0.10279174      -0.87793705       0.44754289
C        0.91301454       0.07134314       0.07070237
C        2.30480674      -0.16169862      -0.40616495
C        0.33680024       1.11694932       0.73748388
N       -0.73665902       0.52287659       1.40694282
H       -1.95505372       0.80211612      -1.11903249
H       -3.22840206       0.31831320       0.02815902
H       -2.51834102      -0.89680494      -1.06574891
H       -0.02684728      -1.95791960       0.47750411
H        2.69935489       0.71446737      -0.92231815
H        2.33580195      -1.00031918      -1.10543745
H        2.99278266      -0.40112850       0.40773213
H        0.67474385       2.11489333       0.97841027
15
Frame=16 idx=009339 GeodesicLength=0.7868150231018816 rxn_smarts="[C:1]([n:2]1[c:3]([H:11])[c:4]([C:5]([H:12])([H:13])[H:14])[c:6]([H:15])[n:7]1)([H:8])([H:9])[H:10]>>[C:1]([N:2]1[C@@:3]2([H:11])[C:4]([C:5]([H:12])([H:13])[H:14])=[C:6]([H:15])[N:7]12)([H:8])([H:9])[H:10]"
C       -2.33352032      -0.01189514      -0.46315588
N       -1.36287856      -0.34240543       0.53608340
C       -0.09734619      -0.87063197       0.44454234
C        0.92010313       0.07562077       0.06429857
C        2.31824017      -0.16802864      -0.38975225
C        0.34137928       1.13530149       0.70798638
N       -0.72078092       0.53577187       1.39185324
H       -2.00180040       0.79712194      -1.11708291
H       -3.24371033       0.29068112       0.05433577
H       -2.52316749      -0.91459497      -1.04369048
H       -0.03796248      -1.95158547       0.43827750
H        2.75140089       0.72744215      -0.83678640
H        2.33849415      -0.96084105      -1.14071442
H        2.97699240      -0.48073142       0.42356607
H        0.67455667       2.13877475       0.93023908
