12
Frame=0 idx=002661 GeodesicLength=0.0 rxn_smarts="[C:1](/[N:2]=[C:3](\[N:4]([H:10])[H:11])[C:5](=[O:6])[H:12])([H:7])([H:8])[H:9]>>[C:1](/[N:2]=[C:3](\[N:4]([H:10])[H:11])[C-:5]=[O+:6][H:12])([H:7])([H:8])[H:9]"
C        1.76334817       0.14104821       0.79641432
N        0.67073567       0.91917845       0.26329344
C       -0.32182878       0.27394661      -0.20362250
N       -0.48928400      -1.07823113      -0.30057062
C       -1.45687644       1.08278627      -0.74081059
O       -2.50061114       0.40238701      -1.11909270
H        2.18333170      -0.53650167       0.04111485
H        2.55446251       0.80674077       1.13620261
H        1.44854223      -0.47126663       1.65305037
H       -1.40681341      -1.40213659      -0.56109791
H        0.07346962      -1.69747265       0.25195918
H       -2.51847610       1.55952138      -1.21684041
12
Frame=1 idx=002661 GeodesicLength=0.031973384209715204 rxn_smarts="[C:1](/[N:2]=[C:3](\[N:4]([H:10])[H:11])[C:5](=[O:6])[H:12])([H:7])([H:8])[H:9]>>[C:1](/[N:2]=[C:3](\[N:4]([H:10])[H:11])[C-:5]=[O+:6][H:12])([H:7])([H:8])[H:9]"
C        1.76089762       0.14225653       0.79749562
N        0.66549652       0.91812767       0.26661671
C       -0.32476112       0.27036972      -0.20185921
N       -0.49017552      -1.08223187      -0.29675256
C       -1.43505580       1.07700234      -0.79166841
O       -2.49633983       0.40483845      -1.12266519
H        2.18202204      -0.53361106       0.04128905
H        2.55079711       0.80960017       1.13697090
H        1.44873290      -0.47169620       1.65394252
H       -1.40729731      -1.40727902      -0.55687263
H        0.07663590      -1.70001206       0.25318950
H       -2.53095253       1.57263534      -1.17968630
12
Frame=2 idx=002661 GeodesicLength=0.06391800623526755 rxn_smarts="[C:1](/[N:2]=[C:3](\[N:4]([H:10])[H:11])[C:5](=[O:6])[H:12])([H:7])([H:8])[H:9]>>[C:1](/[N:2]=[C:3](\[N:4]([H:10])[H:11])[C-:5]=[O+:6][H:12])([H:7])([H:8])[H:9]"
C        1.75809175       0.14374284       0.79790914
N        0.66139562       0.91722333       0.26611646
C       -0.32665469       0.26703743      -0.20377136
N       -0.49121131      -1.08603683      -0.29341137
C       -1.41795437       1.07084611      -0.83219956
O       -2.48924059       0.40677949      -1.13428596
H        2.18057966      -0.53261241       0.04288820
H        2.54704444       0.81265671       1.13649896
H        1.44686780      -0.46951559       1.65520716
H       -1.40787305      -1.41218759      -0.55324532
H        0.07842871      -1.70169344       0.25589821
H       -2.53947396       1.58375996      -1.13760456
12
Frame=3 idx=002661 GeodesicLength=0.09622151018982367 rxn_smarts="[C:1](/[N:2]=[C:3](\[N:4]([H:10])[H:11])[C:5](=[O:6])[H:12])([H:7])([H:8])[H:9]>>[C:1](/[N:2]=[C:3](\[N:4]([H:10])[H:11])[C-:5]=[O+:6][H:12])([H:7])([H:8])[H:9]"
C        1.75495906       0.14543015       0.79831917
N        0.65778720       0.91639008       0.26373808
C       -0.32762404       0.26367499      -0.20833198
N       -0.49188898      -1.08985447      -0.29146486
C       -1.40385899       1.06432203      -0.86681225
O       -2.48464190       0.40920842      -1.14041720
H        2.17952414      -0.53206820       0.04547734
H        2.54271937       0.81598279       1.13648250
H        1.44350348      -0.46641645       1.65654698
H       -1.40812897      -1.41714839      -0.55085931
H        0.08032240      -1.70321193       0.25766688
H       -2.54267274       1.59369099      -1.10034534
12
Frame=4 idx=002661 GeodesicLength=0.1286810423047265 rxn_smarts="[C:1](/[N:2]=[C:3](\[N:4]([H:10])[H:11])[C:5](=[O:6])[H:12])([H:7])([H:8])[H:9]>>[C:1](/[N:2]=[C:3](\[N:4]([H:10])[H:11])[C-:5]=[O+:6][H:12])([H:7])([H:8])[H:9]"
C        1.75172215       0.14718481       0.79865225
N        0.65467027       0.91559874       0.26005111
C       -0.32794648       0.26032973      -0.21445615
N       -0.49232911      -1.09360965      -0.29033309
C       -1.39236198       1.05792138      -0.89620026
O       -2.48100706       0.41173396      -1.14458849
H        2.17871873      -0.53199679       0.04868709
H        2.53822861       0.81936077       1.13655813
H        1.43925893      -0.46267415       1.65793931
H       -1.40820183      -1.42207436      -0.54905847
H        0.08218573      -1.70456790       0.25900361
H       -2.54293797       1.60279346      -1.06625506
12
Frame=5 idx=002661 GeodesicLength=0.16123728263394563 rxn_smarts="[C:1](/[N:2]=[C:3](\[N:4]([H:10])[H:11])[C:5](=[O:6])[H:12])([H:7])([H:8])[H:9]>>[C:1](/[N:2]=[C:3](\[N:4]([H:10])[H:11])[C-:5]=[O+:6][H:12])([H:7])([H:8])[H:9]"
C        1.74838588       0.14898839       0.79896565
N        0.65213574       0.91481611       0.25495817
C       -0.32756916       0.25695650      -0.22213376
N       -0.49252259      -1.09732597      -0.28993784
C       -1.38271873       1.05169834      -0.92208720
O       -2.47796093       0.41428585      -1.14760235
H        2.17815003      -0.53254034       0.05269871
H        2.53360565       0.82276636       1.13672067
H        1.43406326      -0.45816370       1.65950233
H       -1.40808113      -1.42695359      -0.54780375
H        0.08390605      -1.70573671       0.26016569
H       -2.54139407       1.61120875      -1.03344633
12
Frame=6 idx=002661 GeodesicLength=0.19388072544796603 rxn_smarts="[C:1](/[N:2]=[C:3](\[N:4]([H:10])[H:11])[C:5](=[O:6])[H:12])([H:7])([H:8])[H:9]>>[C:1](/[N:2]=[C:3](\[N:4]([H:10])[H:11])[C-:5]=[O+:6][H:12])([H:7])([H:8])[H:9]"
C        1.74493693       0.15084144       0.79929101
N        0.65021493       0.91402128       0.24841685
C       -0.32647912       0.25351843      -0.23134485
N       -0.49245236      -1.10102729      -0.29025770
C       -1.37450495       1.04565481      -0.94549296
O       -2.47540868       0.41685599      -1.14960196
H        2.17779714      -0.53375392       0.05761245
H        2.52884609       0.82620686       1.13696839
H        1.42786587      -0.45281330       1.66129139
H       -1.40771848      -1.43180690      -0.54718704
H        0.08540463      -1.70670968       0.26131113
H       -2.53850199       1.61901230      -1.00100671
12
Frame=7 idx=002661 GeodesicLength=0.22658644940819905 rxn_smarts="[C:1](/[N:2]=[C:3](\[N:4]([H:10])[H:11])[C:5](=[O:6])[H:12])([H:7])([H:8])[H:9]>>[C:1](/[N:2]=[C:3](\[N:4]([H:10])[H:11])[C-:5]=[O+:6][H:12])([H:7])([H:8])[H:9]"
C        1.74136432       0.15275382       0.79964201
N        0.64874954       0.91318464       0.24073615
C       -0.32484067       0.24995750      -0.24172424
N       -0.49211938      -1.10476679      -0.29120074
C       -1.36748585       1.03965517      -0.96700464
O       -2.47353188       0.41949062      -1.14993574
H        2.17761470      -0.53543135       0.06326927
H        2.52390508       0.82972085       1.13733463
H        1.42084204      -0.44680691       1.66323452
H       -1.40704979      -1.43674175      -0.54727669
H        0.08679889      -1.70757757       0.26235904
H       -2.53424700       1.62656177      -0.96943355
12
Frame=8 idx=002661 GeodesicLength=0.2593233824147161 rxn_smarts="[C:1](/[N:2]=[C:3](\[N:4]([H:10])[H:11])[C:5](=[O:6])[H:12])([H:7])([H:8])[H:9]>>[C:1](/[N:2]=[C:3](\[N:4]([H:10])[H:11])[C-:5]=[O+:6][H:12])([H:7])([H:8])[H:9]"
C        1.73784697       0.15466405       0.79983246
N        0.64689575       0.91237338       0.23392441
C       -0.32368546       0.24646566      -0.25106320
N       -0.49197845      -1.10838659      -0.29183365
C       -1.36125872       1.03384619      -0.98670206
O       -2.47150497       0.42210450      -1.15082825
H        2.17722346      -0.53658425       0.06818197
H        2.51905154       0.83322220       1.13747361
H        1.41446399      -0.44134762       1.66482532
H       -1.40655148      -1.44161333      -0.54704867
H        0.08830150      -1.70849597       0.26319473
H       -2.52880412       1.63375178      -0.93995668
12
Frame=9 idx=002661 GeodesicLength=0.29208103158132204 rxn_smarts="[C:1](/[N:2]=[C:3](\[N:4]([H:10])[H:11])[C:5](=[O:6])[H:12])([H:7])([H:8])[H:9]>>[C:1](/[N:2]=[C:3](\[N:4]([H:10])[H:11])[C-:5]=[O+:6][H:12])([H:7])([H:8])[H:9]"
C        1.73436254       0.15657728       0.79990929
N        0.64466100       0.91157994       0.22790808
C       -0.32295343       0.24301000      -0.25950702
N       -0.49198483      -1.11193599      -0.29221701
C       -1.35565054       1.02811043      -1.00501606
O       -2.46949540       0.42472537      -1.15178175
H        2.17668310      -0.53721973       0.07243507
H        2.51421638       0.83673637       1.13750069
H        1.40864570      -0.43642490       1.66610602
H       -1.40619670      -1.44647098      -0.54649960
H        0.09000457      -1.70950980       0.26371817
H       -2.52229240       1.64082201      -0.91255588
12
Frame=10 idx=002661 GeodesicLength=0.3248610177926179 rxn_smarts="[C:1](/[N:2]=[C:3](\[N:4]([H:10])[H:11])[C:5](=[O:6])[H:12])([H:7])([H:8])[H:9]>>[C:1](/[N:2]=[C:3](\[N:4]([H:10])[H:11])[C-:5]=[O+:6][H:12])([H:7])([H:8])[H:9]"
C        1.73089121       0.15849516       0.79990859
N        0.64216273       0.91079554       0.22242134
C       -0.32250798       0.23957303      -0.26734880
N       -0.49208912      -1.11543542      -0.29245052
C       -1.35056054       1.02243383      -1.02220735
O       -2.46751834       0.42734888      -1.15274613
H        2.17604838      -0.53748440       0.07623707
H        2.50937124       0.84026804       1.13746465
H        1.40319079      -0.43187886       1.66716346
H       -1.40596117      -1.45131425      -0.54566515
H        0.09188682      -1.71060003       0.26394780
H       -2.51491402       1.64779848      -0.88672494
12
Frame=11 idx=002661 GeodesicLength=0.3576662386975547 rxn_smarts="[C:1](/[N:2]=[C:3](\[N:4]([H:10])[H:11])[C:5](=[O:6])[H:12])([H:7])([H:8])[H:9]>>[C:1](/[N:2]=[C:3](\[N:4]([H:10])[H:11])[C-:5]=[O+:6][H:12])([H:7])([H:8])[H:9]"
C        1.72740377       0.16042454       0.79986551
N        0.63953734       0.91000583       0.21714525
C       -0.32218940       0.23612387      -0.27493148
N       -0.49222494      -1.11891358      -0.29266645
C       -1.34594180       1.01679252      -1.03847988
O       -2.46563571       0.42997788      -1.15353323
H        2.17537783      -0.53754307       0.07983369
H        2.50447215       0.84382916       1.13742393
H        1.39786233      -0.42751400       1.66808822
H       -1.40579710      -1.45615609      -0.54462992
H        0.09392491      -1.71174600       0.26389923
H       -2.50678937       1.65471894      -0.86201488
12
Frame=12 idx=002661 GeodesicLength=0.39050244916824073 rxn_smarts="[C:1](/[N:2]=[C:3](\[N:4]([H:10])[H:11])[C:5](=[O:6])[H:12])([H:7])([H:8])[H:9]>>[C:1](/[N:2]=[C:3](\[N:4]([H:10])[H:11])[C-:5]=[O+:6][H:12])([H:7])([H:8])[H:9]"
C        1.72386612       0.16237611       0.79981021
N        0.63690835       0.90919423       0.21177839
C       -0.32184444       0.23262526      -0.28258650
N       -0.49233009      -1.12240091      -0.29299332
C       -1.34177276       1.01116055      -1.05400510
O       -2.46390961       0.43261898      -1.15394532
H        2.17472327      -0.53753749       0.08345375
H        2.49946617       0.84743832       1.13743539
H        1.39243086      -0.42314766       1.66895473
H       -1.40566399      -1.46100954      -0.54346457
H        0.09609757      -1.71293093       0.26358227
H       -2.49797145       1.66161308      -0.83801993
12
Frame=13 idx=002661 GeodesicLength=0.4233784845234662 rxn_smarts="[C:1](/[N:2]=[C:3](\[N:4]([H:10])[H:11])[C:5](=[O:6])[H:12])([H:7])([H:8])[H:9]>>[C:1](/[N:2]=[C:3](\[N:4]([H:10])[H:11])[C-:5]=[O+:6][H:12])([H:7])([H:8])[H:9]"
C        1.72022586       0.16437164       0.79977929
N        0.63445822       0.90833181       0.20586922
C       -0.32125934       0.22901262      -0.29077674
N       -0.49230881      -1.12594675      -0.29361366
C       -1.33809025       1.00548752      -1.06893209
O       -2.46247141       0.43528894      -1.15356011
H        2.17414526      -0.53767997       0.08743744
H        2.49428049       0.85113234       1.13755108
H        1.38655980      -0.41849095       1.66986975
H       -1.40544249      -1.46592841      -0.54242656
H        0.09833860      -1.71412460       0.26307057
H       -2.48843593       1.66854581      -0.81426819
12
Frame=14 idx=002661 GeodesicLength=0.45630065997948277 rxn_smarts="[C:1](/[N:2]=[C:3](\[N:4]([H:10])[H:11])[C:5](=[O:6])[H:12])([H:7])([H:8])[H:9]>>[C:1](/[N:2]=[C:3](\[N:4]([H:10])[H:11])[C-:5]=[O+:6][H:12])([H:7])([H:8])[H:9]"
C        1.71645442       0.16641980       0.79978628
N        0.63230195       0.90740087       0.19916193
C       -0.32031750       0.22525881      -0.29974829
N       -0.49211263      -1.12956451      -0.29463267
C       -1.33491295       0.99978976      -1.08332499
O       -2.46132856       0.43798454      -1.15230647
H        2.17366835      -0.53809393       0.09197425
H        2.48888065       0.85492279       1.13779004
H        1.38005801      -0.41338232       1.67088066
H       -1.40510080      -1.47091310      -0.54157465
H        0.10060644      -1.71530008       0.26239819
H       -2.47819737       1.67547737      -0.79040428
12
Frame=15 idx=002661 GeodesicLength=0.48928975052901535 rxn_smarts="[C:1](/[N:2]=[C:3](\[N:4]([H:10])[H:11])[C:5](=[O:6])[H:12])([H:7])([H:8])[H:9]>>[C:1](/[N:2]=[C:3](\[N:4]([H:10])[H:11])[C-:5]=[O+:6][H:12])([H:7])([H:8])[H:9]"
C        1.71247207       0.16855408       0.79986721
N        0.63063191       0.90635679       0.19115007
C       -0.31878463       0.22127270      -0.31002400
N       -0.49163407      -1.13331851      -0.29627057
C       -1.33232123       0.99399536      -1.09731699
O       -2.46062839       0.44073486      -1.14965623
H        2.17335232      -0.53897624       0.09744010
H        2.48314553       0.85886711       1.13823202
H        1.37252713      -0.40750909       1.67207487
H       -1.40454010      -1.47602307      -0.54109927
H        0.10287526      -1.71644216       0.26157128
H       -2.46709581       1.68248816      -0.76596850
12
Frame=16 idx=002661 GeodesicLength=0.5223063759801317 rxn_smarts="[C:1](/[N:2]=[C:3](\[N:4]([H:10])[H:11])[C:5](=[O:6])[H:12])([H:7])([H:8])[H:9]>>[C:1](/[N:2]=[C:3](\[N:4]([H:10])[H:11])[C-:5]=[O+:6][H:12])([H:7])([H:8])[H:9]"
C        1.70842145       0.17071570       0.79992666
N        0.62896122       0.90526885       0.18305040
C       -0.31727132       0.21722272      -0.32028583
N       -0.49112031      -1.13709178      -0.29799053
C       -1.33010274       0.98820358      -1.11075586
O       -2.45999655       0.44348131      -1.14672064
H        2.17300910      -0.53978331       0.10293710
H        2.47728939       0.86286964       1.13869042
H        1.36488355      -0.40161510       1.67319382
H       -1.40396602      -1.48117236      -0.54056917
H        0.10524761      -1.71762494       0.26054991
H       -2.45535537       1.68952569      -0.74202628
