12
Frame=0 idx=005564 GeodesicLength=0.0 rxn_smarts="[C:1]1([H:7])([H:8])[O:2][C@:3]1([C@@:4]1([H:10])[C:5]([H:11])([H:12])[O:6]1)[H:9]>>[C:1](=[O:2])([H:7])[H:8].[C:3]1([H:9])=[C:4]([H:10])[C:5]([H:11])([H:12])[O:6]1"
C        1.38135471       0.56193896      -0.08793642
O        1.34716033      -0.05082944       1.17327146
C        0.53268017      -0.58864709      -0.46951660
C       -0.46542703      -0.63472854       0.53426675
C       -1.45022169       0.35230548       0.05967596
O       -1.23420806      -0.38858444      -1.12999749
H        0.92607093       1.55504299      -0.15268599
H        2.37327852       0.57154967      -0.54666340
H        0.96113044      -1.48210444      -0.90739297
H       -0.76462608      -1.53991503       1.04814965
H       -1.14678637       1.39929310       0.02281060
H       -2.46040588       0.24467875       0.45601840
12
Frame=1 idx=005564 GeodesicLength=0.1401704028904749 rxn_smarts="[C:1]1([H:7])([H:8])[O:2][C@:3]1([C@@:4]1([H:10])[C:5]([H:11])([H:12])[O:6]1)[H:9]>>[C:1](=[O:2])([H:7])[H:8].[C:3]1([H:9])=[C:4]([H:10])[C:5]([H:11])([H:12])[O:6]1"
C        1.40341024       0.57543555      -0.08538449
O        1.38355419      -0.05083870       1.16148793
C        0.52401320      -0.59289959      -0.45939935
C       -0.48482671      -0.64252697       0.53226633
C       -1.46585027       0.34913179       0.06017308
O       -1.22448768      -0.38076454      -1.13232946
H        0.96276624       1.57685208      -0.12917320
H        2.37290593       0.57186767      -0.58974548
H        0.96393424      -1.49029560      -0.87837008
H       -0.78370902      -1.54539442       1.05021900
H       -1.16746985       1.39776700       0.03818730
H       -2.48424050       0.23166574       0.43206841
12
Frame=2 idx=005564 GeodesicLength=0.28040697529897324 rxn_smarts="[C:1]1([H:7])([H:8])[O:2][C@:3]1([C@@:4]1([H:10])[C:5]([H:11])([H:12])[O:6]1)[H:9]>>[C:1](=[O:2])([H:7])[H:8].[C:3]1([H:9])=[C:4]([H:10])[C:5]([H:11])([H:12])[O:6]1"
C        1.42652272       0.58922936      -0.08297834
O        1.42189091      -0.05131697       1.14878726
C        0.51535358      -0.59750108      -0.44782313
C       -0.50502484      -0.65066857       0.53054594
C       -1.48190861       0.34565506       0.06039495
O       -1.21414924      -0.37274803      -1.13435534
H        1.00176757       1.59878123      -0.10465623
H        2.37001459       0.57334065      -0.63415513
H        0.96643989      -1.49810226      -0.84859684
H       -0.80382124      -1.55110535       1.05256931
H       -1.18882741       1.39576892       0.05375958
H       -2.50825792       0.21866704       0.40650797
12
Frame=3 idx=005564 GeodesicLength=0.42069272459467993 rxn_smarts="[C:1]1([H:7])([H:8])[O:2][C@:3]1([C@@:4]1([H:10])[C:5]([H:11])([H:12])[O:6]1)[H:9]>>[C:1](=[O:2])([H:7])[H:8].[C:3]1([H:9])=[C:4]([H:10])[C:5]([H:11])([H:12])[O:6]1"
C        1.45076363       0.60334820      -0.08079153
O        1.46225777      -0.05222706       1.13501271
C        0.50669283      -0.60243248      -0.43462520
C       -0.52610010      -0.65922051       0.52911199
C       -1.49841906       0.34185430       0.06032745
O       -1.20312114      -0.36451774      -1.13600915
H        1.04333133       1.62080540      -0.07920407
H        2.36433390       0.57608569      -0.67980062
H        0.96864634      -1.50552050      -0.81800482
H       -0.82506378      -1.55712469       1.05517536
H       -1.21089562       1.39325813       0.06957185
H       -2.53242610       0.20569125       0.37923604
12
Frame=4 idx=005564 GeodesicLength=0.5610103190952183 rxn_smarts="[C:1]1([H:7])([H:8])[O:2][C@:3]1([C@@:4]1([H:10])[C:5]([H:11])([H:12])[O:6]1)[H:9]>>[C:1](=[O:2])([H:7])[H:8].[C:3]1([H:9])=[C:4]([H:10])[C:5]([H:11])([H:12])[O:6]1"
C        1.47621216       0.61782474      -0.07891043
O        1.50474245      -0.05352534       1.11998802
C        0.49802183      -0.60766148      -0.41961456
C       -0.54814129      -0.66826089       0.52797122
C       -1.51540857       0.33770451       0.05995799
O       -1.19131967      -0.35605237      -1.13721361
H        1.08775280       1.64289734      -0.05292749
H        2.35557667       0.58022235      -0.72655526
H        0.97055125      -1.51253283      -0.78651635
H       -0.84755406      -1.56354916       1.05799964
H       -1.23372365       1.39018882       0.08568076
H       -2.55670991       0.19274433       0.35014009
12
Frame=5 idx=005564 GeodesicLength=0.7013416789291802 rxn_smarts="[C:1]1([H:7])([H:8])[O:2][C@:3]1([C@@:4]1([H:10])[C:5]([H:11])([H:12])[O:6]1)[H:9]>>[C:1](=[O:2])([H:7])[H:8].[C:3]1([H:9])=[C:4]([H:10])[C:5]([H:11])([H:12])[O:6]1"
C        1.50295702       0.63269354      -0.07742995
O        1.54944072      -0.05516844       1.10351223
C        0.48932575      -0.61313780      -0.40255705
C       -0.57124529      -0.67787526       0.52712689
C       -1.53290386       0.33317021       0.05927335
O       -1.17864781      -0.34733478      -1.13787154
H        1.13537802       1.66502437      -0.02597204
H        2.34341179       0.58588189      -0.77426301
H        0.97214086      -1.51910068      -0.75403454
H       -0.87142535      -1.57048292       1.06097951
H       -1.25736781       1.38649833       0.10215700
H       -2.58106402       0.17983154       0.31907916
12
Frame=6 idx=005564 GeodesicLength=0.8416635248707749 rxn_smarts="[C:1]1([H:7])([H:8])[O:2][C@:3]1([C@@:4]1([H:10])[C:5]([H:11])([H:12])[O:6]1)[H:9]>>[C:1](=[O:2])([H:7])[H:8].[C:3]1([H:9])=[C:4]([H:10])[C:5]([H:11])([H:12])[O:6]1"
C        1.53109411       0.64799610      -0.07647688
O        1.59642613      -0.05708568       1.08535458
C        0.48058482      -0.61878384      -0.38318149
C       -0.59552628      -0.68816839       0.52657819
C       -1.55094223       0.32821029       0.05827012
O       -1.16499823      -0.33832589      -1.13786083
H        1.18660120       1.68714925       0.00140904
H        2.32755006       0.59317587      -0.82267455
H        0.97339644      -1.52515043      -0.72045612
H       -0.89683718      -1.57807268       1.06402312
H       -1.28191309       1.38211446       0.11910296
H       -2.60543576       0.16694094       0.28591187
12
Frame=7 idx=005564 GeodesicLength=0.9819371174858142 rxn_smarts="[C:1]1([H:7])([H:8])[O:2][C@:3]1([C@@:4]1([H:10])[C:5]([H:11])([H:12])[O:6]1)[H:9]>>[C:1](=[O:2])([H:7])[H:8].[C:3]1([H:9])=[C:4]([H:10])[C:5]([H:11])([H:12])[O:6]1"
C        1.56072908       0.66376888      -0.07619770
O        1.64576246      -0.05921207       1.06526042
C        0.47177804      -0.62449530      -0.36116172
C       -0.62111062      -0.69926238       0.52632405
C       -1.56956889       0.32277909       0.05694666
O       -1.15024538      -0.32897291      -1.13703592
H        1.24187356       1.70922099       0.02889468
H        2.30769144       0.60223748      -0.87149405
H        0.97429554      -1.53057912      -0.68565765
H       -0.92396975      -1.58650225       1.06701524
H       -1.30747354       1.37695443       0.13663299
H       -2.62976193       0.15406316       0.25047301
12
Frame=8 idx=005564 GeodesicLength=1.1221443894106393 rxn_smarts="[C:1]1([H:7])([H:8])[O:2][C@:3]1([C@@:4]1([H:10])[C:5]([H:11])([H:12])[O:6]1)[H:9]>>[C:1](=[O:2])([H:7])[H:8].[C:3]1([H:9])=[C:4]([H:10])[C:5]([H:11])([H:12])[O:6]1"
C        1.59198194       0.68006173      -0.07676535
O        1.69749274      -0.06146583       1.04294327
C        0.46287355      -0.63012269      -0.33609982
C       -0.64814027      -0.71129679       0.52635271
C       -1.58884158       0.31681504       0.05530932
O       -1.13424387      -0.31921521      -1.13521638
H        1.30172407       1.73119979       0.05606184
H        2.28355220       0.61316465      -0.92034836
H        0.97480171      -1.53523495      -0.64949739
H       -0.95302899      -1.59599674       1.06978348
H       -1.33420218       1.37091632       0.15490514
H       -2.65396932       0.14117469       0.21257154
12
Frame=9 idx=005564 GeodesicLength=1.26227351781106 rxn_smarts="[C:1]1([H:7])([H:8])[O:2][C@:3]1([C@@:4]1([H:10])[C:5]([H:11])([H:12])[O:6]1)[H:9]>>[C:1](=[O:2])([H:7])[H:8].[C:3]1([H:9])=[C:4]([H:10])[C:5]([H:11])([H:12])[O:6]1"
C        1.62499777       0.69691504      -0.07836762
O        1.75166577      -0.06377712       1.01805923
C        0.45382159      -0.63544604      -0.30748709
C       -0.67676546      -0.72440052       0.52662528
C       -1.60882929       0.31021950       0.05336270
O       -1.11684406      -0.30899603      -1.13214590
H        1.36678929       1.75301149       0.08241274
H        2.25481276       0.62604377      -0.96879250
H        0.97484184      -1.53886434      -0.61178704
H       -0.98423622      -1.60675549       1.07205781
H       -1.36228946       1.36382482       0.17409708
H       -2.67796454       0.12822491       0.17196531
12
Frame=10 idx=005564 GeodesicLength=1.4022916157262788 rxn_smarts="[C:1]1([H:7])([H:8])[O:2][C@:3]1([C@@:4]1([H:10])[C:5]([H:11])([H:12])[O:6]1)[H:9]>>[C:1](=[O:2])([H:7])[H:8].[C:3]1([H:9])=[C:4]([H:10])[C:5]([H:11])([H:12])[O:6]1"
C        1.65990431       0.71438011      -0.08126455
O        1.80819747      -0.06603793       0.99024000
C        0.44453816      -0.64017055      -0.27473330
C       -0.70715792      -0.73874919       0.52709022
C       -1.62960577       0.30288617       0.05113744
O       -1.09785467      -0.29819054      -1.12750861
H        1.43778441       1.77458560       0.10720148
H        2.22133676       0.64091703      -1.01620957
H        0.97430804      -1.54113436      -0.57233244
H       -1.01785359      -1.61911356       1.07349859
H       -1.39199805       1.35550237       0.19445936
H       -2.70159915       0.11512484       0.12842137
12
Frame=11 idx=005564 GeodesicLength=1.5421453695075964 rxn_smarts="[C:1]1([H:7])([H:8])[O:2][C@:3]1([C@@:4]1([H:10])[C:5]([H:11])([H:12])[O:6]1)[H:9]>>[C:1](=[O:2])([H:7])[H:8].[C:3]1([H:9])=[C:4]([H:10])[C:5]([H:11])([H:12])[O:6]1"
C        1.69684727       0.73246647      -0.08572969
O        1.86694636      -0.06820597       0.95913490
C        0.43493634      -0.64393983      -0.23712457
C       -0.73946862      -0.75453221       0.52768810
C       -1.65128551       0.29471508       0.04866608
O       -1.07707243      -0.28663546      -1.12094329
H        1.51550176       1.79579694       0.12956126
H        2.18302784       0.65786661      -1.06194808
H        0.97310165      -1.54163687      -0.53091653
H       -1.05410103      -1.63347336       1.07370863
H       -1.42372158       1.34576957       0.21623558
H       -2.72471203       0.10180903       0.08166760
12
Frame=12 idx=005564 GeodesicLength=1.6818019682255876 rxn_smarts="[C:1]1([H:7])([H:8])[O:2][C@:3]1([C@@:4]1([H:10])[C:5]([H:11])([H:12])[O:6]1)[H:9]>>[C:1](=[O:2])([H:7])[H:8].[C:3]1([H:9])=[C:4]([H:10])[C:5]([H:11])([H:12])[O:6]1"
C        1.73598803       0.75116003      -0.09206613
O        1.92763585      -0.07025411       0.92437965
C        0.42488267      -0.64626337      -0.19379516
C       -0.77381946      -0.77192132       0.52830700
C       -1.67401218       0.28556130       0.04599434
O       -1.05428871      -0.27411223      -1.11197453
H        1.60086806       1.81644315       0.14841507
H        2.13992077       0.67690484      -1.10523318
H        0.97106350      -1.53977689      -0.48728640
H       -1.09315721      -1.65025191       1.07212960
H       -1.45798652       1.33436466       0.23972595
H       -2.74709481       0.08814583       0.03140380
12
Frame=13 idx=005564 GeodesicLength=1.821192593208728 rxn_smarts="[C:1]1([H:7])([H:8])[O:2][C@:3]1([C@@:4]1([H:10])[C:5]([H:11])([H:12])[O:6]1)[H:9]>>[C:1](=[O:2])([H:7])[H:8].[C:3]1([H:9])=[C:4]([H:10])[C:5]([H:11])([H:12])[O:6]1"
C        1.77746377       0.77039579      -0.10060484
O        1.98972299      -0.07217115       0.88568490
C        0.41418853      -0.64650888      -0.14376787
C       -0.81024614      -0.79106799       0.52878910
C       -1.69795612       0.27525362       0.04318830
O       -1.02931614      -0.26028695      -1.10003308
H        1.69496153       1.83617471       0.16245090
H        2.09225464       0.69800697      -1.14518117
H        0.96795710      -1.53476553      -0.44117562
H       -1.13507707      -1.66992223       1.06806664
H       -1.49549353       1.32098040       0.26523607
H       -2.76845957       0.07391122      -0.02265332
12
Frame=14 idx=005564 GeodesicLength=1.9602778933395466 rxn_smarts="[C:1]1([H:7])([H:8])[O:2][C@:3]1([C@@:4]1([H:10])[C:5]([H:11])([H:12])[O:6]1)[H:9]>>[C:1](=[O:2])([H:7])[H:8].[C:3]1([H:9])=[C:4]([H:10])[C:5]([H:11])([H:12])[O:6]1"
C        1.82134602       0.79006568      -0.11166628
O        2.05215255      -0.07393936       0.84309169
C        0.40253257      -0.64396572      -0.08606453
C       -0.84859460      -0.81211436       0.52885740
C       -1.72328142       0.26362303       0.04037080
O       -1.00205292      -0.24466049      -1.08443109
H        1.79886342       1.85459755       0.16987424
H        2.04066809       0.72098666      -1.18078587
H        0.96349857      -1.52569493      -0.39231305
H       -1.17961788      -1.69308189       1.06054876
H       -1.53713021       1.30529117       0.29323175
H       -2.78838420       0.05889266      -0.08071384
12
Frame=15 idx=005564 GeodesicLength=2.0988025716864405 rxn_smarts="[C:1]1([H:7])([H:8])[O:2][C@:3]1([C@@:4]1([H:10])[C:5]([H:11])([H:12])[O:6]1)[H:9]>>[C:1](=[O:2])([H:7])[H:8].[C:3]1([H:9])=[C:4]([H:10])[C:5]([H:11])([H:12])[O:6]1"
C        1.86762549       0.80979189      -0.12550226
O        2.11313941      -0.07550315       0.79700571
C        0.38953023      -0.63781046      -0.02007516
C       -0.88836217      -0.83495511       0.52804106
C       -1.75015606       0.25045515       0.03774989
O       -0.97261270      -0.22654783      -1.06430605
H        1.91330911       1.87063781       0.16866340
H        1.98636504       0.74561030      -1.21087481
H        0.95745734      -1.51130233      -0.34049338
H       -1.22598688      -1.71995225       1.04841670
H       -1.58395291       1.28674514       0.32397980
H       -2.80635591       0.04283085      -0.14260491
12
Frame=16 idx=005564 GeodesicLength=2.23651494552383 rxn_smarts="[C:1]1([H:7])([H:8])[O:2][C@:3]1([C@@:4]1([H:10])[C:5]([H:11])([H:12])[O:6]1)[H:9]>>[C:1](=[O:2])([H:7])[H:8].[C:3]1([H:9])=[C:4]([H:10])[C:5]([H:11])([H:12])[O:6]1"
C        1.91618773       0.82898561      -0.14225215
O        2.17011973      -0.07683039       0.74840001
C        0.37467383      -0.62732503       0.05404091
C       -0.92859666      -0.85913319       0.52575592
C       -1.77854777       0.23551463       0.03553254
O       -0.94129777      -0.20519414      -1.03881077
H        2.03817388       1.88260913       0.15695539
H        1.93091460       0.77181566      -1.23436020
H        0.94960015      -1.49037760      -0.28570868
H       -1.27279340      -1.75015900       1.03067210
H       -1.63685839       1.26462597       0.35750302
H       -2.82157592       0.02546835      -0.20772809
