11
Frame=0 idx=010775 GeodesicLength=0.0 rxn_smarts="[O:1]=[C:2]([C:3]1([C:6](=[O:7])[H:11])[C:4]([H:9])([H:10])[O:5]1)[H:8]>>[O+:1](=[C:2]([C:3](=[C:4]([H:9])[H:10])[C:6](=[O:7])[H:11])[H:8])[O-:5]"
O       -1.76443750       1.06917515      -0.68890878
C       -0.84458589       1.19325785       0.11133114
C       -0.08862507      -0.16181749       0.02089918
C        0.01898791      -1.16856147       0.95227356
O       -1.31499696      -0.44485086      -1.00268735
C        1.19209721       0.10270768      -0.71980558
O        1.42640378       1.15027356      -1.26584186
H       -0.69366126       2.12833408       0.64776842
H        0.93982198      -1.73021682       1.01616180
H       -0.77511030      -1.39708747       1.64843949
H        1.90410613      -0.74121423      -0.71962997
11
Frame=1 idx=010775 GeodesicLength=0.07020950939649892 rxn_smarts="[O:1]=[C:2]([C:3]1([C:6](=[O:7])[H:11])[C:4]([H:9])([H:10])[O:5]1)[H:8]>>[O+:1](=[C:2]([C:3](=[C:4]([H:9])[H:10])[C:6](=[O:7])[H:11])[H:8])[O-:5]"
O       -1.77649387       1.05253595      -0.69020569
C       -0.85672768       1.18884150       0.10829273
C       -0.07370161      -0.14369201       0.02732949
C        0.01400681      -1.16155893       0.94942392
O       -1.29431858      -0.46517989      -1.01269306
C        1.20027830       0.10144861      -0.72809533
O        1.47805740       1.16771758      -1.21259450
H       -0.72074987       2.11527506       0.66302248
H        0.93521507      -1.72144980       1.02739599
H       -0.77143230      -1.35725160       1.66561463
H        1.86586634      -0.77668648      -0.79749067
11
Frame=2 idx=010775 GeodesicLength=0.140968879428448 rxn_smarts="[O:1]=[C:2]([C:3]1([C:6](=[O:7])[H:11])[C:4]([H:9])([H:10])[O:5]1)[H:8]>>[O+:1](=[C:2]([C:3](=[C:4]([H:9])[H:10])[C:6](=[O:7])[H:11])[H:8])[O-:5]"
O       -1.78912787       1.03580826      -0.69036695
C       -0.86766282       1.18474686       0.10407701
C       -0.05926086      -0.12569137       0.03282974
C        0.00904683      -1.15389924       0.94613602
O       -1.27503510      -0.48547434      -1.02162207
C        1.20729924       0.09949670      -0.73829126
O        1.53181569       1.17893268      -1.15878156
H       -0.74731800       2.10110033       0.67849838
H        0.93027656      -1.71250001       1.03714447
H       -0.76640112      -1.31768816       1.68151436
H        1.82636744      -0.80483172      -0.87113814
11
Frame=3 idx=010775 GeodesicLength=0.21163790356397383 rxn_smarts="[O:1]=[C:2]([C:3]1([C:6](=[O:7])[H:11])[C:4]([H:9])([H:10])[O:5]1)[H:8]>>[O+:1](=[C:2]([C:3](=[C:4]([H:9])[H:10])[C:6](=[O:7])[H:11])[H:8])[O-:5]"
O       -1.80139670       1.01922635      -0.69031148
C       -0.87783133       1.18073346       0.09942237
C       -0.04515043      -0.10774602       0.03793491
C        0.00423596      -1.14532015       0.94315354
O       -1.25660804      -0.50592562      -1.02934914
C        1.21385615       0.09777428      -0.74854478
O        1.58578734       1.18413543      -1.10544139
H       -0.77308687       2.08626617       0.69352535
H        0.92461335      -1.70411321       1.04538503
H       -0.76052674      -1.27897114       1.69615783
H        1.78610732      -0.82605954      -0.94193224
11
Frame=4 idx=010775 GeodesicLength=0.28276988687408744 rxn_smarts="[O:1]=[C:2]([C:3]1([C:6](=[O:7])[H:11])[C:4]([H:9])([H:10])[O:5]1)[H:8]>>[O+:1](=[C:2]([C:3](=[C:4]([H:9])[H:10])[C:6](=[O:7])[H:11])[H:8])[O-:5]"
O       -1.81421195       1.00258762      -0.68910956
C       -0.88710520       1.17712170       0.09392152
C       -0.03141076      -0.08969895       0.04212473
C       -0.00058076      -1.13598253       0.93971625
O       -1.23918666      -0.52621928      -1.03643686
C        1.21962564       0.09631473      -0.75987160
O        1.64120289       1.18300841      -1.05298241
H       -0.79893823       2.07002726       0.70931776
H        0.91870780      -1.69528409       1.05262569
H       -0.75374567      -1.24044643       1.70941948
H        1.74564290      -0.84142844      -1.00872499
11
Frame=5 idx=010775 GeodesicLength=0.35395966928063705 rxn_smarts="[O:1]=[C:2]([C:3]1([C:6](=[O:7])[H:11])[C:4]([H:9])([H:10])[O:5]1)[H:8]>>[O+:1](=[C:2]([C:3](=[C:4]([H:9])[H:10])[C:6](=[O:7])[H:11])[H:8])[O-:5]"
O       -1.82681864       0.98603429      -0.68777731
C       -0.89606427       1.17341774       0.08821602
C       -0.01811960      -0.07177371       0.04583024
C       -0.00522847      -1.12593980       0.93642818
O       -1.22263123      -0.54679280      -1.04258164
C        1.22494312       0.09540116      -0.77109572
O        1.69707765       1.17620098      -0.99975348
H       -0.82386317       2.05324638       0.72414342
H        0.91285324      -1.68587310       1.05954677
H       -0.74639088      -1.20285292       1.72149326
H        1.70424224      -0.85106823      -1.07444975
11
Frame=6 idx=010775 GeodesicLength=0.42565102722811243 rxn_smarts="[O:1]=[C:2]([C:3]1([C:6](=[O:7])[H:11])[C:4]([H:9])([H:10])[O:5]1)[H:8]>>[O+:1](=[C:2]([C:3](=[C:4]([H:9])[H:10])[C:6](=[O:7])[H:11])[H:8])[O-:5]"
O       -1.83985520       0.96938948      -0.68559767
C       -0.90465117       1.16992546       0.08206232
C       -0.00527692      -0.05370101       0.04877120
C       -0.00979715      -1.11525064       0.93275480
O       -1.20688053      -0.56735692      -1.04823471
C        1.22953700       0.09525837      -0.78293815
O        1.75424976       1.16300292      -0.94668181
H       -0.84873015       2.03539269       0.73904754
H        0.90720124      -1.67545894       1.06605320
H       -0.73832306      -1.16569217       1.73227436
H        1.66252618      -0.85550923      -1.13751108
11
Frame=7 idx=010775 GeodesicLength=0.497115814034834 rxn_smarts="[O:1]=[C:2]([C:3]1([C:6](=[O:7])[H:11])[C:4]([H:9])([H:10])[O:5]1)[H:8]>>[O+:1](=[C:2]([C:3](=[C:4]([H:9])[H:10])[C:6](=[O:7])[H:11])[H:8])[O-:5]"
O       -1.85241429       0.95302087      -0.68338984
C       -0.91313531       1.16624303       0.07622551
C        0.00720134      -0.03566468       0.05143276
C       -0.01428490      -1.10404883       0.92922668
O       -1.19158361      -0.58806451      -1.05318626
C        1.23407102       0.09596213      -0.79404556
O        1.81048742       1.14421261      -0.89494901
H       -0.87258955       2.01715775       0.75317820
H        0.90144188      -1.66473827       1.07240873
H       -0.73017397      -1.12965011       1.74188479
H        1.62097997      -0.85442997      -1.19878599
11
Frame=8 idx=010775 GeodesicLength=0.5687139283557807 rxn_smarts="[O:1]=[C:2]([C:3]1([C:6](=[O:7])[H:11])[C:4]([H:9])([H:10])[O:5]1)[H:8]>>[O+:1](=[C:2]([C:3](=[C:4]([H:9])[H:10])[C:6](=[O:7])[H:11])[H:8])[O-:5]"
O       -1.86499785       0.93671996      -0.68075218
C       -0.92164835       1.16249021       0.07058795
C        0.01928538      -0.01743788       0.05372031
C       -0.01868208      -1.09237119       0.92549920
O       -1.17666041      -0.60876753      -1.05769732
C        1.23826367       0.09769020      -0.80492558
O        1.86663811       1.11943364      -0.84459163
H       -0.89599883       1.99841824       0.76685542
H        0.89578123      -1.65339662       1.07846558
H       -0.72171975      -1.09444073       1.75032908
H        1.57973889      -0.84833830      -1.25749083
11
Frame=9 idx=010775 GeodesicLength=0.6402748869750786 rxn_smarts="[O:1]=[C:2]([C:3]1([C:6](=[O:7])[H:11])[C:4]([H:9])([H:10])[O:5]1)[H:8]>>[O+:1](=[C:2]([C:3](=[C:4]([H:9])[H:10])[C:6](=[O:7])[H:11])[H:8])[O-:5]"
O       -1.87740136       0.92053671      -0.67790905
C       -0.93033902       1.15851309       0.06543465
C        0.03100598       0.00095426       0.05582350
C       -0.02296095      -1.08028110       0.92175619
O       -1.16192815      -0.62956544      -1.06172156
C        1.24233711       0.10043516      -0.81523378
O        1.92199879       1.08905002      -0.79599311
H       -0.91864766       1.97960031       0.77975551
H        0.89020361      -1.64158252       1.08439276
H       -0.71329055      -1.06036482       1.75767616
H        1.53902219      -0.83729567      -1.31398127
11
Frame=10 idx=010775 GeodesicLength=0.7119337249031319 rxn_smarts="[O:1]=[C:2]([C:3]1([C:6](=[O:7])[H:11])[C:4]([H:9])([H:10])[O:5]1)[H:8]>>[O+:1](=[C:2]([C:3](=[C:4]([H:9])[H:10])[C:6](=[O:7])[H:11])[H:8])[O-:5]"
O       -1.88960170       0.90442113      -0.67509381
C       -0.93916687       1.15432743       0.06050715
C        0.04236078       0.01951763       0.05764174
C       -0.02707418      -1.06769998       0.91800970
O       -1.14735919      -0.65056957      -1.06527050
C        1.24630394       0.10409699      -0.82510236
O        1.97671482       1.05261020      -0.74829643
H       -0.94093553       1.96037856       0.79213115
H        0.88488468      -1.62892484       1.09045033
H       -0.70468998      -1.02693799       1.76419479
H        1.49856323      -0.82121957      -1.36917175
11
Frame=11 idx=010775 GeodesicLength=0.7837134135672885 rxn_smarts="[O:1]=[C:2]([C:3]1([C:6](=[O:7])[H:11])[C:4]([H:9])([H:10])[O:5]1)[H:8]>>[O+:1](=[C:2]([C:3](=[C:4]([H:9])[H:10])[C:6](=[O:7])[H:11])[H:8])[O-:5]"
O       -1.90168509       0.88824491      -0.67225443
C       -0.94826245       1.14983962       0.05591831
C        0.05334654       0.03829316       0.05927548
C       -0.03093984      -1.05466934       0.91429924
O       -1.13281629      -0.67184538      -1.06832284
C        1.25018084       0.10878868      -0.83446827
O        2.03056785       1.00986061      -0.70155078
H       -0.96267153       1.94113893       0.80365256
H        0.87998202      -1.61532085       1.09673549
H       -0.69611019      -0.99439520       1.76983206
H        1.45840814      -0.79993515      -1.42311681
11
Frame=12 idx=010775 GeodesicLength=0.8555732181474978 rxn_smarts="[O:1]=[C:2]([C:3]1([C:6](=[O:7])[H:11])[C:4]([H:9])([H:10])[O:5]1)[H:8]>>[O+:1](=[C:2]([C:3](=[C:4]([H:9])[H:10])[C:6](=[O:7])[H:11])[H:8])[O-:5]"
O       -1.91355198       0.87198948      -0.66948932
C       -0.95764891       1.14502281       0.05176354
C        0.06404084       0.05738300       0.06089843
C       -0.03458275      -1.04123316       0.91065861
O       -1.11799078      -0.69334595      -1.07096194
C        1.25413007       0.11453301      -0.84311707
O        2.08311088       0.96086301      -0.65660979
H       -0.98399907       1.92196906       0.81442555
H        0.87537994      -1.60097245       1.10321793
H       -0.68766675      -0.96274740       1.77468545
H        1.41877852      -0.77346142      -1.47547139
11
Frame=13 idx=010775 GeodesicLength=0.9275191122936015 rxn_smarts="[O:1]=[C:2]([C:3]1([C:6](=[O:7])[H:11])[C:4]([H:9])([H:10])[O:5]1)[H:8]>>[O+:1](=[C:2]([C:3](=[C:4]([H:9])[H:10])[C:6](=[O:7])[H:11])[H:8])[O-:5]"
O       -1.92505373       0.85560527      -0.66699071
C       -0.96730341       1.13982383       0.04805061
C        0.07452038       0.07683691       0.06269076
C       -0.03802132      -1.02743057       0.90717693
O       -1.10258612      -0.71510449      -1.07320859
C        1.25834441       0.12124021      -0.85077276
O        2.13397634       0.90563265      -0.61402196
H       -1.00505030       1.90292284       0.82446642
H        0.87099613      -1.58601198       1.10999380
H       -0.67943783      -0.93195097       1.77891493
H        1.37961546      -0.74156371      -1.52629942
11
Frame=14 idx=010775 GeodesicLength=0.9995072831625934 rxn_smarts="[O:1]=[C:2]([C:3]1([C:6](=[O:7])[H:11])[C:4]([H:9])([H:10])[O:5]1)[H:8]>>[O+:1](=[C:2]([C:3](=[C:4]([H:9])[H:10])[C:6](=[O:7])[H:11])[H:8])[O-:5]"
O       -1.93598602       0.83914607      -0.66486864
C       -0.97712762       1.13425593       0.04488253
C        0.08493972       0.09678080       0.06486633
C       -0.04114437      -1.01321706       0.90397915
O       -1.08631498      -0.73708266      -1.07501785
C        1.26296950       0.12878250      -0.85731556
O        2.18280500       0.84442599      -0.57495762
H       -1.02590503       1.88399995       0.83399302
H        0.86694411      -1.57027892       1.11745831
H       -0.67214580      -0.90249048       1.78222853
H        1.34096549      -0.70432212      -1.57524820
11
Frame=15 idx=010775 GeodesicLength=1.0715008451684447 rxn_smarts="[O:1]=[C:2]([C:3]1([C:6](=[O:7])[H:11])[C:4]([H:9])([H:10])[O:5]1)[H:8]>>[O+:1](=[C:2]([C:3](=[C:4]([H:9])[H:10])[C:6](=[O:7])[H:11])[H:8])[O-:5]"
O       -1.94682582       0.82210805      -0.66277720
C       -0.98722968       1.12814274       0.04185572
C        0.09503018       0.11696393       0.06704202
C       -0.04403548      -0.99871230       0.90085841
O       -1.06924244      -0.75943527      -1.07652637
C        1.26772110       0.13729232      -0.86308306
O        2.22884210       0.77595359      -0.53717067
H       -1.04610741       1.86547427       0.84222189
H        0.86326897      -1.55372120       1.12520184
H       -0.66448359      -0.87327722       1.78531433
H        1.30306206      -0.66078891      -1.62293691
11
Frame=16 idx=010775 GeodesicLength=1.1436005193893255 rxn_smarts="[O:1]=[C:2]([C:3]1([C:6](=[O:7])[H:11])[C:4]([H:9])([H:10])[O:5]1)[H:8]>>[O+:1](=[C:2]([C:3](=[C:4]([H:9])[H:10])[C:6](=[O:7])[H:11])[H:8])[O-:5]"
O       -1.95665575       0.80492063      -0.66151544
C       -0.99725979       1.12161093       0.03920514
C        0.10526735       0.13769465       0.06990531
C       -0.04661458      -0.98382813       0.89821376
O       -1.05067526      -0.78209490      -1.07757545
C        1.27314671       0.14627364      -0.86742163
O        2.27198705       0.70128767      -0.50400920
H       -1.06650967       1.84684873       0.85006563
H        0.85982872      -1.53641853       1.13406374
H       -0.65793443      -0.84520016       1.78772942
H        1.26541965      -0.61109454      -1.66866127
