12
Frame=0 idx=001329 GeodesicLength=0.0 rxn_smarts="[C:1]([C@@:2]1([H:10])[C:3]([H:11])([H:12])[O:4][C:5]1=[O:6])([H:7])([H:8])[H:9]>>[C:1]([C:5]([C:2]([C:3](=[O:4])[H:11])([H:10])[H:12])=[O:6])([H:7])([H:8])[H:9]"
C        1.24590037      -0.51934666      -0.49391972
C       -0.51554343      -0.16970504       0.84460744
C       -0.79707098       1.16055517       0.40568412
O       -0.72458179       1.00958936      -0.92349459
C       -0.37319700      -0.70596521      -0.52174685
O       -0.85361911      -1.60041251      -1.16849768
H        1.65890752       0.37668501      -0.03668685
H        1.66493720      -1.42038429      -0.04881827
H        1.44874247      -0.50079713      -1.56236490
H       -0.44090847      -0.65728554       1.81149112
H       -0.44372805       2.07463150       0.89114388
H       -1.86983870       0.95243534       0.80260226
12
Frame=1 idx=001329 GeodesicLength=0.08629086757383667 rxn_smarts="[C:1]([C@@:2]1([H:10])[C:3]([H:11])([H:12])[O:4][C:5]1=[O:6])([H:7])([H:8])[H:9]>>[C:1]([C:5]([C:2]([C:3](=[O:4])[H:11])([H:10])[H:12])=[O:6])([H:7])([H:8])[H:9]"
C        1.24684562      -0.52219461      -0.48221610
C       -0.50521298      -0.16379987       0.83150132
C       -0.80104021       1.17009107       0.39779747
O       -0.73979444       1.02432853      -0.93108845
C       -0.38728687      -0.69840323      -0.53931762
O       -0.87025745      -1.59866321      -1.17408748
H        1.67243895       0.37271468      -0.03369590
H        1.65760359      -1.42441293      -0.03173180
H        1.46273571      -0.50857669      -1.54846558
H       -0.42192272      -0.65109595       1.79733779
H       -0.44771564       2.08255200       0.88599656
H       -1.86639358       0.91746020       0.82796978
12
Frame=2 idx=001329 GeodesicLength=0.17251120326411162 rxn_smarts="[C:1]([C@@:2]1([H:10])[C:3]([H:11])([H:12])[O:4][C:5]1=[O:6])([H:7])([H:8])[H:9]>>[C:1]([C:5]([C:2]([C:3](=[O:4])[H:11])([H:10])[H:12])=[O:6])([H:7])([H:8])[H:9]"
C        1.24783468      -0.52473076      -0.47052204
C       -0.49517741      -0.15804099       0.81815536
C       -0.80552697       1.17940683       0.39002809
O       -0.75581812       1.03887802      -0.93848398
C       -0.40105431      -0.69084730      -0.55675834
O       -0.88678581      -1.59692067      -1.17917758
H        1.68605649       0.36858632      -0.03031938
H        1.65058770      -1.42799431      -0.01484704
H        1.47630000      -0.51618226      -1.53447713
H       -0.40379086      -0.64512949       1.78288388
H       -0.45117519       2.09007396       0.88057176
H       -1.86145019       0.88290067       0.85294640
12
Frame=3 idx=001329 GeodesicLength=0.25910350964434237 rxn_smarts="[C:1]([C@@:2]1([H:10])[C:3]([H:11])([H:12])[O:4][C:5]1=[O:6])([H:7])([H:8])[H:9]>>[C:1]([C:5]([C:2]([C:3](=[O:4])[H:11])([H:10])[H:12])=[O:6])([H:7])([H:8])[H:9]"
C        1.24897219      -0.52699110      -0.45884336
C       -0.48544996      -0.15245747       0.80462849
C       -0.81053341       1.18854942       0.38236457
O       -0.77271536       1.05334535      -0.94573974
C       -0.41458760      -0.68329711      -0.57408336
O       -0.90336652      -1.59515022      -1.18380761
H        1.69993027       0.36427689      -0.02655796
H        1.64397627      -1.43124913       0.00190101
H        1.48955735      -0.52357663      -1.52046741
H       -0.38642342      -0.63947653       1.76826585
H       -0.45414359       2.09730586       0.87482672
H       -1.85521623       0.84872068       0.87751281
12
Frame=4 idx=001329 GeodesicLength=0.345058126536116 rxn_smarts="[C:1]([C@@:2]1([H:10])[C:3]([H:11])([H:12])[O:4][C:5]1=[O:6])([H:7])([H:8])[H:9]>>[C:1]([C:5]([C:2]([C:3](=[O:4])[H:11])([H:10])[H:12])=[O:6])([H:7])([H:8])[H:9]"
C        1.25004529      -0.52898133      -0.44715096
C       -0.47591227      -0.14689945       0.79081202
C       -0.81592706       1.19743212       0.37486548
O       -0.79031554       1.06749620      -0.95266050
C       -0.42774958      -0.67574241      -0.59131725
O       -0.91970582      -1.59328172      -1.18806113
H        1.71367521       0.35973721      -0.02232701
H        1.63744303      -1.43402762       0.01844026
H        1.50230415      -0.53088104      -1.50629936
H       -0.36973518      -0.63380733       1.75322050
H       -0.45673568       2.10414346       0.86886212
H       -1.84738655       0.81481191       0.90161581
12
Frame=5 idx=001329 GeodesicLength=0.4313984525998669 rxn_smarts="[C:1]([C@@:2]1([H:10])[C:3]([H:11])([H:12])[O:4][C:5]1=[O:6])([H:7])([H:8])[H:9]>>[C:1]([C:5]([C:2]([C:3](=[O:4])[H:11])([H:10])[H:12])=[O:6])([H:7])([H:8])[H:9]"
C        1.25129952      -0.53075048      -0.43547442
C       -0.46663337      -0.14147600       0.77683974
C       -0.82176623       1.20617167       0.36749808
O       -0.80878402       1.08159364      -0.95939108
C       -0.44071879      -0.66819016      -0.60844446
O       -0.93614403      -1.59131629      -1.19191124
H        1.72770402       0.35495931      -0.01768893
H        1.63128024      -1.43657113       0.03486925
H        1.51479035      -0.53798596      -1.49213149
H       -0.35367726      -0.62841618       1.73804262
H       -0.45896006       2.11078807       0.86258721
H       -1.83839038       0.78119350       0.92520473
12
Frame=6 idx=001329 GeodesicLength=0.517698400277475 rxn_smarts="[C:1]([C@@:2]1([H:10])[C:3]([H:11])([H:12])[O:4][C:5]1=[O:6])([H:7])([H:8])[H:9]>>[C:1]([C:5]([C:2]([C:3](=[O:4])[H:11])([H:10])[H:12])=[O:6])([H:7])([H:8])[H:9]"
C        1.25264461      -0.53230359      -0.42380005
C       -0.45756222      -0.13612161       0.76268183
C       -0.82795387       1.21472727       0.36029834
O       -0.82804728       1.09552176      -0.96583272
C       -0.45346742      -0.66063735      -0.62547711
O       -0.95256502      -1.58921869      -1.19540901
H        1.74186777       0.34992014      -0.01259864
H        1.62533507      -1.43882173       0.05115863
H        1.52692941      -0.54492996      -1.47791547
H       -0.33817213      -0.62316057       1.72265571
H       -0.46086136       2.11721324       0.85604928
H       -1.82814756       0.74781109       0.94818922
12
Frame=7 idx=001329 GeodesicLength=0.6039755889653093 rxn_smarts="[C:1]([C@@:2]1([H:10])[C:3]([H:11])([H:12])[O:4][C:5]1=[O:6])([H:7])([H:8])[H:9]>>[C:1]([C:5]([C:2]([C:3](=[O:4])[H:11])([H:10])[H:12])=[O:6])([H:7])([H:8])[H:9]"
C        1.25410325      -0.53367006      -0.41212894
C       -0.44868365      -0.13082160       0.74834891
C       -0.83446025       1.22313012       0.35327592
O       -0.84810890       1.10931023      -0.97194935
C       -0.46601610      -0.65308435      -0.64240491
O       -0.96897052      -1.58697284      -1.19855142
H        1.75617586       0.34459523      -0.00706281
H        1.61960591      -1.44083949       0.06730684
H        1.53874537      -0.55171622      -1.46366225
H       -0.32317425      -0.61803676       1.70706470
H       -0.46249872       2.12347052       0.84925557
H       -1.81671800       0.71463522       0.97050774
12
Frame=8 idx=001329 GeodesicLength=0.6903761964557459 rxn_smarts="[C:1]([C@@:2]1([H:10])[C:3]([H:11])([H:12])[O:4][C:5]1=[O:6])([H:7])([H:8])[H:9]>>[C:1]([C:5]([C:2]([C:3](=[O:4])[H:11])([H:10])[H:12])=[O:6])([H:7])([H:8])[H:9]"
C        1.25571354      -0.53486320      -0.40045724
C       -0.43998806      -0.12557331       0.73386826
C       -0.84126086       1.23139643       0.34642439
O       -0.86900753       1.12297697      -0.97775994
C       -0.47841271      -0.64552328      -0.65924208
O       -0.98543975      -1.58455137      -1.20138255
H        1.77070507       0.33897745      -0.00107396
H        1.61410401      -1.44266119       0.08336335
H        1.55028871      -0.55833470      -1.44939820
H       -0.30862517      -0.61306609       1.69133649
H       -0.46387797       2.12960116       0.84218603
H       -1.80419929       0.68162113       0.99213546
12
Frame=9 idx=001329 GeodesicLength=0.7767721295432878 rxn_smarts="[C:1]([C@@:2]1([H:10])[C:3]([H:11])([H:12])[O:4][C:5]1=[O:6])([H:7])([H:8])[H:9]>>[C:1]([C:5]([C:2]([C:3](=[O:4])[H:11])([H:10])[H:12])=[O:6])([H:7])([H:8])[H:9]"
C        1.25744604      -0.53590764      -0.38876775
C       -0.43143813      -0.12033023       0.71921588
C       -0.84830829       1.23952949       0.33975980
O       -0.89073392       1.13648994      -0.98320159
C       -0.49064382      -0.63795087      -0.67598287
O       -1.00190832      -1.58192178      -1.20393943
H        1.78536250       0.33302689       0.00539135
H        1.60875183      -1.44429482       0.09932507
H        1.56154252      -0.56482143      -1.43509483
H       -0.29445076      -0.60815211       1.67539195
H       -0.46505432       2.13562072       0.83485431
H       -1.79056533       0.64871185       1.01304810
12
Frame=10 idx=001329 GeodesicLength=0.8630784123421426 rxn_smarts="[C:1]([C@@:2]1([H:10])[C:3]([H:11])([H:12])[O:4][C:5]1=[O:6])([H:7])([H:8])[H:9]>>[C:1]([C:5]([C:2]([C:3](=[O:4])[H:11])([H:10])[H:12])=[O:6])([H:7])([H:8])[H:9]"
C        1.25928850      -0.53680590      -0.37706068
C       -0.42302296      -0.11508294       0.70439971
C       -0.85554807       1.24753654       0.33329362
O       -0.91328047       1.14982251      -0.98822030
C       -0.50272678      -0.63036750      -0.69262742
O       -1.01836059      -1.57908714      -1.20623176
H        1.80014192       0.32675402       0.01233074
H        1.60351540      -1.44574437       0.11519138
H        1.57249254      -0.57117713      -1.42074669
H       -0.28061477      -0.60329624       1.65925020
H       -0.46602472       2.14155005       0.82726750
H       -1.77585999       0.61589809       1.03315370
12
Frame=11 idx=001329 GeodesicLength=0.9494868168022934 rxn_smarts="[C:1]([C@@:2]1([H:10])[C:3]([H:11])([H:12])[O:4][C:5]1=[O:6])([H:7])([H:8])[H:9]>>[C:1]([C:5]([C:2]([C:3](=[O:4])[H:11])([H:10])[H:12])=[O:6])([H:7])([H:8])[H:9]"
C        1.26129620      -0.53757367      -0.36533098
C       -0.41474874      -0.10983846       0.68945360
C       -0.86296022       1.25544976       0.32701588
O       -0.93670017       1.16301506      -0.99283372
C       -0.51472840      -0.62276785      -0.70917359
O       -1.03486657      -1.57603434      -1.20827457
H        1.81512606       0.32014626       0.01974092
H        1.59843580      -1.44706413       0.13099941
H        1.58320418      -0.57737677      -1.40639159
H       -0.26707964      -0.59853350       1.64297923
H       -0.46678377       2.14743994       0.81939971
H       -1.76019475       0.58313769       1.05241569
12
Frame=12 idx=001329 GeodesicLength=1.035919779029654 rxn_smarts="[C:1]([C@@:2]1([H:10])[C:3]([H:11])([H:12])[O:4][C:5]1=[O:6])([H:7])([H:8])[H:9]>>[C:1]([C:5]([C:2]([C:3](=[O:4])[H:11])([H:10])[H:12])=[O:6])([H:7])([H:8])[H:9]"
C        1.26345328      -0.53821790      -0.35356971
C       -0.40660086      -0.10457697       0.67437437
C       -0.87049485       1.26327716       0.32093509
O       -0.96099616       1.17603714      -0.99698568
C       -0.52666111      -0.61515003      -0.72561722
O       -1.05139217      -1.57275736      -1.21008655
H        1.83027793       0.31319378       0.02763234
H        1.59346826      -1.44825673       0.14674810
H        1.59366895      -0.58342793      -1.39201707
H       -0.25380101      -0.59382892       1.62656146
H       -0.46733072       2.15330701       0.81124795
H       -1.74359154       0.55040076       1.07077692
12
Frame=13 idx=001329 GeodesicLength=1.1223636090389602 rxn_smarts="[C:1]([C@@:2]1([H:10])[C:3]([H:11])([H:12])[O:4][C:5]1=[O:6])([H:7])([H:8])[H:9]>>[C:1]([C:5]([C:2]([C:3](=[O:4])[H:11])([H:10])[H:12])=[O:6])([H:7])([H:8])[H:9]"
C        1.26575809      -0.53874195      -0.34176571
C       -0.39857294      -0.09929048       0.65917026
C       -0.87810281       1.27103422       0.31504829
O       -0.98618229       1.18887089      -1.00064093
C       -0.53854771      -0.60751768      -0.74194821
O       -1.06792735      -1.56926294      -1.21168442
H        1.84558067       0.30589586       0.03601502
H        1.58859525      -1.44933460       0.16243938
H        1.60388543      -0.58931236      -1.37762088
H       -0.24075309      -0.58917363       1.61000124
H       -0.46763815       2.15916965       0.80279758
H       -1.72609511       0.51766301       1.08818838
12
Frame=14 idx=001329 GeodesicLength=1.208872959294354 rxn_smarts="[C:1]([C@@:2]1([H:10])[C:3]([H:11])([H:12])[O:4][C:5]1=[O:6])([H:7])([H:8])[H:9]>>[C:1]([C:5]([C:2]([C:3](=[O:4])[H:11])([H:10])[H:12])=[O:6])([H:7])([H:8])[H:9]"
C        1.26822628      -0.53914878      -0.32990861
C       -0.39066623      -0.09397896       0.64385549
C       -0.88574754       1.27874078       0.30934961
O       -1.01229268       1.20151410      -1.00377429
C       -0.55043202      -0.59986587      -0.75816548
O       -1.08449059      -1.56555086      -1.21308780
H        1.86105584       0.29825009       0.04489685
H        1.58381366      -1.45031721       0.17809196
H        1.61388057      -0.59501326      -1.36321042
H       -0.22789993      -0.58457290       1.59332616
H       -0.46767452       2.16505563       0.79401859
H       -1.70777283       0.48488724       1.10460795
12
Frame=15 idx=001329 GeodesicLength=1.2953029783073422 rxn_smarts="[C:1]([C@@:2]1([H:10])[C:3]([H:11])([H:12])[O:4][C:5]1=[O:6])([H:7])([H:8])[H:9]>>[C:1]([C:5]([C:2]([C:3](=[O:4])[H:11])([H:10])[H:12])=[O:6])([H:7])([H:8])[H:9]"
C        1.27082027      -0.53943913      -0.31799028
C       -0.38287067      -0.08862558       0.62842296
C       -0.89337109       1.28640166       0.30385101
O       -1.03931444       1.21391366      -1.00630185
C       -0.56231117      -0.59220033      -0.77425798
O       -1.10100768      -1.56162591      -1.21430942
H        1.87662010       0.29024671       0.05429670
H        1.57906480      -1.45119113       0.19368029
H        1.62362443      -0.60053545      -1.34876551
H       -0.21520576      -0.57997429       1.57650360
H       -0.46741982       2.17096912       0.78490259
H       -1.68862897       0.45206068       1.11996789
12
Frame=16 idx=001329 GeodesicLength=1.3817271922367216 rxn_smarts="[C:1]([C@@:2]1([H:10])[C:3]([H:11])([H:12])[O:4][C:5]1=[O:6])([H:7])([H:8])[H:9]>>[C:1]([C:5]([C:2]([C:3](=[O:4])[H:11])([H:10])[H:12])=[O:6])([H:7])([H:8])[H:9]"
C        1.27354235      -0.53959455      -0.30599128
C       -0.37519040      -0.08324892       0.61288801
C       -0.90090763       1.29403112       0.29853459
O       -1.06725374       1.22606103      -1.00818248
C       -0.57424032      -0.58452764      -0.79020520
O       -1.11751615      -1.55751345      -1.21535874
H        1.89228744       0.28191931       0.06422024
H        1.57433793      -1.45195987       0.20921996
H        1.63311427      -0.60582386      -1.33427263
H       -0.20264728      -0.57540858       1.55955187
H       -0.46679205       2.17693206       0.77539800
H       -1.66873443       0.41913337       1.13419765
