10
Frame=0 idx=002489 GeodesicLength=0.0 rxn_smarts="[O:1]([c:2]1[c:3]([H:8])[n:4]([H:9])[c:5]([H:10])[n:6]1)[H:7]>>[O:1]([C:2]1=[N:6][C:5]([H:10])=[N:4][C:3]1([H:8])[H:9])[H:7]"
O        2.06418453      -0.49487978      -0.13547570
C        0.78645836      -0.12648999      -0.01043911
C       -0.28916498      -0.97295849       0.24244106
N       -1.46067044      -0.10206692       0.33106633
C       -0.93662898       1.09842867       0.05713238
N        0.38399315       1.13727676      -0.11985008
H        2.57572844       0.29969174      -0.31956869
H       -0.32482188      -1.98254074       0.61675326
H       -1.23632374      -0.83119779      -0.63255398
H       -1.56275446       1.97473655      -0.02950547
10
Frame=1 idx=002489 GeodesicLength=0.0416821728274561 rxn_smarts="[O:1]([c:2]1[c:3]([H:8])[n:4]([H:9])[c:5]([H:10])[n:6]1)[H:7]>>[O:1]([C:2]1=[N:6][C:5]([H:10])=[N:4][C:3]1([H:8])[H:9])[H:7]"
O        2.06395497      -0.49541160      -0.14239263
C        0.78717063      -0.12508008      -0.01440074
C       -0.29048952      -0.97331956       0.23461706
N       -1.45649808      -0.10131291       0.32809801
C       -0.93520192       1.09986000       0.06094511
N        0.38749633       1.13969441      -0.11319253
H        2.57845038       0.30053724      -0.31196323
H       -0.32066878      -1.97648596       0.62671773
H       -1.25213200      -0.84378820      -0.63892520
H       -1.56208201       1.97530667      -0.02950358
10
Frame=2 idx=002489 GeodesicLength=0.08335060834138333 rxn_smarts="[O:1]([c:2]1[c:3]([H:8])[n:4]([H:9])[c:5]([H:10])[n:6]1)[H:7]>>[O:1]([C:2]1=[N:6][C:5]([H:10])=[N:4][C:3]1([H:8])[H:9])[H:7]"
O        2.06376077      -0.49579814      -0.14904812
C        0.78795475      -0.12354689      -0.01780904
C       -0.29180267      -0.97364480       0.22682393
N       -1.45239635      -0.10059253       0.32469392
C       -0.93374696       1.10130900       0.06493195
N        0.39112533       1.14218806      -0.10554607
H        2.58100896       0.30114925      -0.30528534
H       -0.31652385      -1.97019115       0.63631370
H       -1.26801215      -0.85668537      -0.64506650
H       -1.56136782       1.97581259      -0.03000842
10
Frame=3 idx=002489 GeodesicLength=0.1250217372741159 rxn_smarts="[O:1]([c:2]1[c:3]([H:8])[n:4]([H:9])[c:5]([H:10])[n:6]1)[H:7]>>[O:1]([C:2]1=[N:6][C:5]([H:10])=[N:4][C:3]1([H:8])[H:9])[H:7]"
O        2.06356008      -0.49608443      -0.15584832
C        0.78879645      -0.12191224      -0.02085191
C       -0.29309802      -0.97392800       0.21905457
N       -1.44834824      -0.09987925       0.32091685
C       -0.93226496       1.10277795       0.06904137
N        0.39486874       1.14472952      -0.09702640
H        2.58350117       0.30162181      -0.29901582
H       -0.31236473      -1.96364594       0.64558933
H       -1.28406678      -0.86995786      -0.65086335
H       -1.56058373       1.97627844      -0.03099633
10
Frame=4 idx=002489 GeodesicLength=0.16670007663435635 rxn_smarts="[O:1]([c:2]1[c:3]([H:8])[n:4]([H:9])[c:5]([H:10])[n:6]1)[H:7]>>[O:1]([C:2]1=[N:6][C:5]([H:10])=[N:4][C:3]1([H:8])[H:9])[H:7]"
O        2.06324690      -0.49633183      -0.16376057
C        0.78964303      -0.12022259      -0.02411790
C       -0.29435648      -0.97416154       0.21123972
N       -1.44427070      -0.09912092       0.31703961
C       -0.93073298       1.10427823       0.07324306
N        0.39869010       1.14726722      -0.08811147
H        2.58614588       0.30207441      -0.29169556
H       -0.30804202      -1.95680795       0.65459331
H       -1.30061924      -0.88368809      -0.65597627
H       -1.55970449       1.97671305      -0.03245392
10
Frame=5 idx=002489 GeodesicLength=0.2083801287006741 rxn_smarts="[O:1]([c:2]1[c:3]([H:8])[n:4]([H:9])[c:5]([H:10])[n:6]1)[H:7]>>[O:1]([C:2]1=[N:6][C:5]([H:10])=[N:4][C:3]1([H:8])[H:9])[H:7]"
O        2.06287996      -0.49647386      -0.17218623
C        0.79051980      -0.11845085      -0.02725543
C       -0.29559081      -0.97434115       0.20341107
N       -1.44022534      -0.09833933       0.31282190
C       -0.92917104       1.10579791       0.07752513
N        0.40261547       1.14982292      -0.07839211
H        2.58879928       0.30243144      -0.28426760
H       -0.30365579      -1.94968707       0.66330530
H       -1.31746622      -0.89788175      -0.66057831
H       -1.55870532       1.97712174      -0.03438371
10
Frame=6 idx=002489 GeodesicLength=0.2500638466621984 rxn_smarts="[O:1]([c:2]1[c:3]([H:8])[n:4]([H:9])[c:5]([H:10])[n:6]1)[H:7]>>[O:1]([C:2]1=[N:6][C:5]([H:10])=[N:4][C:3]1([H:8])[H:9])[H:7]"
O        2.06250425      -0.49641974      -0.18081061
C        0.79142439      -0.11657617      -0.03030088
C       -0.29679891      -0.97446486       0.19554294
N       -1.43620706      -0.09753594       0.30826895
C       -0.92757531       1.10734902       0.08192801
N        0.40663629       1.15238433      -0.06789486
H        2.59142975       0.30263183      -0.27693680
H       -0.29921406      -1.94234196       0.67162168
H       -1.33463343      -0.91254443      -0.66462690
H       -1.55756591       1.97751792      -0.03679152
10
Frame=7 idx=002489 GeodesicLength=0.29174917576587456 rxn_smarts="[O:1]([c:2]1[c:3]([H:8])[n:4]([H:9])[c:5]([H:10])[n:6]1)[H:7]>>[O:1]([C:2]1=[N:6][C:5]([H:10])=[N:4][C:3]1([H:8])[H:9])[H:7]"
O        2.06212403      -0.49616177      -0.18962778
C        0.79235392      -0.11460047      -0.03329530
C       -0.29797995      -0.97452610       0.18762478
N       -1.43221567      -0.09669615       0.30336148
C       -0.92594640       1.10893228       0.08642523
N        0.41073160       1.15492271      -0.05676076
H        2.59405502       0.30270426      -0.26960058
H       -0.29472166      -1.93478111       0.67951582
H       -1.35214843      -0.92771994      -0.66805839
H       -1.55625246       1.97792629      -0.03958450
10
Frame=8 idx=002489 GeodesicLength=0.33342810354825025 rxn_smarts="[O:1]([c:2]1[c:3]([H:8])[n:4]([H:9])[c:5]([H:10])[n:6]1)[H:7]>>[O:1]([C:2]1=[N:6][C:5]([H:10])=[N:4][C:3]1([H:8])[H:9])[H:7]"
O        2.06182437      -0.49568079      -0.19786533
C        0.79334642      -0.11251104      -0.03582559
C       -0.29914961      -0.97453270       0.17969605
N       -1.42830579      -0.09584018       0.29787080
C       -0.92428929       1.11053918       0.09104207
N        0.41490503       1.15742168      -0.04469280
H        2.59653088       0.30270293      -0.26335027
H       -0.29035541      -1.92707602       0.68693612
H       -1.36980002      -0.94339352      -0.67107210
H       -1.55470659       1.97837047      -0.04273896
10
Frame=9 idx=002489 GeodesicLength=0.3751105788352731 rxn_smarts="[O:1]([c:2]1[c:3]([H:8])[n:4]([H:9])[c:5]([H:10])[n:6]1)[H:7]>>[O:1]([C:2]1=[N:6][C:5]([H:10])=[N:4][C:3]1([H:8])[H:9])[H:7]"
O        2.06160001      -0.49498821      -0.20564595
C        0.79439520      -0.11031773      -0.03801850
C       -0.30030125      -0.97447903       0.17172929
N       -1.42446275      -0.09494779       0.29181784
C       -0.92260113       1.11217212       0.09574618
N        0.41913016       1.15984730      -0.03197230
H        2.59891169       0.30267335      -0.25785021
H       -0.28610355      -1.91922937       0.69387729
H       -1.38765822      -0.95961463      -0.67356941
H       -1.55291013       1.97888400      -0.04611423
10
Frame=10 idx=002489 GeodesicLength=0.41674486698953095 rxn_smarts="[O:1]([c:2]1[c:3]([H:8])[n:4]([H:9])[c:5]([H:10])[n:6]1)[H:7]>>[O:1]([C:2]1=[N:6][C:5]([H:10])=[N:4][C:3]1([H:8])[H:9])[H:7]"
O        2.06148923      -0.49411936      -0.21256636
C        0.79551814      -0.10803391      -0.03967407
C       -0.30145066      -0.97437936       0.16371824
N       -1.42070415      -0.09402922       0.28501324
C       -0.92088270       1.11382177       0.10054104
N        0.42340777       1.16218534      -0.01860824
H        2.60114679       0.30270602      -0.25359025
H       -0.28207045      -1.91125959       0.70036708
H       -1.40562225      -0.97639012      -0.67564032
H       -1.55083172       1.97949843      -0.04956035
10
Frame=11 idx=002489 GeodesicLength=0.4583789390139466 rxn_smarts="[O:1]([c:2]1[c:3]([H:8])[n:4]([H:9])[c:5]([H:10])[n:6]1)[H:7]>>[O:1]([C:2]1=[N:6][C:5]([H:10])=[N:4][C:3]1([H:8])[H:9])[H:7]"
O        2.06123520      -0.49299701      -0.22123551
C        0.79657055      -0.10565639      -0.04241594
C       -0.30252166      -0.97416783       0.15544653
N       -1.41683610      -0.09298362       0.27819217
C       -0.91911615       1.11553059       0.10532269
N        0.42763359       1.16440979      -0.00588827
H        2.60375535       0.30255709      -0.24650439
H       -0.27764503      -1.90299225       0.70639138
H       -1.42450957      -0.99391041      -0.67627336
H       -1.54856618       1.98021006      -0.05303529
10
Frame=12 idx=002489 GeodesicLength=0.49996619879571913 rxn_smarts="[O:1]([c:2]1[c:3]([H:8])[n:4]([H:9])[c:5]([H:10])[n:6]1)[H:7]>>[O:1]([C:2]1=[N:6][C:5]([H:10])=[N:4][C:3]1([H:8])[H:9])[H:7]"
O        2.06134639      -0.49175418      -0.22682733
C        0.79782644      -0.10320285      -0.04331141
C       -0.30363994      -0.97395476       0.14726666
N       -1.41321718      -0.09196219       0.26985429
C       -0.91733424       1.11721253       0.11024419
N        0.43197252       1.16650744       0.00866605
H        2.60575314       0.30275785      -0.24411984
H       -0.27403957      -1.89474496       0.71201016
H       -1.44281750      -1.01193440      -0.67722183
H       -1.54585007       1.98107552      -0.05656094
10
Frame=13 idx=002489 GeodesicLength=0.5415480446700225 rxn_smarts="[O:1]([c:2]1[c:3]([H:8])[n:4]([H:9])[c:5]([H:10])[n:6]1)[H:7]>>[O:1]([C:2]1=[N:6][C:5]([H:10])=[N:4][C:3]1([H:8])[H:9])[H:7]"
O        2.06156805      -0.49036528      -0.23183385
C        0.79914217      -0.10068958      -0.04393209
C       -0.30473869      -0.97369126       0.13895173
N       -1.40964904      -0.09087032       0.26068381
C       -0.91551592       1.11890412       0.11520517
N        0.43632196       1.16844709       0.02370678
H        2.60767785       0.30315025      -0.24247386
H       -0.27067495      -1.88634626       0.71722037
H       -1.46135380      -1.03065112      -0.67750644
H       -1.54277763       1.98211236      -0.06002163
10
Frame=14 idx=002489 GeodesicLength=0.5831308214915321 rxn_smarts="[O:1]([c:2]1[c:3]([H:8])[n:4]([H:9])[c:5]([H:10])[n:6]1)[H:7]>>[O:1]([C:2]1=[N:6][C:5]([H:10])=[N:4][C:3]1([H:8])[H:9])[H:7]"
O        2.06188143      -0.48881814      -0.23649768
C        0.80050503      -0.09811730      -0.04442931
C       -0.30581033      -0.97337545       0.13044848
N       -1.40610616      -0.08968963       0.25065312
C       -0.91365715       1.12060528       0.12022689
N        0.44067987       1.17021230       0.03923532
H        2.60954683       0.30373200      -0.24123923
H       -0.26751241      -1.87776412       0.72203242
H       -1.48019685      -1.05010615      -0.67697672
H       -1.53933025       1.98332122      -0.06345328
10
Frame=15 idx=002489 GeodesicLength=0.624713348986997 rxn_smarts="[O:1]([c:2]1[c:3]([H:8])[n:4]([H:9])[c:5]([H:10])[n:6]1)[H:7]>>[O:1]([C:2]1=[N:6][C:5]([H:10])=[N:4][C:3]1([H:8])[H:9])[H:7]"
O        2.06223431      -0.48708768      -0.24131962
C        0.80188956      -0.09547677      -0.04508165
C       -0.30684353      -0.97299760       0.12168873
N       -1.40255816      -0.08839875       0.23975631
C       -0.91176248       1.12231730       0.12529048
N        0.44502222       1.17179628       0.05507397
H        2.61146326       0.30444417      -0.23968704
H       -0.26445842      -1.86893195       0.72646997
H       -1.49947372      -1.07037542      -0.67538564
H       -1.53551303       1.98471043      -0.06680550
10
Frame=16 idx=002489 GeodesicLength=0.6662989511511641 rxn_smarts="[O:1]([c:2]1[c:3]([H:8])[n:4]([H:9])[c:5]([H:10])[n:6]1)[H:7]>>[O:1]([C:2]1=[N:6][C:5]([H:10])=[N:4][C:3]1([H:8])[H:9])[H:7]"
O        2.06261559      -0.48515043      -0.24643865
C        0.80328530      -0.09275862      -0.04600495
C       -0.30783477      -0.97255552       0.11261274
N       -1.39899062      -0.08698504       0.22791213
C       -0.90983667       1.12403226       0.13040549
N        0.44934301       1.17317630       0.07122957
H        2.61345122       0.30526966      -0.23759626
H       -0.26148698      -1.85981470       0.73052238
H       -1.51923813      -1.09150285      -0.67256558
H       -1.53130796       1.98628894      -0.07007686
