15
Frame=0 idx=007357 GeodesicLength=0.0 rxn_smarts="[C:1]1([H:8])([H:9])[C:2]([H:10])([H:11])[C:3]12[C:4]([H:12])([H:13])[C@@:5]1([H:14])[O:6][C@@:7]21[H:15]>>[C:1]1([H:8])=[C:3]([C:4]([C@@:5]2([H:14])[O+:6]=[C-:7]2)([H:12])[H:13])[C:2]1([H:10])[H:11].[H:9][H:15]"
C       -1.39228383       0.12254078      -0.71954847
C       -1.55764444      -0.19494744       0.71146003
C       -0.27685658      -0.27403806      -0.06313285
C        0.94601970      -1.22267316      -0.08998813
C        1.93014681      -0.12693294       0.25962312
O        1.78265660       0.87410666      -0.77050783
C        0.88522579       0.91025614       0.24125994
H       -1.91187730       0.19281223      -1.65837885
H       -1.07220242       1.91112604      -0.57889769
H       -1.66977065       0.62514860       1.42304774
H       -2.06583246      -1.11353361       0.99518259
H        0.85872494      -1.99941476       0.66918765
H        1.09985650      -1.65908958      -1.07797149
H        2.86817219      -0.17156325       0.79082422
H       -0.42433481       2.12620240      -0.13215998
15
Frame=1 idx=007357 GeodesicLength=0.08959578057931541 rxn_smarts="[C:1]1([H:8])([H:9])[C:2]([H:10])([H:11])[C:3]12[C:4]([H:12])([H:13])[C@@:5]1([H:14])[O:6][C@@:7]21[H:15]>>[C:1]1([H:8])=[C:3]([C:4]([C@@:5]2([H:14])[O+:6]=[C-:7]2)([H:12])[H:13])[C:2]1([H:10])[H:11].[H:9][H:15]"
C       -1.39783531       0.12951054      -0.71777984
C       -1.55911196      -0.19732827       0.71339364
C       -0.28040375      -0.27403665      -0.06421277
C        0.94130570      -1.21948485      -0.09365093
C        1.92739947      -0.12637962       0.26015016
O        1.78986400       0.88158680      -0.76382627
C        0.89424066       0.92306457       0.24933912
H       -1.91769280       0.16670443      -1.65832191
H       -1.07644474       1.91331486      -0.58263662
H       -1.67031969       0.61943419       1.42848792
H       -2.06599884      -1.11737736       0.99431537
H        0.85698335      -1.99709518       0.66517354
H        1.09612637      -1.65522630      -1.08174933
H        2.86464594      -0.17965875       0.79213414
H       -0.40275840       2.13297157      -0.14081620
15
Frame=2 idx=007357 GeodesicLength=0.17901183930518755 rxn_smarts="[C:1]1([H:8])([H:9])[C:2]([H:10])([H:11])[C:3]12[C:4]([H:12])([H:13])[C@@:5]1([H:14])[O:6][C@@:7]21[H:15]>>[C:1]1([H:8])=[C:3]([C:4]([C@@:5]2([H:14])[O+:6]=[C-:7]2)([H:12])[H:13])[C:2]1([H:10])[H:11].[H:9][H:15]"
C       -1.40349337       0.13648398      -0.71616346
C       -1.56064045      -0.19972806       0.71515514
C       -0.28406228      -0.27408432      -0.06549524
C        0.93656822      -1.21623314      -0.09731995
C        1.92453917      -0.12571657       0.26069631
O        1.79713892       0.88897157      -0.75717505
C        0.90345042       0.93595977       0.25746258
H       -1.92336047       0.14050221      -1.65745208
H       -1.08073578       1.91550094      -0.58665665
H       -1.67083161       0.61362424       1.43382354
H       -2.06621790      -1.12122439       0.99330318
H        0.85517977      -1.99469258       0.66115861
H        1.09245014      -1.65136853      -1.08549079
H        2.86097296      -0.18768102       0.79338552
H       -0.38095773       2.13968589      -0.14923167
15
Frame=3 idx=007357 GeodesicLength=0.2683470495284171 rxn_smarts="[C:1]1([H:8])([H:9])[C:2]([H:10])([H:11])[C:3]12[C:4]([H:12])([H:13])[C@@:5]1([H:14])[O:6][C@@:7]21[H:15]>>[C:1]1([H:8])=[C:3]([C:4]([C@@:5]2([H:14])[O+:6]=[C-:7]2)([H:12])[H:13])[C:2]1([H:10])[H:11].[H:9][H:15]"
C       -1.40925590       0.14341363      -0.71471189
C       -1.56222952      -0.20215060       0.71674208
C       -0.28782928      -0.27419518      -0.06697752
C        0.93181518      -1.21292669      -0.10098520
C        1.92157012      -0.12494248       0.26125413
O        1.80447154       0.89625287      -0.75056991
C        0.91286397       0.94893616       0.26562549
H       -1.92888269       0.11432904      -1.65577661
H       -1.08512377       1.91763893      -0.59104518
H       -1.67131526       0.60773280       1.43902813
H       -2.06648201      -1.12507571       0.99216753
H        0.85332855      -1.99220574       0.65716428
H        1.08883731      -1.64753733      -1.08918010
H        2.85716205      -0.19562078       0.79456182
H       -0.35893030       2.14635108      -0.15729704
15
Frame=4 idx=007357 GeodesicLength=0.35768319527440007 rxn_smarts="[C:1]1([H:8])([H:9])[C:2]([H:10])([H:11])[C:3]12[C:4]([H:12])([H:13])[C@@:5]1([H:14])[O:6][C@@:7]21[H:15]>>[C:1]1([H:8])=[C:3]([C:4]([C@@:5]2([H:14])[O+:6]=[C-:7]2)([H:12])[H:13])[C:2]1([H:10])[H:11].[H:9][H:15]"
C       -1.41511994       0.15025220      -0.71343482
C       -1.56387798      -0.20459800       0.71815533
C       -0.29170111      -0.27438257      -0.06865364
C        0.92705409      -1.20957449      -0.10463733
C        1.91849788      -0.12405736       0.26181491
O        1.81185140       0.90342469      -0.74402445
C        0.92249208       0.96198720       0.27382843
H       -1.93426396       0.08830110      -1.65331825
H       -1.08966157       1.91967767      -0.59589737
H       -1.67177985       0.60177727       1.44407592
H       -2.06678276      -1.12893053       0.99093373
H        0.85144428      -1.98963470       0.65321035
H        1.08529500      -1.64375273      -1.09280282
H        2.85322565      -0.20347212       0.79564296
H       -0.33667320       2.15298237      -0.16489296
15
Frame=5 idx=007357 GeodesicLength=0.4469995213756799 rxn_smarts="[C:1]1([H:8])([H:9])[C:2]([H:10])([H:11])[C:3]12[C:4]([H:12])([H:13])[C@@:5]1([H:14])[O:6][C@@:7]21[H:15]>>[C:1]1([H:8])=[C:3]([C:4]([C@@:5]2([H:14])[O+:6]=[C-:7]2)([H:12])[H:13])[C:2]1([H:10])[H:11].[H:9][H:15]"
C       -1.42108414       0.15695329      -0.71233883
C       -1.56558369      -0.20707275       0.71939906
C       -0.29567443      -0.27466012      -0.07051699
C        0.92229197      -1.20618542      -0.10826756
C        1.91532746      -0.12306176       0.26237176
O        1.81926787       0.91048198      -0.73754994
C        0.93234540       0.97510631       0.28207225
H       -1.93950814       0.06252974      -1.65011264
H       -1.09440176       1.92157714      -0.60129451
H       -1.67223119       0.59577545       1.44894738
H       -2.06711171      -1.13278892       0.98962910
H        0.84954081      -1.98698029       0.64931480
H        1.08183016      -1.64003328      -1.09634584
H        2.84917616      -0.21122925       0.79660999
H       -0.31418474       2.15958787      -0.17191805
15
Frame=6 idx=007357 GeodesicLength=0.5364148869875319 rxn_smarts="[C:1]1([H:8])([H:9])[C:2]([H:10])([H:11])[C:3]12[C:4]([H:12])([H:13])[C@@:5]1([H:14])[O:6][C@@:7]21[H:15]>>[C:1]1([H:8])=[C:3]([C:4]([C@@:5]2([H:14])[O+:6]=[C-:7]2)([H:12])[H:13])[C:2]1([H:10])[H:11].[H:9][H:15]"
C       -1.42714402       0.16347375      -0.71143016
C       -1.56734426      -0.20956978       0.72047936
C       -0.29974429      -0.27503617      -0.07255617
C        0.91753413      -1.20276747      -0.11186957
C        1.91206769      -0.12195900       0.26291298
O        1.82670851       0.91742517      -0.73115414
C        0.94244051       0.98828431       0.29036942
H       -1.94462305       0.03708932      -1.64621076
H       -1.09941189       1.92327674      -0.60735513
H       -1.67267923       0.58975504       1.45361845
H       -2.06745950      -1.13664285       0.98828552
H        0.84763048      -1.98424441       0.64549155
H        1.07844396      -1.63639423      -1.09980009
H        2.84503159      -0.21889603       0.79743373
H       -0.29145061       2.16620561      -0.17821501
15
Frame=7 idx=007357 GeodesicLength=0.6259306971768117 rxn_smarts="[C:1]1([H:8])([H:9])[C:2]([H:10])([H:11])[C:3]12[C:4]([H:12])([H:13])[C@@:5]1([H:14])[O:6][C@@:7]21[H:15]>>[C:1]1([H:8])=[C:3]([C:4]([C@@:5]2([H:14])[O+:6]=[C-:7]2)([H:12])[H:13])[C:2]1([H:10])[H:11].[H:9][H:15]"
C       -1.43329797       0.16977112      -0.71071328
C       -1.56915689      -0.21208514       0.72140428
C       -0.30390607      -0.27551941      -0.07476035
C        0.91278549      -1.19932831      -0.11543804
C        1.90872647      -0.12075270       0.26342916
O        1.83416055       0.92425624      -0.72484166
C        0.95279345       1.00151166       0.29873376
H       -1.94961520       0.01204581      -1.64166762
H       -1.10475673       1.92473394      -0.61418413
H       -1.67313182       0.58374510       1.45807008
H       -2.06781745      -1.14048562       0.98693574
H        0.84572451      -1.98142975       0.64175177
H        1.07513776      -1.63284842      -1.10315813
H        2.84081101      -0.22647632       0.79808589
H       -0.26845711       2.17286179      -0.18364747
15
Frame=8 idx=007357 GeodesicLength=0.7155585974941528 rxn_smarts="[C:1]1([H:8])([H:9])[C:2]([H:10])([H:11])[C:3]12[C:4]([H:12])([H:13])[C@@:5]1([H:14])[O:6][C@@:7]21[H:15]>>[C:1]1([H:8])=[C:3]([C:4]([C@@:5]2([H:14])[O+:6]=[C-:7]2)([H:12])[H:13])[C:2]1([H:10])[H:11].[H:9][H:15]"
C       -1.43954315       0.17580754      -0.71019188
C       -1.57101847      -0.21460991       0.72218347
C       -0.30815455      -0.27611345      -0.07711659
C        0.90804865      -1.19587448      -0.11897043
C        1.90531373      -0.11944897       0.26390837
O        1.84161232       0.93098079      -0.71861208
C        0.96342406       1.01477611       0.30718993
H       -1.95449108      -0.01256585      -1.63654473
H       -1.11050406       1.92589587      -0.62189968
H       -1.67359858       0.57778074       1.46228226
H       -2.06817547      -1.14430568       0.98561471
H        0.84383116      -1.97854014       0.63810204
H        1.07190803      -1.62940570      -1.10641695
H        2.83653654      -0.23398058       0.79853132
H       -0.24518913       2.17960370      -0.18805976
15
Frame=9 idx=007357 GeodesicLength=0.8052686649186177 rxn_smarts="[C:1]1([H:8])([H:9])[C:2]([H:10])([H:11])[C:3]12[C:4]([H:12])([H:13])[C@@:5]1([H:14])[O:6][C@@:7]21[H:15]>>[C:1]1([H:8])=[C:3]([C:4]([C@@:5]2([H:14])[O+:6]=[C-:7]2)([H:12])[H:13])[C:2]1([H:10])[H:11].[H:9][H:15]"
C       -1.44587758       0.18154701      -0.70986839
C       -1.57292507      -0.21713332       0.72282887
C       -0.31248562      -0.27682101      -0.07961291
C        0.90332529      -1.19241004      -0.12246672
C        1.90183707      -0.11805365       0.26434196
O        1.84905086       0.93760743      -0.71245996
C        0.97435298       1.02806675       0.31576144
H       -1.95925903      -0.03673108      -1.63090800
H       -1.11672785       1.92672462      -0.63060932
H       -1.67408395       0.57189745       1.46624185
H       -2.06852365      -1.14808974       0.98435870
H        0.84195611      -1.97557877       0.63454238
H        1.06875266      -1.62606876      -1.10957698
H        2.83222726      -0.24142420       0.79874010
H       -0.22161947       2.18646731      -0.19131303
15
Frame=10 idx=007357 GeodesicLength=0.8950990948696433 rxn_smarts="[C:1]1([H:8])([H:9])[C:2]([H:10])([H:11])[C:3]12[C:4]([H:12])([H:13])[C@@:5]1([H:14])[O:6][C@@:7]21[H:15]>>[C:1]1([H:8])=[C:3]([C:4]([C@@:5]2([H:14])[O+:6]=[C-:7]2)([H:12])[H:13])[C:2]1([H:10])[H:11].[H:9][H:15]"
C       -1.45229992       0.18695583      -0.70974949
C       -1.57487361      -0.21963851       0.72334923
C       -0.31689301      -0.27763909      -0.08223498
C        0.89861536      -1.18893970      -0.12592863
C        1.89830965      -0.11657617       0.26471515
O        1.85646213       0.94414957      -0.70637567
C        0.98560761       1.04136445       0.32449180
H       -1.96392454      -0.06046670      -1.62481628
H       -1.12350984       1.92716216      -0.64045550
H       -1.67460250       0.56614355       1.46992261
H       -2.06885047      -1.15181765       0.98320620
H        0.84010339      -1.97255113       0.63107225
H        1.06566191      -1.62284210      -1.11264182
H        2.82791220      -0.24882764       0.79866326
H       -0.19771836       2.19352314      -0.19321812
15
Frame=11 idx=007357 GeodesicLength=0.985018634519109 rxn_smarts="[C:1]1([H:8])([H:9])[C:2]([H:10])([H:11])[C:3]12[C:4]([H:12])([H:13])[C@@:5]1([H:14])[O:6][C@@:7]21[H:15]>>[C:1]1([H:8])=[C:3]([C:4]([C@@:5]2([H:14])[O+:6]=[C-:7]2)([H:12])[H:13])[C:2]1([H:10])[H:11].[H:9][H:15]"
C       -1.45880993       0.19200172      -0.70984164
C       -1.57686047      -0.22210784       0.72375479
C       -0.32137100      -0.27856194      -0.08497047
C        0.89391785      -1.18546519      -0.12935984
C        1.89474264      -0.11502550       0.26501702
O        1.86383352       0.95062228      -0.70034554
C        0.99721512       1.05465193       0.33342240
H       -1.96849427      -0.08380123      -1.61832623
H       -1.13093657       1.92716480      -0.65156452
H       -1.67516493       0.56056635       1.47330500
H       -2.06914360      -1.15546996       0.98219610
H        0.83827345      -1.96946108       0.62768532
H        1.06262832      -1.61972339      -1.11561783
H        2.82361756      -0.25621611       0.79825852
H       -0.17344769       2.20082515      -0.19361309
15
Frame=12 idx=007357 GeodesicLength=1.0750082772345881 rxn_smarts="[C:1]1([H:8])([H:9])[C:2]([H:10])([H:11])[C:3]12[C:4]([H:12])([H:13])[C@@:5]1([H:14])[O:6][C@@:7]21[H:15]>>[C:1]1([H:8])=[C:3]([C:4]([C@@:5]2([H:14])[O+:6]=[C-:7]2)([H:12])[H:13])[C:2]1([H:10])[H:11].[H:9][H:15]"
C       -1.46540764       0.19665156      -0.71015376
C       -1.57888179      -0.22451903       0.72405544
C       -0.32591381      -0.27958068      -0.08780640
C        0.88922991      -1.18198756      -0.13276730
C        1.89114853      -0.11341331       0.26523476
O        1.87115044       0.95704541      -0.69434884
C        1.00920640       1.06790639       0.34260851
H       -1.97297508      -0.10679159      -1.61149061
H       -1.13909576       1.92667864      -0.66408214
H       -1.67578521       0.55522301       1.47636479
H       -2.06938902      -1.15902106       0.98137085
H        0.83646463      -1.96631464       0.62437000
H        1.05964063      -1.61670735      -1.11851586
H        2.81937317      -0.26361983       0.79747324
H       -0.14876540       2.20845004      -0.19231266
15
Frame=13 idx=007357 GeodesicLength=1.1650191056833203 rxn_smarts="[C:1]1([H:8])([H:9])[C:2]([H:10])([H:11])[C:3]12[C:4]([H:12])([H:13])[C@@:5]1([H:14])[O:6][C@@:7]21[H:15]>>[C:1]1([H:8])=[C:3]([C:4]([C@@:5]2([H:14])[O+:6]=[C-:7]2)([H:12])[H:13])[C:2]1([H:10])[H:11].[H:9][H:15]"
C       -1.47209516       0.20087166      -0.71069702
C       -1.58093371      -0.22684791       0.72426077
C       -0.33051599      -0.28068332      -0.09073107
C        0.88454777      -1.17850576      -0.13615958
C        1.88753927      -0.11175094       0.26535666
O        1.87839781       0.96344118      -0.68836179
C        1.02161269       1.08110449       0.35210708
H       -1.97737179      -0.12950524      -1.60435655
H       -1.14808314       1.92565869      -0.67814754
H       -1.67647763       0.55017292       1.47907871
H       -2.06957067      -1.16244488       0.98077453
H        0.83467256      -1.96311673       0.62111111
H        1.05668774      -1.61378452      -1.12134925
H        2.81520831      -0.27107181       0.79625639
H       -0.12361806       2.21646216      -0.18914247
15
Frame=14 idx=007357 GeodesicLength=1.255001282255657 rxn_smarts="[C:1]1([H:8])([H:9])[C:2]([H:10])([H:11])[C:3]12[C:4]([H:12])([H:13])[C@@:5]1([H:14])[O:6][C@@:7]21[H:15]>>[C:1]1([H:8])=[C:3]([C:4]([C@@:5]2([H:14])[O+:6]=[C-:7]2)([H:12])[H:13])[C:2]1([H:10])[H:11].[H:9][H:15]"
C       -1.47887513       0.20462795      -0.71148503
C       -1.58301209      -0.22906538       0.72437985
C       -0.33517071      -0.28185275      -0.09373233
C        0.87986619      -1.17501750      -0.13954797
C        1.88392949      -0.11005272       0.26537060
O        1.88556092       0.96983573      -0.68235255
C        1.03447038       1.09421547       0.36199157
H       -1.98168986      -0.15203048      -1.59696217
H       -1.15799733       1.92404395      -0.69392231
H       -1.67726034       0.54548390       1.48141788
H       -2.06966994      -1.16570933       0.98045450
H        0.83288987      -1.95987400       0.61788837
H        1.05375529      -1.61094193      -1.12413544
H        2.81115716      -0.27861209       0.79454455
H       -0.09795390       2.22494919      -0.18390953
15
Frame=15 idx=007357 GeodesicLength=1.3448712356590071 rxn_smarts="[C:1]1([H:8])([H:9])[C:2]([H:10])([H:11])[C:3]12[C:4]([H:12])([H:13])[C@@:5]1([H:14])[O:6][C@@:7]21[H:15]>>[C:1]1([H:8])=[C:3]([C:4]([C@@:5]2([H:14])[O+:6]=[C-:7]2)([H:12])[H:13])[C:2]1([H:10])[H:11].[H:9][H:15]"
C       -1.48575297       0.20788310      -0.71253387
C       -1.58511254      -0.23114178       0.72442171
C       -0.33987161      -0.28307011      -0.09679992
C        0.87517974      -1.17151858      -0.14294607
C        1.88033279      -0.10833243       0.26526512
O        1.89262381       0.97625806      -0.67628574
C        1.04781545       1.10720737       0.37233790
H       -1.98593528      -0.17446130      -1.58933732
H       -1.16893946       1.92178060      -0.71156680
H       -1.67815238       0.54122858       1.48335366
H       -2.06966594      -1.16878268       0.98046146
H        0.83110816      -1.95659263       0.61467708
H        1.05082993      -1.60816251      -1.12689492
H        2.80725307      -0.28628314       0.79227709
H       -0.07171276       2.23398746      -0.17642938
15
Frame=16 idx=007357 GeodesicLength=1.4345403391396732 rxn_smarts="[C:1]1([H:8])([H:9])[C:2]([H:10])([H:11])[C:3]12[C:4]([H:12])([H:13])[C@@:5]1([H:14])[O:6][C@@:7]21[H:15]>>[C:1]1([H:8])=[C:3]([C:4]([C@@:5]2([H:14])[O+:6]=[C-:7]2)([H:12])[H:13])[C:2]1([H:10])[H:11].[H:9][H:15]"
C       -1.49273621       0.21059715      -0.71386346
C       -1.58723059      -0.23304262       0.72439388
C       -0.34461240      -0.28431208      -0.09992464
C        0.87048126      -1.16800286      -0.14636972
C        1.87676354      -0.10660535       0.26502942
O        1.89956952       0.98274087      -0.67011999
C        1.06168776       1.12004344       0.38323195
H       -1.99011210      -0.19690711      -1.58150444
H       -1.18101736       1.91880599      -0.73124978
H       -1.67917485       0.53748633       1.48485362
H       -2.06953438      -1.17162783       0.98084968
H        0.82931547      -1.95327903       0.61144829
H        1.04789659      -1.60542528      -1.12965147
H        2.80353133      -0.29413126       0.78938558
H       -0.04482758       2.24365963      -0.16650891
