13
Frame=0 idx=010128 GeodesicLength=0.0 rxn_smarts="[O:1]=[C:2]1[N:3]([H:8])[C:4]([H:9])([H:10])[C@@:5]2([H:11])[C:6]([H:12])([H:13])[N:7]12>>[C:5]1([H:11])=[N:7][C:6]1([H:12])[H:13].[N:3](=[C:4]([H:9])[H:10])[H:8].[O+:1]#[C-:2]"
O        1.68190382       2.39202930      -0.04738294
C        1.01807973       1.50517643       0.20596484
N        1.63453542      -0.42792546       0.36636327
C        0.83547569      -1.21965503      -0.29242635
C       -0.95771517      -0.08424260      -0.76757529
C       -1.51308990       0.37046104       0.48608771
N       -0.77653513       1.17721860      -0.52797631
H        1.48137997      -0.48726873       1.37001961
H        0.21410051      -1.96055818       0.20714012
H        1.05808787      -1.38337971      -1.34272845
H       -1.14245428      -0.63319936      -1.67571538
H       -2.56046041       0.62202969       0.61549782
H       -0.97330809       0.12931398       1.40273136
13
Frame=1 idx=010128 GeodesicLength=0.06551864238028529 rxn_smarts="[O:1]=[C:2]1[N:3]([H:8])[C:4]([H:9])([H:10])[C@@:5]2([H:11])[C:6]([H:12])([H:13])[N:7]12>>[C:5]1([H:11])=[N:7][C:6]1([H:12])[H:13].[N:3](=[C:4]([H:9])[H:10])[H:8].[O+:1]#[C-:2]"
O        1.66003945       2.42829428       0.02118369
C        1.01790817       1.51050429       0.22109029
N        1.63611751      -0.41867343       0.32284217
C        0.82396522      -1.23537886      -0.29067825
C       -0.95543946      -0.08380800      -0.77312288
C       -1.51985965       0.37764154       0.47504614
N       -0.76727674       1.17939760      -0.53167253
H        1.55649953      -0.48005172       1.33419955
H        0.22578763      -1.96735392       0.24942010
H        1.03928404      -1.45474859      -1.33278345
H       -1.15998613      -0.62227533      -1.68366177
H       -2.56697961       0.63563187       0.59240097
H       -0.99005995       0.13082025       1.39573596
13
Frame=2 idx=010128 GeodesicLength=0.1291597458739438 rxn_smarts="[O:1]=[C:2]1[N:3]([H:8])[C:4]([H:9])([H:10])[C@@:5]2([H:11])[C:6]([H:12])([H:13])[N:7]12>>[C:5]1([H:11])=[N:7][C:6]1([H:12])[H:13].[N:3](=[C:4]([H:9])[H:10])[H:8].[O+:1]#[C-:2]"
O        1.63679072       2.46000023       0.09150153
C        1.01745494       1.51497890       0.23747930
N        1.63648643      -0.40942232       0.27795746
C        0.81226083      -1.25069882      -0.28760208
C       -0.95330416      -0.08317213      -0.77892667
C       -1.52732297       0.38490530       0.46342175
N       -0.75804213       1.18166560      -0.53508309
H        1.63559297      -0.47269031       1.29167310
H        0.23936717      -1.97166525       0.29380800
H        1.01934607      -1.52533421      -1.31869768
H       -1.17628976      -0.61039586      -1.69209550
H       -2.57404135       0.64944684       0.56813386
H       -1.00829878       0.13238202       1.38843001
13
Frame=3 idx=010128 GeodesicLength=0.19098856910016404 rxn_smarts="[O:1]=[C:2]1[N:3]([H:8])[C:4]([H:9])([H:10])[C@@:5]2([H:11])[C:6]([H:12])([H:13])[N:7]12>>[C:5]1([H:11])=[N:7][C:6]1([H:12])[H:13].[N:3](=[C:4]([H:9])[H:10])[H:8].[O+:1]#[C-:2]"
O        1.61238479       2.48687334       0.16342969
C        1.01676388       1.51831275       0.25531874
N        1.63551038      -0.40027623       0.23193321
C        0.80043207      -1.26555437      -0.28299477
C       -0.95131657      -0.08236957      -0.78490740
C       -1.53553412       0.39223717       0.45124240
N       -0.74880384       1.18397954      -0.53808900
H        1.71808012      -0.46500694       1.24154512
H        0.25507289      -1.97330273       0.34028329
H        0.99848946      -1.59474565      -1.30029331
H       -1.19123023      -0.59764744      -1.70099693
H       -2.58166012       0.66355587       0.54266766
H       -1.02818871       0.13394427       1.38086130
13
Frame=4 idx=010128 GeodesicLength=0.25074509350473817 rxn_smarts="[O:1]=[C:2]1[N:3]([H:8])[C:4]([H:9])([H:10])[C@@:5]2([H:11])[C:6]([H:12])([H:13])[N:7]12>>[C:5]1([H:11])=[N:7][C:6]1([H:12])[H:13].[N:3](=[C:4]([H:9])[H:10])[H:8].[O+:1]#[C-:2]"
O        1.58808347       2.50809992       0.23541543
C        1.01570052       1.52039333       0.27514092
N        1.63304505      -0.39120245       0.18539527
C        0.78866407      -1.27964045      -0.27669626
C       -0.94944163      -0.08128502      -0.79093179
C       -1.54463233       0.39943752       0.43865940
N       -0.73967550       1.18641745      -0.54022550
H        1.80256121      -0.45680699       1.18340481
H        0.27308665      -1.97198397       0.38847545
H        0.97721769      -1.66219361      -1.27751139
H       -1.20456436      -0.58387356      -1.71036909
H       -2.59003440       0.67746120       0.51605918
H       -1.05001044       0.13517663       1.37318358
13
Frame=5 idx=010128 GeodesicLength=0.30885599660065793 rxn_smarts="[O:1]=[C:2]1[N:3]([H:8])[C:4]([H:9])([H:10])[C@@:5]2([H:11])[C:6]([H:12])([H:13])[N:7]12>>[C:5]1([H:11])=[N:7][C:6]1([H:12])[H:13].[N:3](=[C:4]([H:9])[H:10])[H:8].[O+:1]#[C-:2]"
O        1.56245237       2.52449082       0.31011119
C        1.01478859       1.52050861       0.29594479
N        1.62904351      -0.38266233       0.13788867
C        0.77687849      -1.29333390      -0.26855905
C       -0.94766653      -0.08025203      -0.79697523
C       -1.55425388       0.40679159       0.42559129
N       -0.73033579       1.18865710      -0.54198335
H        1.88810296      -0.44743081       1.11588578
H        0.29374955      -1.96767031       0.43872941
H        0.95544731      -1.72818443      -1.25019064
H       -1.21627739      -0.56957444      -1.72011911
H       -2.59857056       0.69207763       0.48840903
H       -1.07335864       0.13658249       1.36526722
13
Frame=6 idx=010128 GeodesicLength=0.3650475320981557 rxn_smarts="[O:1]=[C:2]1[N:3]([H:8])[C:4]([H:9])([H:10])[C@@:5]2([H:11])[C:6]([H:12])([H:13])[N:7]12>>[C:5]1([H:11])=[N:7][C:6]1([H:12])[H:13].[N:3](=[C:4]([H:9])[H:10])[H:8].[O+:1]#[C-:2]"
O        1.53796984       2.53483408       0.38415972
C        1.01361297       1.51879225       0.31901962
N        1.62341584      -0.37435149       0.09042438
C        0.76540846      -1.30606405      -0.25841202
C       -0.94592535      -0.07897909      -0.80288754
C       -1.56474369       0.41388208       0.41224555
N       -0.72104684       1.19093240      -0.54251133
H        1.97291861      -0.43699056       1.03933951
H        0.31715377      -1.96001376       0.49036470
H        0.93385775      -1.79148402      -1.21842574
H       -1.22605865      -0.55433493      -1.73029849
H       -2.60777178       0.70639144       0.45967423
H       -1.09879092       0.13738565       1.35730741
13
Frame=7 idx=010128 GeodesicLength=0.4194812772895503 rxn_smarts="[O:1]=[C:2]1[N:3]([H:8])[C:4]([H:9])([H:10])[C@@:5]2([H:11])[C:6]([H:12])([H:13])[N:7]12>>[C:5]1([H:11])=[N:7][C:6]1([H:12])[H:13].[N:3](=[C:4]([H:9])[H:10])[H:8].[O+:1]#[C-:2]"
O        1.51454474       2.53954000       0.45815343
C        1.01256631       1.51491602       0.34351809
N        1.61615221      -0.36655717       0.04333346
C        0.75443472      -1.31793098      -0.24632924
C       -0.94421972      -0.07770043      -0.80857164
C       -1.57575239       0.42082393       0.39873279
N       -0.71168143       1.19304721      -0.54203460
H        2.05457417      -0.42506616       0.95416933
H        0.34355205      -1.94929941       0.54277100
H        0.91296772      -1.85176921      -1.18258716
H       -1.23412224      -0.53861315      -1.74066919
H       -2.61718444       0.72076078       0.43018591
H       -1.12583168       0.13784857       1.34932783
13
Frame=8 idx=010128 GeodesicLength=0.47204932367624985 rxn_smarts="[O:1]=[C:2]1[N:3]([H:8])[C:4]([H:9])([H:10])[C@@:5]2([H:11])[C:6]([H:12])([H:13])[N:7]12>>[C:5]1([H:11])=[N:7][C:6]1([H:12])[H:13].[N:3](=[C:4]([H:9])[H:10])[H:8].[O+:1]#[C-:2]"
O        1.49243726       2.53891593       0.53172738
C        1.01217420       1.50890109       0.36800867
N        1.60738410      -0.35961347      -0.00277110
C        0.74423283      -1.32895781      -0.23279166
C       -0.94250976      -0.07660410      -0.81389298
C       -1.58669754       0.42759088       0.38536985
N       -0.70216382       1.19484446      -0.54072927
H        2.12916867      -0.41107340       0.86271322
H        0.37288301      -1.93604585       0.59461843
H        0.89371045      -1.90858113      -1.14351577
H       -1.24086978      -0.52265619      -1.75093214
H       -2.62617449       0.73515678       0.40072708
H       -1.15357511       0.13812282       1.34146829
13
Frame=9 idx=010128 GeodesicLength=0.5241274242776197 rxn_smarts="[O:1]=[C:2]1[N:3]([H:8])[C:4]([H:9])([H:10])[C@@:5]2([H:11])[C:6]([H:12])([H:13])[N:7]12>>[C:5]1([H:11])=[N:7][C:6]1([H:12])[H:13].[N:3](=[C:4]([H:9])[H:10])[H:8].[O+:1]#[C-:2]"
O        1.47113773       2.53267899       0.60688167
C        1.01228612       1.50042454       0.39308605
N        1.59713657      -0.35339312      -0.04903391
C        0.73467227      -1.33919387      -0.21726043
C       -0.94082291      -0.07566168      -0.81903976
C       -1.59785973       0.43436178       0.37178763
N       -0.69246699       1.19637244      -0.53873158
H        2.19843356      -0.39501503       0.76299893
H        0.40560752      -1.91933157       0.64714343
H        0.87528460      -1.96294429      -1.10041123
H       -1.24597396      -0.50651504      -1.76139631
H       -2.63499852       0.74987073       0.37057272
H       -1.18243625       0.13834613       1.33340278
13
Frame=10 idx=010128 GeodesicLength=0.5754844803234874 rxn_smarts="[O:1]=[C:2]1[N:3]([H:8])[C:4]([H:9])([H:10])[C@@:5]2([H:11])[C:6]([H:12])([H:13])[N:7]12>>[C:5]1([H:11])=[N:7][C:6]1([H:12])[H:13].[N:3](=[C:4]([H:9])[H:10])[H:8].[O+:1]#[C-:2]"
O        1.45321992       2.52078535       0.67936806
C        1.01250531       1.48951968       0.41977948
N        1.58527327      -0.34758974      -0.09429079
C        0.72601663      -1.34811023      -0.19996184
C       -0.93901865      -0.07457812      -0.82385859
C       -1.60937649       0.44062459       0.35829806
N       -0.68277759       1.19772908      -0.53515677
H        2.25995632      -0.37733777       0.65752272
H        0.44135685      -1.89925260       0.69907264
H        0.85855124      -2.01359355      -1.05398533
H       -1.24909681      -0.48962811      -1.77205059
H       -2.64386850       0.76389484       0.33998927
H       -1.21274152       0.13753657       1.32527368
13
Frame=11 idx=010128 GeodesicLength=0.6263298931483745 rxn_smarts="[O:1]=[C:2]1[N:3]([H:8])[C:4]([H:9])([H:10])[C@@:5]2([H:11])[C:6]([H:12])([H:13])[N:7]12>>[C:5]1([H:11])=[N:7][C:6]1([H:12])[H:13].[N:3](=[C:4]([H:9])[H:10])[H:8].[O+:1]#[C-:2]"
O        1.43701780       2.50453010       0.75062927
C        1.01393886       1.47702472       0.44444313
N        1.57207590      -0.34288558      -0.13756792
C        0.71850728      -1.35627343      -0.18194674
C       -0.93733931      -0.07396019      -0.82831204
C       -1.62011234       0.44686828       0.34525945
N       -0.67300253       1.19863072      -0.53136931
H        2.31027906      -0.35785372       0.55144617
H        0.47962087      -1.87780149       0.74814854
H        0.84489812      -2.06018324      -1.00617319
H       -1.25194038      -0.47317717      -1.78218066
H       -2.65160089       0.77808720       0.31034623
H       -1.24234242       0.13699380       1.31727706
13
Frame=12 idx=010128 GeodesicLength=0.6773222365035335 rxn_smarts="[O:1]=[C:2]1[N:3]([H:8])[C:4]([H:9])([H:10])[C@@:5]2([H:11])[C:6]([H:12])([H:13])[N:7]12>>[C:5]1([H:11])=[N:7][C:6]1([H:12])[H:13].[N:3](=[C:4]([H:9])[H:10])[H:8].[O+:1]#[C-:2]"
O        1.42146928       2.48373111       0.82187404
C        1.01662842       1.46318757       0.46644277
N        1.55754175      -0.33938840      -0.17917921
C        0.71199367      -1.36383013      -0.16324049
C       -0.93583820      -0.07391995      -0.83249001
C       -1.62991140       0.45332821       0.33257873
N       -0.66309303       1.19899672      -0.52788693
H        2.35023357      -0.33654361       0.44538858
H        0.52031794      -1.85511906       0.79445524
H        0.83423094      -2.10315567      -0.95716241
H       -1.25470109      -0.45737688      -1.79178255
H       -2.65796831       0.79287734       0.28167129
H       -1.27090353       0.13721275       1.30933096
13
Frame=13 idx=010128 GeodesicLength=0.7285307802410257 rxn_smarts="[O:1]=[C:2]1[N:3]([H:8])[C:4]([H:9])([H:10])[C@@:5]2([H:11])[C:6]([H:12])([H:13])[N:7]12>>[C:5]1([H:11])=[N:7][C:6]1([H:12])[H:13].[N:3](=[C:4]([H:9])[H:10])[H:8].[O+:1]#[C-:2]"
O        1.40970872       2.45924251       0.88853835
C        1.01966186       1.44795627       0.48846964
N        1.54151134      -0.33641325      -0.21828853
C        0.70634572      -1.37027571      -0.14360680
C       -0.93433162      -0.07381221      -0.83639208
C       -1.63954994       0.45927289       0.32029475
N       -0.65336779       1.19917117      -0.52324067
H        2.38105613      -0.31460262       0.33984780
H        0.56274839      -1.83094965       0.83805836
H        0.82633597      -2.14194253      -0.90710535
H       -1.25638579      -0.44092226      -1.80135097
H       -2.66397736       0.80665485       0.25338576
H       -1.29975562       0.13662052       1.30138974
13
Frame=14 idx=010128 GeodesicLength=0.780156815600321 rxn_smarts="[O:1]=[C:2]1[N:3]([H:8])[C:4]([H:9])([H:10])[C@@:5]2([H:11])[C:6]([H:12])([H:13])[N:7]12>>[C:5]1([H:11])=[N:7][C:6]1([H:12])[H:13].[N:3](=[C:4]([H:9])[H:10])[H:8].[O+:1]#[C-:2]"
O        1.39984189       2.43199580       0.95234389
C        1.02362337       1.43220919       0.50844637
N        1.52443835      -0.33442052      -0.25466262
C        0.70159403      -1.37620415      -0.12371938
C       -0.93307381      -0.07409376      -0.84007035
C       -1.64847476       0.46521363       0.30850128
N       -0.64376462       1.19900677      -0.51858251
H        2.40251502      -0.29197931       0.23773282
H        0.60649941      -1.80675199       0.87797591
H        0.82182758      -2.17703444      -0.85726556
H       -1.25831499      -0.42475548      -1.81045905
H       -2.66904764       0.82045639       0.22620798
H       -1.32766382       0.13635789       1.29355123
13
Frame=15 idx=010128 GeodesicLength=0.8321024945120916 rxn_smarts="[O:1]=[C:2]1[N:3]([H:8])[C:4]([H:9])([H:10])[C@@:5]2([H:11])[C:6]([H:12])([H:13])[N:7]12>>[C:5]1([H:11])=[N:7][C:6]1([H:12])[H:13].[N:3](=[C:4]([H:9])[H:10])[H:8].[O+:1]#[C-:2]"
O        1.38969741       2.40155406       1.01538000
C        1.02874168       1.41650539       0.52478071
N        1.50653987      -0.33359818      -0.28870590
C        0.69764738      -1.38180034      -0.10388522
C       -0.93210736      -0.07506330      -0.84355313
C       -1.65615276       0.47155144       0.29716856
N       -0.63408789       1.19829636      -0.51494721
H        2.41512737      -0.26860601       0.14010528
H        0.65120682      -1.78284166       0.91405678
H        0.82076768      -2.20884224      -0.80801105
H       -1.26116893      -0.40956630      -1.81873872
H       -2.67250578       0.83502381       0.20049501
H       -1.35370548       0.13738698       1.28585489
13
Frame=16 idx=010128 GeodesicLength=0.8845362470919773 rxn_smarts="[O:1]=[C:2]1[N:3]([H:8])[C:4]([H:9])([H:10])[C@@:5]2([H:11])[C:6]([H:12])([H:13])[N:7]12>>[C:5]1([H:11])=[N:7][C:6]1([H:12])[H:13].[N:3](=[C:4]([H:9])[H:10])[H:8].[O+:1]#[C-:2]"
O        1.38227521       2.36913595       1.07417302
C        1.03422497       1.40046054       0.54036006
N        1.48768519      -0.33338991      -0.31994722
C        0.69426466      -1.38675221      -0.08358701
C       -0.93125417      -0.07606022      -0.84689933
C       -1.66351499       0.47757465       0.28620829
N       -0.62465185       1.19741856      -0.51074012
H        2.42062501      -0.24538260       0.04581843
H        0.69666241      -1.75883514       0.94705094
H        0.82238810      -2.23723958      -0.75906240
H       -1.26369370      -0.39386117      -1.82690752
H       -2.67553651       0.84883736       0.17537716
H       -1.37947433       0.13809378       1.27815569
