18
Frame=0 idx=008108 GeodesicLength=0.0 rxn_smarts="[C:1]([C:2]([N:3]([C:4]([H:13])([H:14])[H:15])[C:5](=[O:6])[C:7]([H:16])([H:17])[H:18])([H:11])[H:12])([H:8])([H:9])[H:10]>>[C:1]([C:2](/[N:3]=[C:5](/[O:6][C:4]([H:13])([H:14])[H:15])[C:7]([H:16])([H:17])[H:18])([H:11])[H:12])([H:8])([H:9])[H:10]"
C       -1.86925773      -0.61437938      -0.93960315
C       -0.99433379      -0.96295021       0.25889317
N       -0.01831032       0.05116386       0.56977489
C        0.35304077       1.75418819       1.73058890
C        1.12358324       0.23516929       0.00076775
O        1.78026120       1.22432060       0.43819665
C        1.69976588      -0.59462409      -1.10918946
H       -2.36371836       0.34647568      -0.78739068
H       -2.63693551      -1.37521018      -1.09773485
H       -1.27255042      -0.54297378      -1.85151098
H       -0.50803863      -1.93417408       0.09896166
H       -1.62490266      -1.08922065       1.14391125
H       -0.30613727       1.24373532       2.41903842
H        1.22867129       2.15737496       2.22180886
H       -0.15401592       2.45994873       1.08917743
H        2.75083932      -0.79277623      -0.90607721
H        1.64316706      -0.02902285      -2.04029129
H        1.16887187      -1.53704516      -1.23932144
18
Frame=1 idx=008108 GeodesicLength=0.08769805637798236 rxn_smarts="[C:1]([C:2]([N:3]([C:4]([H:13])([H:14])[H:15])[C:5](=[O:6])[C:7]([H:16])([H:17])[H:18])([H:11])[H:12])([H:8])([H:9])[H:10]>>[C:1]([C:2](/[N:3]=[C:5](/[O:6][C:4]([H:13])([H:14])[H:15])[C:7]([H:16])([H:17])[H:18])([H:11])[H:12])([H:8])([H:9])[H:10]"
C       -1.88286975      -0.61435601      -0.92452003
C       -0.99748758      -0.95412078       0.26736010
N       -0.01859676       0.06185468       0.55751022
C        0.34919458       1.75611908       1.70082530
C        1.14885951       0.19558219       0.02735156
O        1.85124754       1.12128939       0.52976072
C        1.70903549      -0.59140884      -1.12071693
H       -2.46779913       0.28587126      -0.72768797
H       -2.57528375      -1.43098861      -1.14160221
H       -1.29871553      -0.43155807      -1.82887688
H       -0.51440944      -1.92766378       0.11387923
H       -1.61726196      -1.07515802       1.16083693
H       -0.33534655       1.28086199       2.39053864
H        1.19767050       2.19505984       2.20977203
H       -0.13255023       2.45521720       1.03154806
H        2.75605001      -0.82013079      -0.92914633
H        1.66428787       0.01318528      -2.02759542
H        1.16397517      -1.51965602      -1.28923703
18
Frame=2 idx=008108 GeodesicLength=0.17348955989973874 rxn_smarts="[C:1]([C:2]([N:3]([C:4]([H:13])([H:14])[H:15])[C:5](=[O:6])[C:7]([H:16])([H:17])[H:18])([H:11])[H:12])([H:8])([H:9])[H:10]>>[C:1]([C:2](/[N:3]=[C:5](/[O:6][C:4]([H:13])([H:14])[H:15])[C:7]([H:16])([H:17])[H:18])([H:11])[H:12])([H:8])([H:9])[H:10]"
C       -1.89617710      -0.61575621      -0.91163287
C       -1.00317638      -0.94574124       0.27600334
N       -0.02110189       0.07159334       0.54582388
C        0.35045618       1.75743088       1.67017365
C        1.16867010       0.15402580       0.05529717
O        1.90717752       1.01286434       0.62208285
C        1.71810640      -0.58457091      -1.12896614
H       -2.56574235       0.21386021      -0.67648401
H       -2.50812362      -1.47692997      -1.18998334
H       -1.33232831      -0.32478979      -1.80034484
H       -0.52297429      -1.92174511       0.13076082
H       -1.61385645      -1.05926911       1.17681229
H       -0.35448928       1.31807060       2.36398430
H        1.17735204       2.23083561       2.18480898
H       -0.11090680       2.44861762       0.97699395
H        2.76093149      -0.83996943      -0.94864710
H        1.68519354       0.05899372      -2.00915020
H        1.16098921      -1.49752037      -1.33753273
18
Frame=3 idx=008108 GeodesicLength=0.25964979564329793 rxn_smarts="[C:1]([C:2]([N:3]([C:4]([H:13])([H:14])[H:15])[C:5](=[O:6])[C:7]([H:16])([H:17])[H:18])([H:11])[H:12])([H:8])([H:9])[H:10]>>[C:1]([C:2](/[N:3]=[C:5](/[O:6][C:4]([H:13])([H:14])[H:15])[C:7]([H:16])([H:17])[H:18])([H:11])[H:12])([H:8])([H:9])[H:10]"
C       -1.90966811      -0.61806745      -0.90037573
C       -1.01149525      -0.93791732       0.28490737
N       -0.02534393       0.07987853       0.53505766
C        0.35648765       1.75828972       1.63808799
C        1.18317643       0.11052826       0.08398701
O        1.94863944       0.89999419       0.71382333
C        1.72735883      -0.57455423      -1.13375893
H       -2.65909758       0.12947507      -0.63240617
H       -2.43394728      -1.51309861      -1.24364241
H       -1.37430887      -0.22020022      -1.76494701
H       -0.53440785      -1.91656602       0.14913276
H       -1.61460045      -1.04200643       1.19206057
H       -0.36374590       1.35582962       2.33947160
H        1.16831638       2.26429819       2.14683612
H       -0.09002957       2.44013504       0.92447215
H        2.76597627      -0.85295377      -0.96373967
H        1.70661229       0.10768834      -1.98466858
H        1.16007749      -1.47075291      -1.38429806
18
Frame=4 idx=008108 GeodesicLength=0.34612035299622246 rxn_smarts="[C:1]([C:2]([N:3]([C:4]([H:13])([H:14])[H:15])[C:5](=[O:6])[C:7]([H:16])([H:17])[H:18])([H:11])[H:12])([H:8])([H:9])[H:10]>>[C:1]([C:2](/[N:3]=[C:5](/[O:6][C:4]([H:13])([H:14])[H:15])[C:7]([H:16])([H:17])[H:18])([H:11])[H:12])([H:8])([H:9])[H:10]"
C       -1.92312662      -0.62045882      -0.89100407
C       -1.02212217      -0.92987151       0.29385760
N       -0.03077332       0.08686144       0.52482471
C        0.36636845       1.75752369       1.60563253
C        1.19225595       0.06705653       0.11119124
O        1.97532254       0.78850548       0.79937067
C        1.73719323      -0.56261751      -1.13501359
H       -2.74576228       0.03516587      -0.59765006
H       -2.35470266      -1.53695765      -1.30017182
H       -1.42418313      -0.11991034      -1.72325660
H       -0.54865855      -1.91149736       0.16918859
H       -1.61921175      -1.02206771       1.20626475
H       -0.36183645       1.39073425       2.31934887
H        1.17008473       2.29390831       2.09704057
H       -0.07381564       2.42911395       0.87664198
H        2.77216039      -0.85891773      -0.97335542
H        1.72767861       0.15538648      -1.95614485
H        1.16312866      -1.44195736      -1.42676511
18
Frame=5 idx=008108 GeodesicLength=0.43380426879133016 rxn_smarts="[C:1]([C:2]([N:3]([C:4]([H:13])([H:14])[H:15])[C:5](=[O:6])[C:7]([H:16])([H:17])[H:18])([H:11])[H:12])([H:8])([H:9])[H:10]>>[C:1]([C:2](/[N:3]=[C:5](/[O:6][C:4]([H:13])([H:14])[H:15])[C:7]([H:16])([H:17])[H:18])([H:11])[H:12])([H:8])([H:9])[H:10]"
C       -1.93660394      -0.62391887      -0.88376280
C       -1.03529307      -0.92047445       0.30321244
N       -0.03763033       0.09439406       0.51399999
C        0.37999146       1.75550513       1.57389027
C        1.19618522       0.02501018       0.13564027
O        1.98966995       0.67943965       0.87790172
C        1.74713624      -0.54934863      -1.13374535
H       -2.82638191      -0.07166010      -0.57355482
H       -2.26759736      -1.55005068      -1.35963250
H       -1.48295979      -0.02456467      -1.67566045
H       -0.56613607      -1.90565366       0.19272187
H       -1.62818133      -0.99719464       1.21984620
H       -0.34961542       1.42300035       2.30375825
H        1.18237945       2.31786003       2.03889218
H       -0.06131813       2.41785727       0.83538302
H        2.77878762      -0.85977362      -0.97803206
H        1.74872126       0.20131770      -1.92516263
H        1.16884615      -1.41174503      -1.46569560
18
Frame=6 idx=008108 GeodesicLength=0.5224421603294853 rxn_smarts="[C:1]([C:2]([N:3]([C:4]([H:13])([H:14])[H:15])[C:5](=[O:6])[C:7]([H:16])([H:17])[H:18])([H:11])[H:12])([H:8])([H:9])[H:10]>>[C:1]([C:2](/[N:3]=[C:5](/[O:6][C:4]([H:13])([H:14])[H:15])[C:7]([H:16])([H:17])[H:18])([H:11])[H:12])([H:8])([H:9])[H:10]"
C       -1.95005695      -0.62725538      -0.87783161
C       -1.05019270      -0.91013046       0.31292199
N       -0.04500701       0.10137920       0.50294164
C        0.39576788       1.75178852       1.54221204
C        1.19610267      -0.01592789       0.15740112
O        1.99345379       0.57447428       0.94867556
C        1.75764171      -0.53548951      -1.13014175
H       -2.89819522      -0.18821278      -0.55932860
H       -2.17540644      -1.54905680      -1.41927499
H       -1.55084533       0.06516719      -1.62158972
H       -0.58634598      -1.89926363       0.21842877
H       -1.64027806      -0.96838207       1.23274074
H       -0.32907645       1.45216421       2.29188665
H        1.20205393       2.33611294       1.97314492
H       -0.05363455       2.40554891       0.79914470
H        2.78668419      -0.85598401      -0.97805978
H        1.76899709       0.24455950      -1.89254516
H        1.17833743      -1.38149221      -1.50072651
18
Frame=7 idx=008108 GeodesicLength=0.6121065066267504 rxn_smarts="[C:1]([C:2]([N:3]([C:4]([H:13])([H:14])[H:15])[C:5](=[O:6])[C:7]([H:16])([H:17])[H:18])([H:11])[H:12])([H:8])([H:9])[H:10]>>[C:1]([C:2](/[N:3]=[C:5](/[O:6][C:4]([H:13])([H:14])[H:15])[C:7]([H:16])([H:17])[H:18])([H:11])[H:12])([H:8])([H:9])[H:10]"
C       -1.96356972      -0.63101470      -0.87304523
C       -1.06670547      -0.89830276       0.32314154
N       -0.05297044       0.10881485       0.49071715
C        0.41318479       1.74655176       1.51110918
C        1.19244145      -0.05510032       0.17582893
O        1.98854426       0.47376996       1.01171098
C        1.76858686      -0.52143907      -1.12501754
H       -2.95975759      -0.31454591      -0.55535612
H       -2.07829390      -1.53389311      -1.47751924
H       -1.62857185       0.14734484      -1.56151751
H       -0.60923316      -1.89181230       0.24688531
H       -1.65539128      -0.93454976       1.24505843
H       -0.30170724       1.47832469       2.28288048
H        1.22752817       2.34791942       1.90259033
H       -0.04951388       2.39367499       0.76868479
H        2.79551383      -0.84893617      -0.97403874
H        1.78890593       0.28488915      -1.85946894
H        1.19100925      -1.35169555      -1.53264379
18
Frame=8 idx=008108 GeodesicLength=0.7028879167023604 rxn_smarts="[C:1]([C:2]([N:3]([C:4]([H:13])([H:14])[H:15])[C:5](=[O:6])[C:7]([H:16])([H:17])[H:18])([H:11])[H:12])([H:8])([H:9])[H:10]>>[C:1]([C:2](/[N:3]=[C:5](/[O:6][C:4]([H:13])([H:14])[H:15])[C:7]([H:16])([H:17])[H:18])([H:11])[H:12])([H:8])([H:9])[H:10]"
C       -1.97754062      -0.63425113      -0.86836458
C       -1.08426621      -0.88582629       0.33352197
N       -0.06097097       0.11553344       0.47756164
C        0.43121902       1.73980494       1.47942244
C        1.18612150      -0.09345549       0.19154619
O        1.97647464       0.37730895       1.06771587
C        1.78046941      -0.50747406      -1.11809591
H       -3.00879374      -0.44829016      -0.55968629
H       -1.97982137      -1.50163938      -1.53256050
H       -1.71617304       0.22130516      -1.49411396
H       -0.63457046      -1.88375903       0.27581959
H       -1.67230136      -0.89777720       1.25635607
H       -0.26932998       1.50201485       2.27477187
H        1.25611883       2.35412446       1.82722342
H       -0.04857155       2.38158605       0.74166669
H        2.80582558      -0.83883487      -0.96582207
H        1.80849862       0.32239467      -1.82548818
H        1.20761168      -1.32276491      -1.56147427
18
Frame=9 idx=008108 GeodesicLength=0.7944382689347814 rxn_smarts="[C:1]([C:2]([N:3]([C:4]([H:13])([H:14])[H:15])[C:5](=[O:6])[C:7]([H:16])([H:17])[H:18])([H:11])[H:12])([H:8])([H:9])[H:10]>>[C:1]([C:2](/[N:3]=[C:5](/[O:6][C:4]([H:13])([H:14])[H:15])[C:7]([H:16])([H:17])[H:18])([H:11])[H:12])([H:8])([H:9])[H:10]"
C       -1.99261920      -0.63734156      -0.86355054
C       -1.10223116      -0.87273077       0.34379238
N       -0.06902854       0.12215660       0.46228066
C        0.44911207       1.73144495       1.44732428
C        1.17754066      -0.13042718       0.20413263
O        1.95800892       0.28475448       1.11767936
C        1.79394497      -0.49344752      -1.10982608
H       -3.04365888      -0.58415570      -0.57092262
H       -1.88579598      -1.45405861      -1.58120478
H       -1.81273592       0.28340319      -1.42195554
H       -0.66126909      -1.87504763       0.30439369
H       -1.68957768      -0.85853546       1.26683803
H       -0.23366662       1.52313112       2.26668351
H        1.28588287       2.35448840       1.74884710
H       -0.04989294       2.36964823       0.71803799
H        2.81790684      -0.82660807      -0.95311992
H        1.82939215       0.35771005      -1.79110002
H        1.22868754      -1.29438454      -1.58833013
18
Frame=10 idx=008108 GeodesicLength=0.8869415386155269 rxn_smarts="[C:1]([C:2]([N:3]([C:4]([H:13])([H:14])[H:15])[C:5](=[O:6])[C:7]([H:16])([H:17])[H:18])([H:11])[H:12])([H:8])([H:9])[H:10]>>[C:1]([C:2](/[N:3]=[C:5](/[O:6][C:4]([H:13])([H:14])[H:15])[C:7]([H:16])([H:17])[H:18])([H:11])[H:12])([H:8])([H:9])[H:10]"
C       -2.00915754      -0.63919153      -0.85765969
C       -1.12040315      -0.86013497       0.35371175
N       -0.07690322       0.12729652       0.44561133
C        0.46618278       1.72156374       1.41373420
C        1.16740137      -0.16691877       0.21422138
O        1.93418270       0.19619735       1.16197033
C        1.80968108      -0.47942395      -1.09975277
H       -3.06445370      -0.71823883      -0.58708734
H       -1.80047778      -1.39028946      -1.62271532
H       -1.91575523       0.33372595      -1.34399247
H       -0.68903162      -1.86658653       0.33049367
H       -1.70672433      -0.81966604       1.27638930
H       -0.19592855       1.54195594       2.25717053
H        1.31523033       2.35019390       1.66670240
H       -0.05361022       2.35728713       0.69548809
H        2.83263069      -0.81178977      -0.93583054
H        1.85155317       0.39094698      -1.75577245
H        1.25558322      -1.26692767      -1.61268239
18
Frame=11 idx=008108 GeodesicLength=0.980098588786265 rxn_smarts="[C:1]([C:2]([N:3]([C:4]([H:13])([H:14])[H:15])[C:5](=[O:6])[C:7]([H:16])([H:17])[H:18])([H:11])[H:12])([H:8])([H:9])[H:10]>>[C:1]([C:2](/[N:3]=[C:5](/[O:6][C:4]([H:13])([H:14])[H:15])[C:7]([H:16])([H:17])[H:18])([H:11])[H:12])([H:8])([H:9])[H:10]"
C       -2.02748875      -0.63986276      -0.85061902
C       -1.13820109      -0.84847145       0.36303021
N       -0.08454773       0.13095682       0.42718395
C        0.48201363       1.71017620       1.37863265
C        1.15606192      -0.20278315       0.22178744
O        1.90552060       0.11144555       1.20148663
C        1.82802888      -0.46514846      -1.08789476
H       -3.07229433      -0.84472433      -0.60645448
H       -1.72854217      -1.31408601      -1.65604992
H       -2.02253966       0.37122992      -1.26241317
H       -0.71674998      -1.85892611       0.35326531
H       -1.72236373      -0.78250792       1.28543802
H       -0.15695383       1.55869795       2.24589027
H        1.34293085       2.34158032       1.58118568
H       -0.05949306       2.34434157       0.67355910
H        2.85007847      -0.79478125      -0.91352274
H        1.87569668       0.42291110      -1.71937126
H        1.28884329      -1.24004802      -1.63513393
18
Frame=12 idx=008108 GeodesicLength=1.0741908963957907 rxn_smarts="[C:1]([C:2]([N:3]([C:4]([H:13])([H:14])[H:15])[C:5](=[O:6])[C:7]([H:16])([H:17])[H:18])([H:11])[H:12])([H:8])([H:9])[H:10]>>[C:1]([C:2](/[N:3]=[C:5](/[O:6][C:4]([H:13])([H:14])[H:15])[C:7]([H:16])([H:17])[H:18])([H:11])[H:12])([H:8])([H:9])[H:10]"
C       -2.04744794      -0.63902665      -0.84222059
C       -1.15550559      -0.83790921       0.37165736
N       -0.09192805       0.13282095       0.40735261
C        0.49653635       1.69736476       1.34180178
C        1.14378471      -0.23822533       0.22701211
O        1.87275378       0.03037516       1.23643330
C        1.84879788      -0.45058656      -1.07408997
H       -3.06888229      -0.96182652      -0.62843386
H       -1.67111273      -1.22749994      -1.68157091
H       -2.13046084       0.39660533      -1.17736580
H       -0.74422653      -1.85216347       0.37229895
H       -1.73613833      -0.74778623       1.29412285
H       -0.11688855       1.57357932       2.23239710
H        1.36820606       2.32923470       1.49224207
H       -0.06723665       2.33055739       0.65172633
H        2.86984757      -0.77564474      -0.88630766
H        1.90149355       0.45368168      -1.68161650
H        1.32840760      -1.21355062      -1.65543919
18
Frame=13 idx=008108 GeodesicLength=1.1693219429503592 rxn_smarts="[C:1]([C:2]([N:3]([C:4]([H:13])([H:14])[H:15])[C:5](=[O:6])[C:7]([H:16])([H:17])[H:18])([H:11])[H:12])([H:8])([H:9])[H:10]>>[C:1]([C:2](/[N:3]=[C:5](/[O:6][C:4]([H:13])([H:14])[H:15])[C:7]([H:16])([H:17])[H:18])([H:11])[H:12])([H:8])([H:9])[H:10]"
C       -2.06924799      -0.63703838      -0.83262195
C       -1.17217288      -0.82839075       0.37945412
N       -0.09897579       0.13317084       0.38568679
C        0.50990559       1.68315217       1.30344996
C        1.13089259      -0.27297175       0.22969435
O        1.83652792      -0.04733087       1.26710806
C        1.87196406      -0.43544996      -1.05834033
H       -3.05688816      -1.06730231      -0.65191146
H       -1.62950833      -1.13444169      -1.69953924
H       -2.23748581       0.41024945      -1.09088235
H       -0.77116542      -1.84632918       0.38791141
H       -1.74744842      -0.71558605       1.30266588
H       -0.07575478       1.58645352       2.21662107
H        1.39068486       2.31347707       1.40063934
H       -0.07634034       2.31602197       0.63016672
H        2.89164784      -0.75458265      -0.85401375
H        1.92921123       0.48388695      -1.64241899
H        1.37415382      -1.18698837      -1.67366963
18
Frame=14 idx=008108 GeodesicLength=1.2660507501551193 rxn_smarts="[C:1]([C:2]([N:3]([C:4]([H:13])([H:14])[H:15])[C:5](=[O:6])[C:7]([H:16])([H:17])[H:18])([H:11])[H:12])([H:8])([H:9])[H:10]>>[C:1]([C:2](/[N:3]=[C:5](/[O:6][C:4]([H:13])([H:14])[H:15])[C:7]([H:16])([H:17])[H:18])([H:11])[H:12])([H:8])([H:9])[H:10]"
C       -2.09232227      -0.63373925      -0.82189280
C       -1.18818298      -0.81981129       0.38646192
N       -0.10571769       0.13187083       0.36266702
C        0.52234601       1.66766381       1.26352596
C        1.11744614      -0.30719783       0.22998883
O        1.79738998      -0.12183979       1.29350660
C        1.89681383      -0.41985760      -1.04050745
H       -3.03755186      -1.16163602      -0.67757423
H       -1.60207105      -1.03608152      -1.71066569
H       -2.34235881       0.41347260      -1.00251480
H       -0.79762379      -1.84131364       0.40037594
H       -1.75631650      -0.68575878       1.31104645
H       -0.03300004       1.59755863       2.19857173
H        1.41010457       2.29487974       1.30602908
H       -0.08671311       2.30051951       0.60885355
H        2.91451370      -0.73186321      -0.81690678
H        1.95790445       0.51341144      -1.60154261
H        1.42533942      -1.16027762      -1.68942271
18
Frame=15 idx=008108 GeodesicLength=1.3648694118792173 rxn_smarts="[C:1]([C:2]([N:3]([C:4]([H:13])([H:14])[H:15])[C:5](=[O:6])[C:7]([H:16])([H:17])[H:18])([H:11])[H:12])([H:8])([H:9])[H:10]>>[C:1]([C:2](/[N:3]=[C:5](/[O:6][C:4]([H:13])([H:14])[H:15])[C:7]([H:16])([H:17])[H:18])([H:11])[H:12])([H:8])([H:9])[H:10]"
C       -2.11704571      -0.62947079      -0.81011028
C       -1.20360702      -0.81194244       0.39269358
N       -0.11209836       0.12914620       0.33780366
C        0.53403295       1.65083726       1.22214920
C        1.10382146      -0.34087364       0.22766875
O        1.75588283      -0.19383008       1.31580487
C        1.92354720      -0.40355316      -1.02069322
H       -3.01360509      -1.24419761      -0.70423859
H       -1.58885102      -0.93509474      -1.71542057
H       -2.44407962       0.40697761      -0.91400818
H       -0.82360850      -1.83696770       0.41040112
H       -1.76263873      -0.65779017       1.31951555
H        0.01130623       1.60655346       2.17810881
H        1.42624691       2.27370564       1.20922549
H       -0.09787901       2.28415244       0.58791155
H        2.93854534      -0.70744974      -0.77504838
H        1.98785384       0.54278771      -1.55905207
H        1.48217629      -1.13299027      -1.70271129
18
Frame=16 idx=008108 GeodesicLength=1.4665168578788736 rxn_smarts="[C:1]([C:2]([N:3]([C:4]([H:13])([H:14])[H:15])[C:5](=[O:6])[C:7]([H:16])([H:17])[H:18])([H:11])[H:12])([H:8])([H:9])[H:10]>>[C:1]([C:2](/[N:3]=[C:5](/[O:6][C:4]([H:13])([H:14])[H:15])[C:7]([H:16])([H:17])[H:18])([H:11])[H:12])([H:8])([H:9])[H:10]"
C       -2.14287029      -0.62387716      -0.79722709
C       -1.21845434      -0.80472135       0.39831145
N       -0.11818504       0.12477617       0.31168895
C        0.54516110       1.63273730       1.17906325
C        1.09000132      -0.37429042       0.22299196
O        1.71235987      -0.26342292       1.33406608
C        1.95143745      -0.38672161      -0.99868917
H       -2.98522924      -1.31607525      -0.73326051
H       -1.58778896      -0.83136329      -1.71416208
H       -2.54217217       0.39193482      -0.82438359
H       -0.84923812      -1.83321285       0.41817674
H       -1.76656183      -0.63157404       1.32816219
H        0.05786567       1.61373061       2.15512220
H        1.43883092       2.25034234       1.10924455
H       -0.10994880       2.26653565       0.56725519
H        2.96275431      -0.68161446      -0.72860609
H        2.01812531       0.57180087      -1.51466905
H        1.54391284      -1.10498440      -1.71308498
