16
Frame=0 idx=003018 GeodesicLength=0.0 rxn_smarts="[C:1]([C@@:2]1([H:10])[C:3]([H:11])([H:12])[C:4]([H:13])([H:14])[C@:5]1([O:6][H:16])[H:15])([H:7])([H:8])[H:9]>>[C:1]([C:2]([C:3]([C:4]([C:5](=[O:6])[H:15])([H:13])[H:14])([H:11])[H:12])([H:10])[H:16])([H:7])([H:8])[H:9]"
C        1.51045098      -0.91083172      -0.21365324
C        0.39507428      -0.32053202       0.64251055
C        0.16458486       1.18210375       0.41491504
C       -1.00644762       1.03554114      -0.56378109
C       -1.37428597      -0.33723508      -0.02304697
O       -1.56668089      -1.40988847      -0.78499771
H        1.55832464      -1.99944050      -0.14094903
H        1.37827202      -0.65515123      -1.26727287
H        2.47303830      -0.51133727       0.11441332
H        0.46438399      -0.63699830       1.68204915
H       -0.14583465       1.67393764       1.33665734
H        1.03846012       1.70609911       0.02604899
H       -1.80263314       1.77731586      -0.50390565
H       -0.67768719       0.93914229      -1.59856255
H       -1.92911251      -0.28203573       0.92752669
H       -0.47990719      -1.25068951      -0.04795200
16
Frame=1 idx=003018 GeodesicLength=0.09232704461237141 rxn_smarts="[C:1]([C@@:2]1([H:10])[C:3]([H:11])([H:12])[C:4]([H:13])([H:14])[C@:5]1([O:6][H:16])[H:15])([H:7])([H:8])[H:9]>>[C:1]([C:2]([C:3]([C:4]([C:5](=[O:6])[H:15])([H:13])[H:14])([H:11])[H:12])([H:10])[H:16])([H:7])([H:8])[H:9]"
C        1.51244107      -0.90606110      -0.21894177
C        0.39598234      -0.32575163       0.64280467
C        0.16405443       1.17816183       0.42125374
C       -0.99982818       1.03548665      -0.56725125
C       -1.38538346      -0.33144447      -0.02656118
O       -1.57710420      -1.40629304      -0.78214026
H        1.57412828      -1.99353214      -0.14031767
H        1.36787495      -0.65903337      -1.27295054
H        2.47439467      -0.49646009       0.09827552
H        0.48015500      -0.63619059       1.68334672
H       -0.15303000       1.66585339       1.34310354
H        1.03688014       1.70932369       0.03993194
H       -1.79038803       1.78387806      -0.51406078
H       -0.66503526       0.93311619      -1.59947208
H       -1.94814855      -0.27003739       0.91919788
H       -0.48699319      -1.28101599      -0.02621848
16
Frame=2 idx=003018 GeodesicLength=0.18453968849058405 rxn_smarts="[C:1]([C@@:2]1([H:10])[C:3]([H:11])([H:12])[C:4]([H:13])([H:14])[C@:5]1([O:6][H:16])[H:15])([H:7])([H:8])[H:9]>>[C:1]([C:2]([C:3]([C:4]([C:5](=[O:6])[H:15])([H:13])[H:14])([H:11])[H:12])([H:10])[H:16])([H:7])([H:8])[H:9]"
C        1.51431138      -0.90130933      -0.22425937
C        0.39682022      -0.33105556       0.64306836
C        0.16348084       1.17415494       0.42756301
C       -0.99322196       1.03552666      -0.57066327
C       -1.39662766      -0.32538018      -0.03031738
O       -1.58655163      -1.40306308      -0.77883080
H        1.58959660      -1.98747264      -0.14004177
H        1.35755454      -0.66295102      -1.27847543
H        2.47542445      -0.48174416       0.08221529
H        0.49611528      -0.63528386       1.68441297
H       -0.16024643       1.65765488       1.34948819
H        1.03520510       1.71240570       0.05384159
H       -1.77800656       1.79052953      -0.52404446
H       -0.65256636       0.92714046      -1.60029954
H       -1.96733966      -0.25784660       0.91048435
H       -0.49394815      -1.31130575      -0.00414172
16
Frame=3 idx=003018 GeodesicLength=0.27669032591942827 rxn_smarts="[C:1]([C@@:2]1([H:10])[C:3]([H:11])([H:12])[C:4]([H:13])([H:14])[C@:5]1([O:6][H:16])[H:15])([H:7])([H:8])[H:9]>>[C:1]([C:2]([C:3]([C:4]([C:5](=[O:6])[H:15])([H:13])[H:14])([H:11])[H:12])([H:10])[H:16])([H:7])([H:8])[H:9]"
C        1.51607969      -0.89656066      -0.22960639
C        0.39757610      -0.33646142       0.64328749
C        0.16285762       1.17006806       0.43384218
C       -0.98662642       1.03565944      -0.57402770
C       -1.40805526      -0.31901031      -0.03431174
O       -1.59512805      -1.40018934      -0.77498684
H        1.60477853      -1.98125821      -0.14011989
H        1.34734801      -0.66687447      -1.28385526
H        2.47614000      -0.46716032       0.06626090
H        0.51222511      -0.63431396       1.68521797
H       -0.16748879       1.64932311       1.35581298
H        1.03342889       1.71533794       0.06778860
H       -1.76546207       1.79728940      -0.53388024
H       -0.64028011       0.92119313      -1.60105545
H       -1.98667896      -0.24541942       0.90141631
H       -0.50071431      -1.34162299       0.01821708
16
Frame=4 idx=003018 GeodesicLength=0.36878492967462273 rxn_smarts="[C:1]([C@@:2]1([H:10])[C:3]([H:11])([H:12])[C:4]([H:13])([H:14])[C@:5]1([O:6][H:16])[H:15])([H:7])([H:8])[H:9]>>[C:1]([C:2]([C:3]([C:4]([C:5](=[O:6])[H:15])([H:13])[H:14])([H:11])[H:12])([H:10])[H:16])([H:7])([H:8])[H:9]"
C        1.51776160      -0.89180034      -0.23498349
C        0.39824125      -0.34198416       0.64344900
C        0.16217857       1.16588763       0.44009009
C       -0.98003758       1.03588307      -0.57735584
C       -1.41969673      -0.31230936      -0.03854421
O       -1.60293306      -1.39765759      -0.77053181
H        1.61971785      -1.97488348      -0.14055030
H        1.33728753      -0.67077876      -1.28909791
H        2.47655134      -0.45268403       0.05043746
H        0.52844795      -0.63331094       1.68573712
H       -0.17476393       1.64084073       1.36207822
H        1.03154607       1.71811465       0.08178434
H       -1.75273430       1.80417810      -0.54358906
H       -0.62817358       0.91525631      -1.60175140
H       -2.00615657      -0.23271751       0.89201794
H       -0.50723640      -1.37203432       0.04080985
16
Frame=5 idx=003018 GeodesicLength=0.46084350111449 rxn_smarts="[C:1]([C@@:2]1([H:10])[C:3]([H:11])([H:12])[C:4]([H:13])([H:14])[C@:5]1([O:6][H:16])[H:15])([H:7])([H:8])[H:9]>>[C:1]([C:2]([C:3]([C:4]([C:5](=[O:6])[H:15])([H:13])[H:14])([H:11])[H:12])([H:10])[H:16])([H:7])([H:8])[H:9]"
C        1.51937324      -0.88701041      -0.24039110
C        0.39880414      -0.34764154       0.64353731
C        0.16143645       1.16159833       0.44630593
C       -0.97345337       1.03619392      -0.58065754
C       -1.43158552      -0.30524166      -0.04301458
O       -1.61006664      -1.39544950      -0.76537776
H        1.63446013      -1.96833673      -0.14132995
H        1.32740784      -0.67463570      -1.29421394
H        2.47667006      -0.43828582       0.03477091
H        0.54473894      -0.63231047       1.68594288
H       -0.18207854       1.63218789       1.36828476
H        1.02954759       1.72072702       0.09583945
H       -1.73978731       1.81120589      -0.55319501
H       -0.61624989       0.90930598      -1.60239688
H       -2.02576566      -0.21968795       0.88231451
H       -0.51345146      -1.40261926       0.06358100
16
Frame=6 idx=003018 GeodesicLength=0.5529012174843311 rxn_smarts="[C:1]([C@@:2]1([H:10])[C:3]([H:11])([H:12])[C:4]([H:13])([H:14])[C@:5]1([O:6][H:16])[H:15])([H:7])([H:8])[H:9]>>[C:1]([C:2]([C:3]([C:4]([C:5](=[O:6])[H:15])([H:13])[H:14])([H:11])[H:12])([H:10])[H:16])([H:7])([H:8])[H:9]"
C        1.52092669      -0.88217714      -0.24583003
C        0.39924933      -0.35345100       0.64353338
C        0.16062363       1.15718576       0.45248764
C       -0.96686817       1.03659300      -0.58394686
C       -1.44376022      -0.29776754      -0.04772786
O       -1.61661466      -1.39354783      -0.75941803
H        1.64905131      -1.96160798      -0.14245599
H        1.31774183      -0.67841841      -1.29921419
H        2.47650276      -0.42393857       0.01929007
H        0.56104759      -0.63134784       1.68580856
H       -0.18943978       1.62334580       1.37443212
H        1.02742721       1.72316687       0.10996643
H       -1.72659867       1.81839839      -0.56272249
H       -0.60450997       0.90332100      -1.60300492
H       -2.04549722      -0.20627795       0.87233471
H       -0.51928166      -1.43347655       0.08646746
16
Frame=7 idx=003018 GeodesicLength=0.644982622023773 rxn_smarts="[C:1]([C@@:2]1([H:10])[C:3]([H:11])([H:12])[C:4]([H:13])([H:14])[C@:5]1([O:6][H:16])[H:15])([H:7])([H:8])[H:9]>>[C:1]([C:2]([C:3]([C:4]([C:5](=[O:6])[H:15])([H:13])[H:14])([H:11])[H:12])([H:10])[H:16])([H:7])([H:8])[H:9]"
C        1.52243566      -0.87728221      -0.25130158
C        0.39956275      -0.35943187       0.64341771
C        0.15973071       1.15263289       0.45863312
C       -0.96027921       1.03707821      -0.58723550
C       -1.45625698      -0.28984874      -0.05269398
O       -1.62267098      -1.39192942      -0.75254293
H        1.66353744      -1.95468133      -0.14392723
H        1.30832270      -0.68210056      -1.30411190
H        2.47605861      -0.40961080       0.00401987
H        0.57732162      -0.63046047       1.68530847
H       -0.19685731       1.61429210       1.38052060
H        1.02517517       1.72542501       0.12417901
H       -1.71313065       1.82577622      -0.57219782
H       -0.59295773       0.89727665      -1.60358723
H       -2.06534725      -0.19242333       0.86209922
H       -0.52464455      -1.46471235       0.10942016
16
Frame=8 idx=003018 GeodesicLength=0.7370860395407498 rxn_smarts="[C:1]([C@@:2]1([H:10])[C:3]([H:11])([H:12])[C:4]([H:13])([H:14])[C@:5]1([O:6][H:16])[H:15])([H:7])([H:8])[H:9]>>[C:1]([C:2]([C:3]([C:4]([C:5](=[O:6])[H:15])([H:13])[H:14])([H:11])[H:12])([H:10])[H:16])([H:7])([H:8])[H:9]"
C        1.52391041      -0.87231205      -0.25680880
C        0.39972970      -0.36560083       0.64317295
C        0.15874841       1.14792578       0.46474078
C       -0.95368101       1.03764987      -0.59053800
C       -1.46911132      -0.28144414      -0.05792084
O       -1.62831858      -1.39057054      -0.74463061
H        1.67795959      -1.94754092      -0.14574320
H        1.29918183      -0.68565607      -1.30892040
H        2.47534492      -0.39527604      -0.01101218
H        0.59350731      -0.62968383       1.68442209
H       -0.20434297       1.60500831       1.38654954
H        1.02278259       1.72749268       0.13849186
H       -1.69935135       1.83335474      -0.58164785
H       -0.58159756       0.89114812      -1.60415598
H       -2.08531068      -0.17805685       0.85162865
H       -0.52945129      -1.49643824       0.13237201
16
Frame=9 idx=003018 GeodesicLength=0.8292599237657788 rxn_smarts="[C:1]([C@@:2]1([H:10])[C:3]([H:11])([H:12])[C:4]([H:13])([H:14])[C@:5]1([O:6][H:16])[H:15])([H:7])([H:8])[H:9]>>[C:1]([C:2]([C:3]([C:4]([C:5](=[O:6])[H:15])([H:13])[H:14])([H:11])[H:12])([H:10])[H:16])([H:7])([H:8])[H:9]"
C        1.52535715      -0.86724805      -0.26235487
C        0.39973591      -0.37197318       0.64277836
C        0.15766718       1.14304756       0.47080545
C       -0.94706531       1.03831273      -0.59386808
C       -1.48235679      -0.27252146      -0.06343825
O       -1.63364362      -1.38943908      -0.73556477
H        1.69235097      -1.94016479      -0.14790521
H        1.29034530      -0.68906255      -1.31365818
H        2.47436616      -0.38090323      -0.02579358
H        0.60954635      -0.62905067       1.68312467
H       -0.21191347       1.59547183       1.39251516
H        1.02023854       1.72935524       0.15292181
H       -1.68521493       1.84115407      -0.59108803
H       -0.57042798       0.88492872      -1.60472804
H       -2.10538911      -0.16312011       0.84092309
H       -0.53359636      -1.52878704       0.15533048
16
Frame=10 idx=003018 GeodesicLength=0.9214748733057367 rxn_smarts="[C:1]([C@@:2]1([H:10])[C:3]([H:11])([H:12])[C:4]([H:13])([H:14])[C@:5]1([O:6][H:16])[H:15])([H:7])([H:8])[H:9]>>[C:1]([C:2]([C:3]([C:4]([C:5](=[O:6])[H:15])([H:13])[H:14])([H:11])[H:12])([H:10])[H:16])([H:7])([H:8])[H:9]"
C        1.52678879      -0.86207511      -0.26793938
C        0.39956524      -0.37857034       0.64221286
C        0.15647387       1.13798116       0.47682667
C       -0.94043037       1.03905920      -0.59723939
C       -1.49603301      -0.26302675      -0.06925137
O       -1.63873324      -1.38849993      -0.72518624
H        1.70675933      -1.93253509      -0.15040819
H        1.28185028      -0.69229211      -1.31833896
H        2.47312850      -0.36646425      -0.04028701
H        0.62538086      -0.62860311       1.68140052
H       -0.21958270       1.58566003       1.39841659
H        1.01752850       1.73100364       0.16748255
H       -1.67068397       1.84918700      -0.60055538
H       -0.55946468       0.87857434      -1.60531239
H       -2.12557668      -0.14751634       0.83000639
H       -0.53697069      -1.56188232       0.17817273
16
Frame=11 idx=003018 GeodesicLength=1.0137184111705877 rxn_smarts="[C:1]([C@@:2]1([H:10])[C:3]([H:11])([H:12])[C:4]([H:13])([H:14])[C@:5]1([O:6][H:16])[H:15])([H:7])([H:8])[H:9]>>[C:1]([C:2]([C:3]([C:4]([C:5](=[O:6])[H:15])([H:13])[H:14])([H:11])[H:12])([H:10])[H:16])([H:7])([H:8])[H:9]"
C        1.52821370      -0.85677846      -0.27356352
C        0.39920115      -0.38541345       0.64145415
C        0.15515379       1.13270797       0.48280182
C       -0.93377177       1.03988542      -0.60066851
C       -1.51018030      -0.25291381      -0.07538161
O       -1.64367252      -1.38771159      -0.71332694
H        1.72122623      -1.92463054      -0.15325135
H        1.27372816      -0.69531869      -1.32297786
H        2.47163431      -0.35193238      -0.05446461
H        0.64095238      -0.62837941       1.67923442
H       -0.22737192       1.57554647       1.40425119
H        1.01463632       1.73242398       0.18219357
H       -1.65571742       1.85747150      -0.61008431
H       -0.54871409       0.87205309      -1.60592379
H       -2.14587180      -0.13115182       0.81889283
H       -0.53944623      -1.59585829       0.20081452
16
Frame=12 idx=003018 GeodesicLength=1.1059667650558254 rxn_smarts="[C:1]([C@@:2]1([H:10])[C:3]([H:11])([H:12])[C:4]([H:13])([H:14])[C@:5]1([O:6][H:16])[H:15])([H:7])([H:8])[H:9]>>[C:1]([C:2]([C:3]([C:4]([C:5](=[O:6])[H:15])([H:13])[H:14])([H:11])[H:12])([H:10])[H:16])([H:7])([H:8])[H:9]"
C        1.52964011      -0.85134185      -0.27922806
C        0.39862799      -0.39252284       0.64048081
C        0.15369106       1.12720836       0.48872758
C       -0.92708496       1.04078631      -0.60417116
C       -1.52483703      -0.24213821      -0.08185313
O       -1.64854565      -1.38702473      -0.69980213
H        1.73579032      -1.91642890      -0.15643271
H        1.26601144      -0.69811745      -1.32759290
H        2.46988709      -0.33727908      -0.06829979
H        0.65620172      -0.62841952       1.67661314
H       -0.23530547       1.56510514       1.41001428
H        1.01154464       1.73360265       0.19707398
H       -1.64026705       1.86601903      -0.61970610
H       -0.53818603       0.86533312      -1.60657669
H       -2.16627677      -0.11392674       0.80758430
H       -0.54089139      -1.63085528       0.22316860
16
Frame=13 idx=003018 GeodesicLength=1.1981965936455181 rxn_smarts="[C:1]([C@@:2]1([H:10])[C:3]([H:11])([H:12])[C:4]([H:13])([H:14])[C@:5]1([O:6][H:16])[H:15])([H:7])([H:8])[H:9]>>[C:1]([C:2]([C:3]([C:4]([C:5](=[O:6])[H:15])([H:13])[H:14])([H:11])[H:12])([H:10])[H:16])([H:7])([H:8])[H:9]"
C        1.53107587      -0.84575226      -0.28493278
C        0.39783068      -0.39992029       0.63927167
C        0.15206808       1.12146102       0.49460140
C       -0.92036357       1.04175302      -0.60776496
C       -1.54004333      -0.23065582      -0.08869282
O       -1.65344241      -1.38638127      -0.68440830
H        1.75049099      -1.90790491      -0.15994852
H        1.25873332      -0.70066452      -1.33220033
H        2.46789079      -0.32247573      -0.08176451
H        0.67106872      -0.62876464       1.67352661
H       -0.24341129       1.55430603       1.41569995
H        1.00823377       1.73452442       0.21214409
H       -1.62428962       1.87484355      -0.62945760
H       -0.52789006       0.85837717      -1.60728593
H       -2.18679460      -0.09572778       0.79608493
H       -0.54115734      -1.66701798       0.24512712
16
Frame=14 idx=003018 GeodesicLength=1.2903963927926545 rxn_smarts="[C:1]([C@@:2]1([H:10])[C:3]([H:11])([H:12])[C:4]([H:13])([H:14])[C@:5]1([O:6][H:16])[H:15])([H:7])([H:8])[H:9]>>[C:1]([C:2]([C:3]([C:4]([C:5](=[O:6])[H:15])([H:13])[H:14])([H:11])[H:12])([H:10])[H:16])([H:7])([H:8])[H:9]"
C        1.53252980      -0.83999255      -0.29067556
C        0.39679484      -0.40762825       0.63780693
C        0.15026426       1.11544390       0.50041892
C       -0.91360505       1.04277397      -0.61146667
C       -1.55584027      -0.21842181      -0.09593115
O       -1.65845421      -1.38570963      -0.66690679
H        1.76536906      -1.89903344      -0.16379696
H        1.25193155      -0.70293256      -1.33681812
H        2.46564738      -0.30749447      -0.09482722
H        0.68549208      -0.62945768       1.66996945
H       -0.25172168       1.54311778       1.42130128
H        1.00467891       1.73517211       0.22742448
H       -1.60773098       1.88395012      -0.63937661
H       -0.51784139       0.85114043      -1.60806622
H       -2.20742892      -0.07642378       0.78438780
H       -0.54008537      -1.70450414       0.26655643
16
Frame=15 idx=003018 GeodesicLength=1.3825511923320852 rxn_smarts="[C:1]([C@@:2]1([H:10])[C:3]([H:11])([H:12])[C:4]([H:13])([H:14])[C@:5]1([O:6][H:16])[H:15])([H:7])([H:8])[H:9]>>[C:1]([C:2]([C:3]([C:4]([C:5](=[O:6])[H:15])([H:13])[H:14])([H:11])[H:12])([H:10])[H:16])([H:7])([H:8])[H:9]"
C        1.53401102      -0.83404906      -0.29645348
C        0.39550841      -0.41567082       0.63606719
C        0.14825694       1.10913244       0.50617697
C       -0.90680679       1.04383155      -0.61529371
C       -1.57226846      -0.20539719      -0.10360049
O       -1.66367892      -1.38492377      -0.64703735
H        1.78046446      -1.88978673      -0.16797358
H        1.24564487      -0.70489587      -1.34146329
H        2.46315953      -0.29230766      -0.10745500
H        0.69941540      -0.63054169       1.66593901
H       -0.26027514       1.53150523       1.42681014
H        1.00085144       1.73552714       0.24293662
H       -1.59053816       1.89334010      -0.64950568
H       -0.50805476       0.84357390      -1.60893202
H       -2.22818501      -0.05587107       0.77248226
H       -0.53750482      -1.74346650       0.28730243
16
Frame=16 idx=003018 GeodesicLength=1.474680201594493 rxn_smarts="[C:1]([C@@:2]1([H:10])[C:3]([H:11])([H:12])[C:4]([H:13])([H:14])[C@:5]1([O:6][H:16])[H:15])([H:7])([H:8])[H:9]>>[C:1]([C:2]([C:3]([C:4]([C:5](=[O:6])[H:15])([H:13])[H:14])([H:11])[H:12])([H:10])[H:16])([H:7])([H:8])[H:9]"
C        1.53552968      -0.82790712      -0.30226293
C        0.39396123      -0.42407378       0.63403552
C        0.14602103       1.10249952       0.51187222
C       -0.89996513       1.04490373      -0.61926425
C       -1.58936911      -0.19154616      -0.11173764
O       -1.66921795      -1.38391699      -0.62450875
H        1.79582082      -1.88013589      -0.17247273
H        1.23991373      -0.70653040      -1.34615455
H        2.46043036      -0.27688600      -0.11961729
H        0.71278325      -0.63206149       1.66143855
H       -0.26911476       1.51942988       1.43221627
H        0.99671995       1.73557003       0.25870386
H       -1.57265747       1.90300759      -0.65988768
H       -0.49854733       0.83562291      -1.60989723
H       -2.24907407      -0.03390985       0.76034389
H       -0.53323425      -1.78406599       0.30719274
