18
Frame=0 idx=007882 GeodesicLength=0.0 rxn_smarts="[C:1]([C:2]([C:3]([H:12])([H:13])[H:14])([C@@:4]([C:5]([H:16])([H:17])[H:18])([C:6]#[N:7])[H:15])[H:11])([H:8])([H:9])[H:10]>>[C:1]([C:2]([C:3]([N:7]=[C:6]=[C:4]([C:5]([H:16])([H:17])[H:18])[H:15])([H:13])[H:14])([H:11])[H:12])([H:8])([H:9])[H:10]"
C        1.85962817      -0.54787406       0.26626964
C        0.85656002       0.58052446       0.28996969
C        0.73922283       1.48823039      -0.80738996
C       -1.10004380      -0.94364336      -0.17763334
C       -2.17520761      -0.73288946       0.85655848
C       -1.05528958      -0.19550211      -1.31114378
N       -0.80195765       0.60711011      -2.13676037
H        1.64595190      -1.25640066       1.06308697
H        2.88362038      -0.18934465       0.39966012
H        1.81211954      -1.07994907      -0.68420852
H        0.26238745       0.76044287       1.17474364
H        1.54844099       1.67811673       0.25321590
H        0.11298476       2.36348560      -0.72977987
H        1.43319183       1.42001703      -1.63193316
H       -0.64837003      -1.92878791      -0.23409556
H       -3.05736693      -1.35867184       0.68761817
H       -1.80342911      -0.97072649       1.85748781
H       -2.51244321       0.30586249       0.86433418
18
Frame=1 idx=007882 GeodesicLength=0.051265591754602054 rxn_smarts="[C:1]([C:2]([C:3]([H:12])([H:13])[H:14])([C@@:4]([C:5]([H:16])([H:17])[H:18])([C:6]#[N:7])[H:15])[H:11])([H:8])([H:9])[H:10]>>[C:1]([C:2]([C:3]([N:7]=[C:6]=[C:4]([C:5]([H:16])([H:17])[H:18])[H:15])([H:13])[H:14])([H:11])[H:12])([H:8])([H:9])[H:10]"
C        1.87369028      -0.54881540       0.24960173
C        0.85736442       0.56742772       0.29512891
C        0.72687594       1.48853780      -0.79526605
C       -1.09048597      -0.94272260      -0.15872525
C       -2.18904584      -0.71674914       0.84855457
C       -1.04118415      -0.22309219      -1.31251431
N       -0.78549612       0.58189850      -2.13551326
H        1.68878552      -1.26125200       1.05044461
H        2.89598558      -0.17807314       0.36006602
H        1.81339747      -1.08014648      -0.70066767
H        0.27882979       0.73679918       1.19261683
H        1.54322386       1.68027576       0.26698771
H        0.09051747       2.35579870      -0.70289328
H        1.42147563       1.43901082      -1.62126851
H       -0.65294854      -1.93522951      -0.19918591
H       -3.06763721      -1.34367924       0.66719547
H       -1.83958858      -0.94261991       1.86008476
H       -2.52375955       0.32263114       0.83535363
18
Frame=2 idx=007882 GeodesicLength=0.10189837664377296 rxn_smarts="[C:1]([C:2]([C:3]([H:12])([H:13])[H:14])([C@@:4]([C:5]([H:16])([H:17])[H:18])([C:6]#[N:7])[H:15])[H:11])([H:8])([H:9])[H:10]>>[C:1]([C:2]([C:3]([N:7]=[C:6]=[C:4]([C:5]([H:16])([H:17])[H:18])[H:15])([H:13])[H:14])([H:11])[H:12])([H:8])([H:9])[H:10]"
C        1.88672755      -0.54967173       0.23351393
C        0.85789445       0.55442492       0.30040499
C        0.71446265       1.48841552      -0.78320739
C       -1.08143127      -0.94150716      -0.14065412
C       -2.20164726      -0.70079415       0.84031356
C       -1.02743548      -0.25008547      -1.31354335
N       -0.76921202       0.55727844      -2.13388737
H        1.73012505      -1.26553635       1.03765541
H        2.90664304      -0.16680717       0.32167388
H        1.81417353      -1.08055034      -0.71625259
H        0.29511279       0.71359373       1.21005399
H        1.53809058       1.68222679       0.28059461
H        0.06864091       2.34776719      -0.67634808
H        1.40929757       1.45685208      -1.61054833
H       -0.65775129      -1.94075576      -0.16539398
H       -3.07642372      -1.32929684       0.64765494
H       -1.87350584      -0.91437534       1.86145297
H       -2.53376123       0.33882166       0.80651696
18
Frame=3 idx=007882 GeodesicLength=0.1519397142061535 rxn_smarts="[C:1]([C:2]([C:3]([H:12])([H:13])[H:14])([C@@:4]([C:5]([H:16])([H:17])[H:18])([C:6]#[N:7])[H:15])[H:11])([H:8])([H:9])[H:10]>>[C:1]([C:2]([C:3]([N:7]=[C:6]=[C:4]([C:5]([H:16])([H:17])[H:18])[H:15])([H:13])[H:14])([H:11])[H:12])([H:8])([H:9])[H:10]"
C        1.89875333      -0.55044657       0.21808181
C        0.85815279       0.54158280       0.30574296
C        0.70209481       1.48791890      -0.77133635
C       -1.07285404      -0.93998625      -0.12344043
C       -2.21306617      -0.68515518       0.83193753
C       -1.01417909      -0.27629793      -1.31423375
N       -0.75317815       0.53336763      -2.13192972
H        1.76985343      -1.26924794       1.02485132
H        2.91566388      -0.15560904       0.28465979
H        1.81447795      -1.08116478      -0.73092267
H        0.31115664       0.69096605       1.22696996
H        1.53311106       1.68403617       0.29396099
H        0.04757060       2.33958004      -0.65032552
H        1.39680356       1.47346879      -1.59991363
H       -0.66279564      -1.94541391      -0.13293270
H       -3.08381995      -1.31564602       0.62904337
H       -1.90516212      -0.88626701       1.86173239
H       -2.54258289       0.35431425       0.77805464
18
Frame=4 idx=007882 GeodesicLength=0.2013435504719029 rxn_smarts="[C:1]([C:2]([C:3]([H:12])([H:13])[H:14])([C@@:4]([C:5]([H:16])([H:17])[H:18])([C:6]#[N:7])[H:15])[H:11])([H:8])([H:9])[H:10]>>[C:1]([C:2]([C:3]([N:7]=[C:6]=[C:4]([C:5]([H:16])([H:17])[H:18])[H:15])([H:13])[H:14])([H:11])[H:12])([H:8])([H:9])[H:10]"
C        1.90978685      -0.55110011       0.20331960
C        0.85813957       0.52894361       0.31109642
C        0.68986364       1.48706722      -0.75971897
C       -1.06469647      -0.93817910      -0.10704117
C       -2.22338292      -0.66990641       0.82350935
C       -1.00145250      -0.30164743      -1.31458085
N       -0.73740088       0.51020198      -2.12965293
H        1.80792896      -1.27235020       1.01209099
H        2.92312464      -0.14448649       0.24901272
H        1.81434120      -1.08191800      -0.74465324
H        0.32688136       0.66896004       1.24328608
H        1.52830997       1.68573192       0.30700476
H        0.02745294       2.33132860      -0.62491238
H        1.38414617       1.48882756      -1.58941992
H       -0.66808081      -1.94926520      -0.10188052
H       -3.08995804      -1.30270161       0.61133061
H       -1.93470106      -0.85855976       1.86104383
H       -2.55030262       0.36905338       0.75016564
18
Frame=5 idx=007882 GeodesicLength=0.25035214269017314 rxn_smarts="[C:1]([C:2]([C:3]([H:12])([H:13])[H:14])([C@@:4]([C:5]([H:16])([H:17])[H:18])([C:6]#[N:7])[H:15])[H:11])([H:8])([H:9])[H:10]>>[C:1]([C:2]([C:3]([N:7]=[C:6]=[C:4]([C:5]([H:16])([H:17])[H:18])[H:15])([H:13])[H:14])([H:11])[H:12])([H:8])([H:9])[H:10]"
C        1.91998258      -0.55168234       0.18913884
C        0.85791071       0.51645144       0.31646973
C        0.67773703       1.48591750      -0.74831744
C       -1.05693848      -0.93611260      -0.09139710
C       -2.23275447      -0.65500371       0.81501322
C       -0.98921146      -0.32622261      -1.31460714
N       -0.72185037       0.48770758      -2.12706775
H        1.84461768      -1.27490144       0.99938043
H        2.92921442      -0.13344777       0.21460314
H        1.81383870      -1.08286486      -0.75758986
H        0.34235340       0.64748679       1.25907317
H        1.52368403       1.68734828       0.31981164
H        0.00816246       2.32304178      -0.59999883
H        1.37130863       1.50310494      -1.57908557
H       -0.67358203      -1.95238421      -0.07208095
H       -3.09501686      -1.29045049       0.59447230
H       -1.96232035      -0.83108032       1.85950115
H       -2.55713562       0.38309203       0.72268101
18
Frame=6 idx=007882 GeodesicLength=0.2989376719924213 rxn_smarts="[C:1]([C:2]([C:3]([H:12])([H:13])[H:14])([C@@:4]([C:5]([H:16])([H:17])[H:18])([C:6]#[N:7])[H:15])[H:11])([H:8])([H:9])[H:10]>>[C:1]([C:2]([C:3]([N:7]=[C:6]=[C:4]([C:5]([H:16])([H:17])[H:18])[H:15])([H:13])[H:14])([H:11])[H:12])([H:8])([H:9])[H:10]"
C        1.92936710      -0.55217014       0.17557172
C        0.85746907       0.50416147       0.32183236
C        0.66577918       1.48450921      -0.73720155
C       -1.04953181      -0.93382135      -0.07645870
C       -2.24123797      -0.64050863       0.80652153
C       -0.97749578      -0.34998169      -1.31433593
N       -0.70657948       0.46590953      -2.12422140
H        1.87988760      -1.27690500       0.98678004
H        2.93401460      -0.12251469       0.18145105
H        1.81300297      -1.08396850      -0.76970643
H        0.35750795       0.62661009       1.27429164
H        1.51925486       1.68894636       0.33231095
H       -0.01019445       2.31485092      -0.57569386
H        1.35840462       1.51627549      -1.56897073
H       -0.67929998      -1.95486625      -0.04358721
H       -3.09910948      -1.27882034       0.57837867
H       -1.98816146      -0.80414670       1.85721048
H       -2.56307753       0.39644022       0.69582736
18
Frame=7 idx=007882 GeodesicLength=0.347269852582761 rxn_smarts="[C:1]([C:2]([C:3]([H:12])([H:13])[H:14])([C@@:4]([C:5]([H:16])([H:17])[H:18])([C:6]#[N:7])[H:15])[H:11])([H:8])([H:9])[H:10]>>[C:1]([C:2]([C:3]([N:7]=[C:6]=[C:4]([C:5]([H:16])([H:17])[H:18])[H:15])([H:13])[H:14])([H:11])[H:12])([H:8])([H:9])[H:10]"
C        1.93807851      -0.55258125       0.16249900
C        0.85687196       0.49200164       0.32720355
C        0.65393672       1.48286479      -0.72628475
C       -1.04244466      -0.93135159      -0.06213746
C       -2.24897626      -0.62633231       0.79799344
C       -0.96620313      -0.37308000      -1.31378449
N       -0.69152577       0.44468959      -2.12110258
H        1.91402665      -1.27840117       0.97422151
H        2.93768058      -0.11165303       0.14932983
H        1.81189711      -1.08523065      -0.78114116
H        0.37243402       0.60617448       1.28901537
H        1.51499959       1.69052745       0.34458700
H       -0.02778982       2.30669313      -0.55180628
H        1.34539135       1.52852852      -1.55902387
H       -0.68521221      -1.95678511      -0.01616265
H       -3.10240015      -1.26773472       0.56298161
H       -2.01247296      -0.77751425       1.85424963
H       -2.56829153       0.40918447       0.66936230
18
Frame=8 idx=007882 GeodesicLength=0.395500499564613 rxn_smarts="[C:1]([C:2]([C:3]([H:12])([H:13])[H:14])([C@@:4]([C:5]([H:16])([H:17])[H:18])([C:6]#[N:7])[H:15])[H:11])([H:8])([H:9])[H:10]>>[C:1]([C:2]([C:3]([N:7]=[C:6]=[C:4]([C:5]([H:16])([H:17])[H:18])[H:15])([H:13])[H:14])([H:11])[H:12])([H:8])([H:9])[H:10]"
C        1.94624424      -0.55291613       0.14979486
C        0.85616891       0.47989527       0.33261290
C        0.64212837       1.48098320      -0.71545607
C       -1.03564341      -0.92875974      -0.04832893
C       -2.25608366      -0.61235654       0.78937274
C       -0.95520192      -0.39570922      -1.31295909
N       -0.67660882       0.42389227      -2.11769558
H        1.94734071      -1.27941111       0.96160218
H        2.94033529      -0.10080256       0.11796449
H        1.81058601      -1.08664535      -0.79202001
H        0.38721307       0.58599152       1.30332887
H        1.51085849       1.69208491       0.35672472
H       -0.04483838       2.29846344      -0.52813482
H        1.33219527       1.54003618      -1.54914528
H       -0.69130325      -1.95821678       0.01046256
H       -3.10502829      -1.25702565       0.54816246
H       -2.03552607      -0.75096067       1.85064715
H       -2.57283656       0.42145695       0.64306686
18
Frame=9 idx=007882 GeodesicLength=0.4437796139368151 rxn_smarts="[C:1]([C:2]([C:3]([H:12])([H:13])[H:14])([C@@:4]([C:5]([H:16])([H:17])[H:18])([C:6]#[N:7])[H:15])[H:11])([H:8])([H:9])[H:10]>>[C:1]([C:2]([C:3]([N:7]=[C:6]=[C:4]([C:5]([H:16])([H:17])[H:18])[H:15])([H:13])[H:14])([H:11])[H:12])([H:8])([H:9])[H:10]"
C        1.95397013      -0.55317386       0.13735580
C        0.85540086       0.46777306       0.33809121
C        0.63027240       1.47885897      -0.70461433
C       -1.02910078      -0.92609939      -0.03495085
C       -2.26264270      -0.59847126       0.78060520
C       -0.94438310      -0.41804132      -1.31186549
N       -0.66175666       0.40337081      -2.11399226
H        1.98009425      -1.27994581       0.94882952
H        2.94207019      -0.08990596       0.08712161
H        1.80912393      -1.08821736      -0.80244364
H        0.40192008       0.56589639       1.31730681
H        1.50677382       1.69361469       0.36880730
H       -0.06153758       2.29006013      -0.50449725
H        1.31873459       1.55094786      -1.53924391
H       -0.69756790      -1.95922924       0.03650898
H       -3.10711362      -1.24653233       0.53382045
H       -2.05752945      -0.72428394       1.84641582
H       -2.57672846       0.43337857       0.61674502
18
Frame=10 idx=007882 GeodesicLength=0.49199166809561246 rxn_smarts="[C:1]([C:2]([C:3]([H:12])([H:13])[H:14])([C@@:4]([C:5]([H:16])([H:17])[H:18])([C:6]#[N:7])[H:15])[H:11])([H:8])([H:9])[H:10]>>[C:1]([C:2]([C:3]([N:7]=[C:6]=[C:4]([C:5]([H:16])([H:17])[H:18])[H:15])([H:13])[H:14])([H:11])[H:12])([H:8])([H:9])[H:10]"
C        1.96121336      -0.55335891       0.12526532
C        0.85454964       0.45570766       0.34358840
C        0.61847974       1.47653430      -0.69387673
C       -1.02280675      -0.92334155      -0.02203374
C       -2.26865554      -0.58480465       0.77177628
C       -0.93386320      -0.43990333      -1.31051606
N       -0.64705101       0.38326699      -2.11002037
H        2.01207938      -1.28000366       0.93601487
H        2.94289168      -0.07904077       0.05700559
H        1.80749924      -1.08993418      -0.81235084
H        0.41646783       0.54605237       1.33087326
H        1.50282215       1.69515346       0.38074535
H       -0.07766109       2.28165294      -0.48107758
H        1.30514871       1.56116486      -1.52944320
H       -0.70400960      -1.95982615       0.06177311
H       -3.10864849      -1.23640650       0.52002454
H       -2.07839664      -0.69773484       1.84163343
H       -2.58005942       0.44482195       0.59061836
18
Frame=11 idx=007882 GeodesicLength=0.5402727154949871 rxn_smarts="[C:1]([C:2]([C:3]([H:12])([H:13])[H:14])([C@@:4]([C:5]([H:16])([H:17])[H:18])([C:6]#[N:7])[H:15])[H:11])([H:8])([H:9])[H:10]>>[C:1]([C:2]([C:3]([N:7]=[C:6]=[C:4]([C:5]([H:16])([H:17])[H:18])[H:15])([H:13])[H:14])([H:11])[H:12])([H:8])([H:9])[H:10]"
C        1.96806558      -0.55346703       0.11342731
C        0.85365037       0.44363034       0.34913546
C        0.60666835       1.47399462      -0.68314440
C       -1.01673738      -0.92053401      -0.00950098
C       -2.27418811      -0.57124885       0.76282916
C       -0.92353479      -0.46145923      -1.30891145
N       -0.63242591       0.36344257      -2.10576499
H        2.04355104      -1.27957927       0.92307134
H        2.94286717      -0.06814610       0.02738626
H        1.80575560      -1.09180528      -0.82182710
H        0.43092562       0.52630084       1.34409947
H        1.49894136       1.69669092       0.39261831
H       -0.09339734       2.27313062      -0.45769987
H        1.29135048       1.57081523      -1.51965297
H       -0.71062628      -1.96006175       0.08646579
H       -3.10973223      -1.22648196       0.50666668
H       -2.09831790      -0.67112569       1.83629607
H       -2.58281562       0.45590404       0.56450590
18
Frame=12 idx=007882 GeodesicLength=0.5885129563703595 rxn_smarts="[C:1]([C:2]([C:3]([H:12])([H:13])[H:14])([C@@:4]([C:5]([H:16])([H:17])[H:18])([C:6]#[N:7])[H:15])[H:11])([H:8])([H:9])[H:10]>>[C:1]([C:2]([C:3]([N:7]=[C:6]=[C:4]([C:5]([H:16])([H:17])[H:18])[H:15])([H:13])[H:14])([H:11])[H:12])([H:8])([H:9])[H:10]"
C        1.97448944      -0.55350727       0.10192181
C        0.85268613       0.43161224       0.35468733
C        0.59494034       1.47128894      -0.67252865
C       -1.01088421      -0.91765702       0.00261994
C       -2.27924494      -0.55792340       0.75384470
C       -0.91350629      -0.48255884      -1.30707520
N       -0.61796528       0.34402709      -2.10126390
H        2.07431597      -1.27868428       0.91010959
H        2.94201360      -0.05729987      -0.00154432
H        1.80388218      -1.09381966      -0.83081747
H        0.44521422       0.50679844       1.35692222
H        1.49520857       1.69826964       0.40434151
H       -0.10854105       2.26466639      -0.43453896
H        1.27747237       1.57982096      -1.50999068
H       -0.71741745      -1.95995275       0.11040347
H       -3.11036549      -1.21689426       0.49380402
H       -2.11721983      -0.64470603       1.83048369
H       -2.58507828       0.46651967       0.53862090
18
Frame=13 idx=007882 GeodesicLength=0.6365831608422203 rxn_smarts="[C:1]([C:2]([C:3]([H:12])([H:13])[H:14])([C@@:4]([C:5]([H:16])([H:17])[H:18])([C:6]#[N:7])[H:15])[H:11])([H:8])([H:9])[H:10]>>[C:1]([C:2]([C:3]([N:7]=[C:6]=[C:4]([C:5]([H:16])([H:17])[H:18])[H:15])([H:13])[H:14])([H:11])[H:12])([H:8])([H:9])[H:10]"
C        1.98044822      -0.55348183       0.09081113
C        0.85163010       0.41971471       0.36019637
C        0.58338452       1.46845148      -0.66212979
C       -1.00523225      -0.91468302       0.01430680
C       -2.28383314      -0.54493331       0.74489895
C       -0.90385436      -0.50307186      -1.30502326
N       -0.60372075       0.32511735      -2.09653860
H        2.10419580      -1.27731037       0.89723467
H        2.94035233      -0.04657882      -0.02964021
H        1.80186726      -1.09595574      -0.83927825
H        0.45924639       0.48768784       1.36928040
H        1.49168048       1.69991374       0.41583063
H       -0.12291980       2.25639483      -0.41175125
H        1.26364227       1.58811203      -1.50055915
H       -0.72436349      -1.95949158       0.13343612
H       -3.11055498      -1.20772010       0.48145556
H       -2.13507162      -0.61875132       1.82427141
H       -2.58689699       0.47658596       0.51319845
18
Frame=14 idx=007882 GeodesicLength=0.6846134231886372 rxn_smarts="[C:1]([C:2]([C:3]([H:12])([H:13])[H:14])([C@@:4]([C:5]([H:16])([H:17])[H:18])([C:6]#[N:7])[H:15])[H:11])([H:8])([H:9])[H:10]>>[C:1]([C:2]([C:3]([N:7]=[C:6]=[C:4]([C:5]([H:16])([H:17])[H:18])[H:15])([H:13])[H:14])([H:11])[H:12])([H:8])([H:9])[H:10]"
C        1.98602569      -0.55339571       0.08001899
C        0.85051889       0.40788298       0.36569526
C        0.57192994       1.46548524      -0.65186519
C       -0.99976610      -0.91166465       0.02562472
C       -2.28800975      -0.53218682       0.73594284
C       -0.89449839      -0.52314494      -1.30277206
N       -0.58965613       0.30660376      -2.09159808
H        2.13340812      -1.27548324       0.88437292
H        2.93795031      -0.03593263      -0.05707646
H        1.79974887      -1.09822897      -0.84728394
H        0.47309697       0.46883518       1.38124987
H        1.48831617       1.70163145       0.42715698
H       -0.13669555       2.24824607      -0.38919003
H        1.24978126       1.59581301      -1.49128566
H       -0.73146950      -1.95875071       0.15574288
H       -3.11038233      -1.19884658       0.46954420
H       -2.15201799      -0.59307288       1.81766515
H       -2.58828047       0.48620945       0.48805760
18
Frame=15 idx=007882 GeodesicLength=0.7327015458882324 rxn_smarts="[C:1]([C:2]([C:3]([H:12])([H:13])[H:14])([C@@:4]([C:5]([H:16])([H:17])[H:18])([C:6]#[N:7])[H:15])[H:11])([H:8])([H:9])[H:10]>>[C:1]([C:2]([C:3]([N:7]=[C:6]=[C:4]([C:5]([H:16])([H:17])[H:18])[H:15])([H:13])[H:14])([H:11])[H:12])([H:8])([H:9])[H:10]"
C        1.99128959      -0.55324074       0.06946556
C        0.84937860       0.39605598       0.37121023
C        0.56050329       1.46236573      -0.64164569
C       -0.99446971      -0.90863515       0.03663168
C       -2.29181635      -0.51958925       0.72692249
C       -0.88534316      -0.54291256      -1.30031334
N       -0.57571311       0.28837556      -2.08641523
H        2.16214967      -1.27319134       0.87143344
H        2.93484510      -0.02530510      -0.08403254
H        1.79756484      -1.10064101      -0.85490033
H        0.48682542       0.45010369       1.39288718
H        1.48506295       1.70340142       0.43838246
H       -0.15002539       2.24010433      -0.36669977
H        1.23580313       1.60301595      -1.48208699
H       -0.73874018      -1.95775936       0.17749363
H       -3.10990941      -1.19014611       0.45799862
H       -2.16819287      -0.56747966       1.81064127
H       -2.58921243       0.49547761       0.46302735
18
Frame=16 idx=007882 GeodesicLength=0.7807184107976208 rxn_smarts="[C:1]([C:2]([C:3]([H:12])([H:13])[H:14])([C@@:4]([C:5]([H:16])([H:17])[H:18])([C:6]#[N:7])[H:15])[H:11])([H:8])([H:9])[H:10]>>[C:1]([C:2]([C:3]([N:7]=[C:6]=[C:4]([C:5]([H:16])([H:17])[H:18])[H:15])([H:13])[H:14])([H:11])[H:12])([H:8])([H:9])[H:10]"
C        1.99619876      -0.55302712       0.05921959
C        0.84818310       0.38429987       0.37669590
C        0.54919652       1.45913610      -0.63157555
C       -0.98933435      -0.90556862       0.04729943
C       -2.29525614      -0.50725168       0.71791533
C       -0.87647965      -0.56223708      -1.29767026
N       -0.56195347       0.27053979      -2.08102595
H        2.19023010      -1.27043751       0.85853239
H        2.93105686      -0.01478231      -0.11034784
H        1.79529558      -1.10317786      -0.86207982
H        0.50034893       0.43164654       1.40413514
H        1.48198520       1.70525647       0.44942412
H       -0.16272993       2.23212373      -0.34444863
H        1.22183935       1.60965173      -1.47306799
H       -0.74615085      -1.95651422       0.19853012
H       -3.10913362      -1.18171708       0.44684393
H       -2.18354347      -0.54224802       1.80327701
H       -2.58975292       0.50430727       0.43834308
