14
Frame=0 idx=009496 GeodesicLength=0.0 rxn_smarts="[C:1]([N:2]([c:3]1[n:4][n:5]([H:12])[c:6]([H:13])[c:7]1[H:14])[H:11])([H:8])([H:9])[H:10]>>[C:1]([n:4]1/[c:3](=[N:2]/[H:11])[c:7]([H:14])[c:6]([H:13])[n:5]1[H:12])([H:8])([H:9])[H:10]"
C        1.57944440       1.53666750      -0.13673572
N        1.52741085      -0.65537263      -0.33790045
C        0.21180073      -0.63785207      -0.19998698
N       -0.30540457       0.58462601      -0.10665160
N       -1.55709253       0.46043175       0.43987139
C       -1.89951622      -0.85623478       0.45601394
C       -0.82885454      -1.59561609       0.05870205
H        2.07759109       1.30127306       0.79047636
H        2.19638824       1.46187899      -1.01770111
H        0.95124416       2.41410000      -0.11822084
H        1.88360994      -1.38488518      -0.94643421
H       -2.21170471       1.20467974       0.27754063
H       -2.88391302      -1.16481821       0.77786571
H       -0.74100379      -2.66887810       0.06316080
14
Frame=1 idx=009496 GeodesicLength=0.06798613339486094 rxn_smarts="[C:1]([N:2]([c:3]1[n:4][n:5]([H:12])[c:6]([H:13])[c:7]1[H:14])[H:11])([H:8])([H:9])[H:10]>>[C:1]([n:4]1/[c:3](=[N:2]/[H:11])[c:7]([H:14])[c:6]([H:13])[n:5]1[H:12])([H:8])([H:9])[H:10]"
C        1.58471992       1.53280079      -0.18360549
N        1.52711514      -0.64241610      -0.29371432
C        0.21066826      -0.62980345      -0.16862490
N       -0.30396199       0.58927726      -0.01847030
N       -1.56492144       0.44006876       0.49788850
C       -1.91435580      -0.87273820       0.43860597
C       -0.84259199      -1.59238153       0.01029813
H        2.06206261       1.39783509       0.77491498
H        2.25107973       1.41627522      -1.02386719
H        0.96841198       2.41665829      -0.26386143
H        1.90034638      -1.40497562      -0.84763860
H       -2.20838440       1.20578980       0.41380999
H       -2.90394908      -1.19274382       0.73163086
H       -0.76623931      -2.66364650      -0.06736621
14
Frame=2 idx=009496 GeodesicLength=0.13267183081177109 rxn_smarts="[C:1]([N:2]([c:3]1[n:4][n:5]([H:12])[c:6]([H:13])[c:7]1[H:14])[H:11])([H:8])([H:9])[H:10]>>[C:1]([n:4]1/[c:3](=[N:2]/[H:11])[c:7]([H:14])[c:6]([H:13])[n:5]1[H:12])([H:8])([H:9])[H:10]"
C        1.58636356       1.52485381      -0.22891121
N        1.52863545      -0.63102945      -0.25042383
C        0.21148775      -0.62280050      -0.13636142
N       -0.29756448       0.59062562       0.07691154
N       -1.57031508       0.42021633       0.55441749
C       -1.92674497      -0.88438007       0.42014812
C       -0.85438658      -1.58332492      -0.03892730
H        2.04431190       1.49726183       0.74886234
H        2.29904281       1.37239357      -1.02516535
H        0.97550009       2.39946642      -0.40790068
H        1.91674627      -1.42449010      -0.74613570
H       -2.20117602       1.20009164       0.55220527
H       -2.92281664      -1.21270886       0.67968944
H       -0.78908407      -2.64617532      -0.19840871
14
Frame=3 idx=009496 GeodesicLength=0.19497162757592656 rxn_smarts="[C:1]([N:2]([c:3]1[n:4][n:5]([H:12])[c:6]([H:13])[c:7]1[H:14])[H:11])([H:8])([H:9])[H:10]>>[C:1]([n:4]1/[c:3](=[N:2]/[H:11])[c:7]([H:14])[c:6]([H:13])[n:5]1[H:12])([H:8])([H:9])[H:10]"
C        1.58381206       1.51273504      -0.27045443
N        1.53218838      -0.62148953      -0.21235816
C        0.21501181      -0.61838070      -0.10187758
N       -0.28691567       0.58741091       0.17214253
N       -1.57250816       0.40222016       0.60573374
C       -1.93620018      -0.89038820       0.40101495
C       -0.86341217      -1.56940419      -0.08530002
H        2.02011503       1.59633446       0.71488040
H        2.34150603       1.33325949      -1.01906147
H        0.97236936       2.36290561      -0.54635758
H        1.93200550      -1.44292856      -0.64774969
H       -2.18939945       1.18798535       0.68930731
H       -2.93937594      -1.22265674       0.62520585
H       -0.80919660      -2.61760309      -0.32512586
14
Frame=4 idx=009496 GeodesicLength=0.25635735815181077 rxn_smarts="[C:1]([N:2]([c:3]1[n:4][n:5]([H:12])[c:6]([H:13])[c:7]1[H:14])[H:11])([H:8])([H:9])[H:10]>>[C:1]([n:4]1/[c:3](=[N:2]/[H:11])[c:7]([H:14])[c:6]([H:13])[n:5]1[H:12])([H:8])([H:9])[H:10]"
C        1.57810507       1.49701846      -0.30582580
N        1.53710340      -0.61407573      -0.18376992
C        0.22094908      -0.61772509      -0.06473140
N       -0.27326100       0.57984493       0.26201551
N       -1.57267387       0.38803071       0.64684769
C       -1.94297347      -0.89103204       0.38216873
C       -0.86974288      -1.55233483      -0.12639005
H        1.98691828       1.69225484       0.67637875
H        2.38052645       1.30148918      -1.00313859
H        0.96288921       2.30978916      -0.67510105
H        1.94541127      -1.45951251      -0.55925147
H       -2.17439636       1.17061720       0.81815682
H       -2.95210332      -1.22402509       0.57587819
H       -0.82675185      -2.58033918      -0.44323741
14
Frame=5 idx=009496 GeodesicLength=0.3176472453157903 rxn_smarts="[C:1]([N:2]([c:3]1[n:4][n:5]([H:12])[c:6]([H:13])[c:7]1[H:14])[H:11])([H:8])([H:9])[H:10]>>[C:1]([n:4]1/[c:3](=[N:2]/[H:11])[c:7]([H:14])[c:6]([H:13])[n:5]1[H:12])([H:8])([H:9])[H:10]"
C        1.56985227       1.47859720      -0.33525855
N        1.54280904      -0.60902300      -0.16366976
C        0.22872720      -0.62107740      -0.02546207
N       -0.25702685       0.56829672       0.34744155
N       -1.57141442       0.37885834       0.67705533
C       -1.94720574      -0.88724701       0.36474994
C       -0.87400938      -1.53274596      -0.16339655
H        1.94485973       1.78452102       0.63308067
H        2.41542457       1.27695152      -0.97911483
H        0.94999265       2.24286253      -0.79335192
H        1.95826343      -1.47432973      -0.47912510
H       -2.15649923       1.14858482       0.93828567
H       -2.96133834      -1.21875149       0.53267954
H       -0.84243492      -2.53549756      -0.55391392
14
Frame=6 idx=009496 GeodesicLength=0.37989234377521486 rxn_smarts="[C:1]([N:2]([c:3]1[n:4][n:5]([H:12])[c:6]([H:13])[c:7]1[H:14])[H:11])([H:8])([H:9])[H:10]>>[C:1]([n:4]1/[c:3](=[N:2]/[H:11])[c:7]([H:14])[c:6]([H:13])[n:5]1[H:12])([H:8])([H:9])[H:10]"
C        1.55783290       1.45761297      -0.35955042
N        1.54943332      -0.60677289      -0.14900830
C        0.23877150      -0.62913832       0.01742218
N       -0.23718059       0.55168268       0.43347880
N       -1.56810277       0.37589645       0.69630336
C       -1.94834133      -0.87953331       0.34971352
C       -0.87580972      -1.51117510      -0.19561422
H        1.89433218       1.87333135       0.58259941
H        2.44310581       1.25837550      -0.94990333
H        0.93287669       2.16276030      -0.90106224
H        1.97209216      -1.48711477      -0.40536336
H       -2.13416961       1.12199948       1.05057898
H       -2.96801423      -1.20601683       0.49103437
H       -0.85682631      -2.48190752      -0.66062875
14
Frame=7 idx=009496 GeodesicLength=0.44432487016546296 rxn_smarts="[C:1]([N:2]([c:3]1[n:4][n:5]([H:12])[c:6]([H:13])[c:7]1[H:14])[H:11])([H:8])([H:9])[H:10]>>[C:1]([n:4]1/[c:3](=[N:2]/[H:11])[c:7]([H:14])[c:6]([H:13])[n:5]1[H:12])([H:8])([H:9])[H:10]"
C        1.54251304       1.43491309      -0.37893057
N        1.55600530      -0.60709037      -0.13954315
C        0.24987671      -0.64112724       0.05924255
N       -0.21495389       0.53033292       0.51748388
N       -1.56054102       0.37778743       0.71147617
C       -1.94742127      -0.86675472       0.33410367
C       -0.87600307      -1.48802640      -0.22474111
H        1.83259968       1.95699100       0.52602677
H        2.46491808       1.24593944      -0.91483556
H        0.91457268       2.07180829      -0.99853948
H        1.98740727      -1.49721742      -0.33813714
H       -2.10727239       1.09068892       1.15385414
H       -2.97237993      -1.18569200       0.45152339
H       -0.86932120      -2.42255293      -0.75898357
14
Frame=8 idx=009496 GeodesicLength=0.5108473938945342 rxn_smarts="[C:1]([N:2]([c:3]1[n:4][n:5]([H:12])[c:6]([H:13])[c:7]1[H:14])[H:11])([H:8])([H:9])[H:10]>>[C:1]([n:4]1/[c:3](=[N:2]/[H:11])[c:7]([H:14])[c:6]([H:13])[n:5]1[H:12])([H:8])([H:9])[H:10]"
C        1.52624706       1.41180083      -0.39535465
N        1.56151147      -0.60885640      -0.13302792
C        0.25993121      -0.65402642       0.09402241
N       -0.19378232       0.50797942       0.59086023
N       -1.54874293       0.37953537       0.73314467
C       -1.94572376      -0.84998394       0.31771780
C       -0.87604284      -1.46322423      -0.25286974
H        1.75671802       2.03603345       0.46183260
H        2.48566861       1.23856212      -0.86961497
H        0.90409159       1.97242646      -1.09210229
H        2.00340065      -1.50419486      -0.27315360
H       -2.07717982       1.05275942       1.25378725
H       -2.97517309      -1.16045236       0.41539181
H       -0.88092386      -2.35835887      -0.85063360
14
Frame=9 idx=009496 GeodesicLength=0.5799071621268156 rxn_smarts="[C:1]([N:2]([c:3]1[n:4][n:5]([H:12])[c:6]([H:13])[c:7]1[H:14])[H:11])([H:8])([H:9])[H:10]>>[C:1]([n:4]1/[c:3](=[N:2]/[H:11])[c:7]([H:14])[c:6]([H:13])[n:5]1[H:12])([H:8])([H:9])[H:10]"
C        1.50852765       1.38825757      -0.41068161
N        1.56674736      -0.61164263      -0.12655692
C        0.26944790      -0.66747404       0.12474562
N       -0.17311895       0.48518435       0.65700002
N       -1.53384496       0.37901237       0.76359921
C       -1.94279373      -0.83071100       0.30283323
C       -0.87573398      -1.43532031      -0.28132910
H        1.66854873       2.10929534       0.38562059
H        2.50334970       1.23551921      -0.81571070
H        0.90276348       1.86456394      -1.18273582
H        2.02006755      -1.50778551      -0.20855744
H       -2.04513845       1.00816279       1.35284405
H       -2.97744337      -1.12968522       0.37774441
H       -0.89137895      -2.28737686      -0.93881552
14
Frame=10 idx=009496 GeodesicLength=0.6511592090208697 rxn_smarts="[C:1]([N:2]([c:3]1[n:4][n:5]([H:12])[c:6]([H:13])[c:7]1[H:14])[H:11])([H:8])([H:9])[H:10]>>[C:1]([n:4]1/[c:3](=[N:2]/[H:11])[c:7]([H:14])[c:6]([H:13])[n:5]1[H:12])([H:8])([H:9])[H:10]"
C        1.48945435       1.36468718      -0.42543919
N        1.57175096      -0.61505594      -0.12023910
C        0.27832073      -0.68089483       0.15160769
N       -0.15288261       0.46242384       0.71714106
N       -1.51728513       0.37622711       0.80004552
C       -1.93876227      -0.80985004       0.29039491
C       -0.87507843      -1.40416399      -0.30996200
H        1.57005569       2.17284850       0.29710576
H        2.51650944       1.23757025      -0.75336759
H        0.91292547       1.75112201      -1.26881160
H        2.03679596      -1.50794011      -0.14586952
H       -2.01255974       0.95782431       1.44960981
H       -2.97885295      -1.09441195       0.34041393
H       -0.90039146      -2.21038635      -1.02262967
14
Frame=11 idx=009496 GeodesicLength=0.7259069456006708 rxn_smarts="[C:1]([N:2]([c:3]1[n:4][n:5]([H:12])[c:6]([H:13])[c:7]1[H:14])[H:11])([H:8])([H:9])[H:10]>>[C:1]([n:4]1/[c:3](=[N:2]/[H:11])[c:7]([H:14])[c:6]([H:13])[n:5]1[H:12])([H:8])([H:9])[H:10]"
C        1.46769345       1.34033199      -0.44133340
N        1.57723503      -0.61893579      -0.11155059
C        0.28712453      -0.69459309       0.17744246
N       -0.13255141       0.43970034       0.77394291
N       -1.49941072       0.37117200       0.84175076
C       -1.93352003      -0.78661677       0.27923022
C       -0.87325677      -1.36892222      -0.33843357
H        1.46218869       2.22346370       0.19418421
H        2.52212353       1.24494610      -0.68417471
H        0.93393920       1.63190972      -1.35031755
H        2.05383018      -1.50505911      -0.08441643
H       -1.97942382       0.90063565       1.54587406
H       -2.97910980      -1.05359514       0.30213760
H       -0.90686206      -2.12443738      -1.10433596
14
Frame=12 idx=009496 GeodesicLength=0.8056680465859779 rxn_smarts="[C:1]([N:2]([c:3]1[n:4][n:5]([H:12])[c:6]([H:13])[c:7]1[H:14])[H:11])([H:8])([H:9])[H:10]>>[C:1]([n:4]1/[c:3](=[N:2]/[H:11])[c:7]([H:14])[c:6]([H:13])[n:5]1[H:12])([H:8])([H:9])[H:10]"
C        1.44192967       1.31441614      -0.45954010
N        1.58367457      -0.62310292      -0.09964695
C        0.29634184      -0.70896793       0.20369464
N       -0.11153185       0.41667932       0.82928718
N       -1.48013951       0.36387476       0.88791719
C       -1.92667870      -0.76040410       0.26893424
C       -0.86947473      -1.32922633      -0.36610879
H        1.34643771       2.25705009       0.07740255
H        2.51664778       1.25840197      -0.61096014
H        0.96429602       1.50810169      -1.42582172
H        2.07157747      -1.49961514      -0.02407417
H       -1.94570945       0.83623600       1.64137019
H       -2.97784193      -1.00504608       0.26103130
H       -0.90952889      -2.02839748      -1.18348541
14
Frame=13 idx=009496 GeodesicLength=0.890546145062608 rxn_smarts="[C:1]([N:2]([c:3]1[n:4][n:5]([H:12])[c:6]([H:13])[c:7]1[H:14])[H:11])([H:8])([H:9])[H:10]>>[C:1]([n:4]1/[c:3](=[N:2]/[H:11])[c:7]([H:14])[c:6]([H:13])[n:5]1[H:12])([H:8])([H:9])[H:10]"
C        1.41307375       1.28692025      -0.48057697
N        1.59058536      -0.62698353      -0.08532551
C        0.30524426      -0.72294849       0.22888631
N       -0.09088731       0.39485699       0.88106178
N       -1.46069005       0.35436254       0.93668188
C       -1.91875710      -0.73168846       0.25962958
C       -0.86411461      -1.28573159      -0.39237166
H        1.22657422       2.27116834      -0.05099300
H        2.49895314       1.27825627      -0.53460321
H        1.00609837       1.38309885      -1.49430349
H        2.08911379      -1.49179485       0.03528065
H       -1.91188093       0.76400178       1.73495477
H       -2.97474611      -0.95089053       0.22065046
H       -0.90856676      -1.92262756      -1.25897159
14
Frame=14 idx=009496 GeodesicLength=0.9813633828474487 rxn_smarts="[C:1]([N:2]([c:3]1[n:4][n:5]([H:12])[c:6]([H:13])[c:7]1[H:14])[H:11])([H:8])([H:9])[H:10]>>[C:1]([n:4]1/[c:3](=[N:2]/[H:11])[c:7]([H:14])[c:6]([H:13])[n:5]1[H:12])([H:8])([H:9])[H:10]"
C        1.38118206       1.25735464      -0.50443673
N        1.59793112      -0.63044745      -0.06929386
C        0.31392851      -0.73667406       0.25314282
N       -0.07047719       0.37408021       0.92982059
N       -1.44116784       0.34291700       0.98659406
C       -1.90968713      -0.70037320       0.25107014
C       -0.85697415      -1.23915840      -0.41659018
H        1.10604975       2.26410829      -0.18698721
H        2.46691760       1.30411133      -0.45942166
H        1.05701714       1.25995295      -1.55352409
H        2.10654632      -1.48175249       0.09346925
H       -1.87822485       0.68485948       1.82428429
H       -2.96960011      -0.89057490       0.18088958
H       -0.90344123      -1.80840340      -1.32901702
14
Frame=15 idx=009496 GeodesicLength=1.0785325694106207 rxn_smarts="[C:1]([N:2]([c:3]1[n:4][n:5]([H:12])[c:6]([H:13])[c:7]1[H:14])[H:11])([H:8])([H:9])[H:10]>>[C:1]([n:4]1/[c:3](=[N:2]/[H:11])[c:7]([H:14])[c:6]([H:13])[n:5]1[H:12])([H:8])([H:9])[H:10]"
C        1.34733598       1.22554375      -0.53085896
N        1.60537637      -0.63329631      -0.05222124
C        0.32204548      -0.74972336       0.27590551
N       -0.05082536       0.35498137       0.97484246
N       -1.42218413       0.32965198       1.03643506
C       -1.89978200      -0.66681858       0.24321132
C       -0.84836471      -1.19024512      -0.43859858
H        0.98845827       2.23623370      -0.32708238
H        2.42051449       1.33464889      -0.38869268
H        1.11574756       1.14149378      -1.60236092
H        2.12342640      -1.46945071       0.15095845
H       -1.84505512       0.59919105       1.90779246
H       -2.96241470      -0.82559821       0.14343006
H       -0.89427851      -1.68661221      -1.39276056
14
Frame=16 idx=009496 GeodesicLength=1.1817909179925277 rxn_smarts="[C:1]([N:2]([c:3]1[n:4][n:5]([H:12])[c:6]([H:13])[c:7]1[H:14])[H:11])([H:8])([H:9])[H:10]>>[C:1]([n:4]1/[c:3](=[N:2]/[H:11])[c:7]([H:14])[c:6]([H:13])[n:5]1[H:12])([H:8])([H:9])[H:10]"
C        1.31275896       1.19183309      -0.55881988
N        1.61256990      -0.63539982      -0.03526315
C        0.32936528      -0.76187554       0.29651457
N       -0.03225607       0.33763734       1.01583426
N       -1.40415048       0.31498064       1.08471001
C       -1.88935829      -0.63180012       0.23627727
C       -0.83876102      -1.14023531      -0.45817486
H        0.87713265       2.18945437      -0.46716959
H        2.36102434       1.36808063      -0.32512602
H        1.18017995       1.03087561      -1.63978234
H        2.13935062      -1.45486815       0.20698684
H       -1.81273817       0.50889621       1.98319624
H       -2.95345509      -0.75760120       0.10953142
H       -0.88166260      -1.55997774      -1.44871476
