12
Frame=0 idx=004364 GeodesicLength=0.0 rxn_smarts="[O:1]=[C:2]([C@@:3]1([H:8])[C:4]([H:9])([H:10])[C:5]([H:11])([H:12])[O:6]1)[H:7]>>[O+:1](=[C-:2][H:7])[C:4]1([H:9])[C:3]([H:8])([H:10])[O:6][C:5]1([H:11])[H:12]"
O        1.30782318      -1.05822085       0.62956159
C        1.81751586       0.04043288       0.79554581
C        0.03112792       0.90593391      -0.55809303
C       -0.22847526      -0.48905696      -0.69448045
C       -1.28841145      -0.28273947       0.36251034
O       -0.91721095       1.12134564       0.43096315
H        2.65192040       0.00271736       1.54305322
H        0.70768537       1.65214182      -0.93604763
H        0.04774556      -1.23623506      -1.41716441
H       -0.72876326       0.54685405      -1.53830524
H       -1.06412603      -0.79774629       1.29703875
H       -2.33683139      -0.40542707       0.08541794
12
Frame=1 idx=004364 GeodesicLength=0.05922910386104717 rxn_smarts="[O:1]=[C:2]([C@@:3]1([H:8])[C:4]([H:9])([H:10])[C:5]([H:11])([H:12])[O:6]1)[H:7]>>[O+:1](=[C-:2][H:7])[C:4]1([H:9])[C:3]([H:8])([H:10])[O:6][C:5]1([H:11])[H:12]"
O        1.32076218      -1.06295215       0.60729929
C        1.82861390       0.03957478       0.76156702
C        0.04280223       0.90232657      -0.54601160
C       -0.22920480      -0.49329809      -0.68951555
C       -1.29210948      -0.28210918       0.36503530
O       -0.91464367       1.11909850       0.43822577
H        2.62434008       0.02465448       1.54988003
H        0.71195854       1.65894154      -0.91750897
H        0.03337294      -1.25153978      -1.40553127
H       -0.70976586       0.54567870      -1.54622955
H       -1.07643974      -0.80025849       1.30008128
H       -2.33968632      -0.40011688       0.08270824
12
Frame=2 idx=004364 GeodesicLength=0.11853734866534896 rxn_smarts="[O:1]=[C:2]([C@@:3]1([H:8])[C:4]([H:9])([H:10])[C:5]([H:11])([H:12])[O:6]1)[H:7]>>[O+:1](=[C-:2][H:7])[C:4]1([H:9])[C:3]([H:8])([H:10])[O:6][C:5]1([H:11])[H:12]"
O        1.33361028      -1.06767358       0.58522617
C        1.83868224       0.03879909       0.72950126
C        0.05445705       0.89876721      -0.53352535
C       -0.22958108      -0.49747934      -0.68412173
C       -1.29593935      -0.28145199       0.36744235
O       -0.91239289       1.11687631       0.44548350
H        2.59707862       0.04647844       1.55294914
H        0.71626391       1.66567414      -0.89819327
H        0.01954510      -1.26655926      -1.39314913
H       -0.68976244       0.54399666      -1.55413749
H       -1.08948586      -0.80255958       1.30313158
H       -2.34247556      -0.39486811       0.07939297
12
Frame=3 idx=004364 GeodesicLength=0.17811342587893828 rxn_smarts="[O:1]=[C:2]([C@@:3]1([H:8])[C:4]([H:9])([H:10])[C:5]([H:11])([H:12])[O:6]1)[H:7]>>[O+:1](=[C-:2][H:7])[C:4]1([H:9])[C:3]([H:8])([H:10])[O:6][C:5]1([H:11])[H:12]"
O        1.34727340      -1.07275038       0.56163511
C        1.84869018       0.03774347       0.69790219
C        0.06623163       0.89522495      -0.52111552
C       -0.22970224      -0.50161488      -0.67870948
C       -1.29920065      -0.28068272       0.37019269
O       -0.90965579       1.11478113       0.45296969
H        2.56613036       0.06865400       1.55567393
H        0.72067691       1.67215575      -0.87897140
H        0.00552966      -1.28131579      -1.38073991
H       -0.66937338       0.54191273      -1.56204565
H       -1.10184297      -0.80461517       1.30650862
H       -2.34475711      -0.38949309       0.07669975
12
Frame=4 idx=004364 GeodesicLength=0.2375688371786981 rxn_smarts="[O:1]=[C:2]([C@@:3]1([H:8])[C:4]([H:9])([H:10])[C:5]([H:11])([H:12])[O:6]1)[H:7]>>[O+:1](=[C-:2][H:7])[C:4]1([H:9])[C:3]([H:8])([H:10])[O:6][C:5]1([H:11])[H:12]"
O        1.36007234      -1.07706850       0.53967503
C        1.85687216       0.03758384       0.66922163
C        0.07760236       0.89181029      -0.50796084
C       -0.22948475      -0.50563925      -0.67251737
C       -1.30337323      -0.27996149       0.37237935
O       -0.90826107       1.11261503       0.46012431
H        2.54039696       0.08933940       1.55255449
H        0.72473949       1.67875237      -0.85843318
H       -0.00726075      -1.29569417      -1.36695109
H       -0.64748407       0.53910330      -1.56995048
H       -1.11633668      -0.80639994       1.30957384
H       -2.34748277      -0.38444088       0.07228433
12
Frame=5 idx=004364 GeodesicLength=0.29722526363702273 rxn_smarts="[O:1]=[C:2]([C@@:3]1([H:8])[C:4]([H:9])([H:10])[C:5]([H:11])([H:12])[O:6]1)[H:7]>>[O+:1](=[C-:2][H:7])[C:4]1([H:9])[C:3]([H:8])([H:10])[O:6][C:5]1([H:11])[H:12]"
O        1.37354954      -1.08132860       0.51662765
C        1.86465109       0.03769113       0.64158523
C        0.08883231       0.88852834      -0.49482542
C       -0.22904671      -0.50960701      -0.66619936
C       -1.30727875      -0.27912580       0.37474432
O       -0.90695280       1.11069979       0.46724788
H        2.51314498       0.10926954       1.54862103
H        0.72865684       1.68521647      -0.83792341
H       -0.01997638      -1.30983513      -1.35292759
H       -0.62511254       0.53574568      -1.57794567
H       -1.13054042      -0.80777582       1.31291307
H       -2.34992719      -0.37947859       0.06808228
12
Frame=6 idx=004364 GeodesicLength=0.35683524817976425 rxn_smarts="[O:1]=[C:2]([C@@:3]1([H:8])[C:4]([H:9])([H:10])[C:5]([H:11])([H:12])[O:6]1)[H:7]>>[O+:1](=[C-:2][H:7])[C:4]1([H:9])[C:3]([H:8])([H:10])[O:6][C:5]1([H:11])[H:12]"
O        1.38659124      -1.08490424       0.49434379
C        1.87127942       0.03859297       0.61572392
C        0.09962451       0.88538743      -0.48120588
C       -0.22842747      -0.51349767      -0.65931976
C       -1.31182384      -0.27830094       0.37673208
O       -0.90658840       1.10876568       0.47416770
H        2.48971528       0.12780754       1.54129335
H        0.73209097       1.69175240      -0.81665282
H       -0.03192469      -1.32366346      -1.33790866
H       -0.60161129       0.53167494      -1.58590199
H       -1.14626568      -0.80890345       1.31601217
H       -2.35266004      -0.37471120       0.06271609
12
Frame=7 idx=004364 GeodesicLength=0.41657493863860967 rxn_smarts="[O:1]=[C:2]([C@@:3]1([H:8])[C:4]([H:9])([H:10])[C:5]([H:11])([H:12])[O:6]1)[H:7]>>[O+:1](=[C-:2][H:7])[C:4]1([H:9])[C:3]([H:8])([H:10])[O:6][C:5]1([H:11])[H:12]"
O        1.40015349      -1.08815470       0.47116655
C        1.87740972       0.04001085       0.59091750
C        0.11013347       0.88242066      -0.46756259
C       -0.22764669      -0.51732770      -0.65224057
C       -1.31629650      -0.27737303       0.37879792
O       -0.90654595       1.10708601       0.48096663
H        2.46606626       0.14511966       1.53318201
H        0.73520621       1.69820944      -0.79541581
H       -0.04369744      -1.33725430      -1.32251253
H       -0.57752306       0.52695990      -1.59392272
H       -1.16201696      -0.80960672       1.31929275
H       -2.35524254      -0.37009009       0.05733087
12
Frame=8 idx=004364 GeodesicLength=0.47631835359188934 rxn_smarts="[O:1]=[C:2]([C@@:3]1([H:8])[C:4]([H:9])([H:10])[C:5]([H:11])([H:12])[O:6]1)[H:7]>>[O+:1](=[C-:2][H:7])[C:4]1([H:9])[C:3]([H:8])([H:10])[O:6][C:5]1([H:11])[H:12]"
O        1.41350932      -1.09070879       0.44818356
C        1.88274848       0.04215141       0.56722883
C        0.12020614       0.87957093      -0.45355735
C       -0.22674485      -0.52108397      -0.64468923
C       -1.32125691      -0.27642147       0.38061018
O       -0.90723786       1.10537681       0.48765098
H        2.44527679       0.16110712       1.52293879
H        0.73779956       1.70463779      -0.77374243
H       -0.05489158      -1.35051006      -1.30630580
H       -0.55242768       0.52149838      -1.60181548
H       -1.17897058      -0.81004013       1.32236768
H       -2.35801082      -0.36557802       0.05113028
12
Frame=9 idx=004364 GeodesicLength=0.5361529907441867 rxn_smarts="[O:1]=[C:2]([C@@:3]1([H:8])[C:4]([H:9])([H:10])[C:5]([H:11])([H:12])[O:6]1)[H:7]>>[O+:1](=[C-:2][H:7])[C:4]1([H:9])[C:3]([H:8])([H:10])[O:6][C:5]1([H:11])[H:12]"
O        1.42706739      -1.09274222       0.42476136
C        1.88764167       0.04489933       0.54435128
C        0.12987371       0.87689682      -0.43937067
C       -0.22576604      -0.52481519      -0.63682390
C       -1.32646146      -0.27540096       0.38233015
O       -0.90842615       1.10381894       0.49427880
H        2.42596191       0.17583395       1.51175198
H        0.73988286       1.71107267      -0.75195428
H       -0.06577804      -1.36357420      -1.28955022
H       -0.52658179       0.51530912      -1.60968113
H       -1.19655871      -0.81017036       1.32541704
H       -2.36085535      -0.36112791       0.04448959
12
Frame=10 idx=004364 GeodesicLength=0.5961063313313751 rxn_smarts="[O:1]=[C:2]([C@@:3]1([H:8])[C:4]([H:9])([H:10])[C:5]([H:11])([H:12])[O:6]1)[H:7]>>[O+:1](=[C-:2][H:7])[C:4]1([H:9])[C:3]([H:8])([H:10])[O:6][C:5]1([H:11])[H:12]"
O        1.44093056      -1.09424246       0.40051101
C        1.89207938       0.04822540       0.52217569
C        0.13920667       0.87436958      -0.42505770
C       -0.22469477      -0.52848953      -0.62863070
C       -1.33176875      -0.27430681       0.38404607
O       -0.90996465       1.10238185       0.50084227
H        2.40721277       0.18937152       1.49982093
H        0.74157166       1.71741263      -0.73017024
H       -0.07646948      -1.37636798      -1.27223418
H       -0.49990095       0.50837695      -1.61739232
H       -1.21457803      -0.80998164       1.32845708
H       -2.36362440      -0.35674950       0.03763210
12
Frame=11 idx=004364 GeodesicLength=0.6562783869496098 rxn_smarts="[O:1]=[C:2]([C@@:3]1([H:8])[C:4]([H:9])([H:10])[C:5]([H:11])([H:12])[O:6]1)[H:7]>>[O+:1](=[C-:2][H:7])[C:4]1([H:9])[C:3]([H:8])([H:10])[O:6][C:5]1([H:11])[H:12]"
O        1.45494884      -1.09513898       0.37584213
C        1.89628380       0.05213412       0.50050170
C        0.14810262       0.87200371      -0.41046647
C       -0.22357106      -0.53218327      -0.62007741
C       -1.33744652      -0.27313424       0.38563666
O       -0.91200557       1.10104460       0.50750620
H        2.39024077       0.20175624       1.48701045
H        0.74266949       1.72377755      -0.70821278
H       -0.08677857      -1.38904813      -1.25433260
H       -0.47238379       0.50062306      -1.62500403
H       -1.23347530      -0.80954410       1.33140160
H       -2.36658470      -0.35229056       0.03019455
12
Frame=12 idx=004364 GeodesicLength=0.7164494886523203 rxn_smarts="[O:1]=[C:2]([C@@:3]1([H:8])[C:4]([H:9])([H:10])[C:5]([H:11])([H:12])[O:6]1)[H:7]>>[O+:1](=[C-:2][H:7])[C:4]1([H:9])[C:3]([H:8])([H:10])[O:6][C:5]1([H:11])[H:12]"
O        1.46901727      -1.09532202       0.35035571
C        1.89990314       0.05668811       0.47921948
C        0.15662999       0.86975302      -0.39569262
C       -0.22241540      -0.53578823      -0.61107060
C       -1.34331969      -0.27192632       0.38715795
O       -0.91440187       1.09969806       0.51408323
H        2.37447908       0.21295103       1.47351419
H        0.74330948       1.73002235      -0.68627757
H       -0.09690868      -1.40135528      -1.23565755
H       -0.44377398       0.49205923      -1.63221083
H       -1.25309058      -0.80886863       1.33416524
H       -2.36942875      -0.34791131       0.02241338
12
Frame=13 idx=004364 GeodesicLength=0.7768490481214002 rxn_smarts="[O:1]=[C:2]([C@@:3]1([H:8])[C:4]([H:9])([H:10])[C:5]([H:11])([H:12])[O:6]1)[H:7]>>[O+:1](=[C-:2][H:7])[C:4]1([H:9])[C:3]([H:8])([H:10])[O:6][C:5]1([H:11])[H:12]"
O        1.48333027      -1.09488410       0.32408733
C        1.90333996       0.06178426       0.45830513
C        0.16473597       0.86766270      -0.38066995
C       -0.22122763      -0.53942492      -0.60169837
C       -1.34948801      -0.27061802       0.38861303
O       -0.91722869       1.09848311       0.52078736
H        2.35997529       0.22303364       1.45948118
H        0.74339078       1.73624415      -0.66430176
H       -0.10671354      -1.41354742      -1.21644387
H       -0.41428801       0.48261096      -1.63919136
H       -1.27343351      -0.80791407       1.33684123
H       -2.37239287      -0.34343030       0.01419005
12
Frame=14 idx=004364 GeodesicLength=0.8374630024613232 rxn_smarts="[O:1]=[C:2]([C@@:3]1([H:8])[C:4]([H:9])([H:10])[C:5]([H:11])([H:12])[O:6]1)[H:7]>>[O+:1](=[C-:2][H:7])[C:4]1([H:9])[C:3]([H:8])([H:10])[O:6][C:5]1([H:11])[H:12]"
O        1.49777459      -1.09371338       0.29687312
C        1.90644139       0.06747516       0.43765375
C        0.17244898       0.86570856      -0.36541069
C       -0.22001949      -0.54304624      -0.59189778
C       -1.35591727      -0.26923360       0.39001553
O       -0.92043468       1.09731922       0.52755552
H        2.34662511       0.23196387       1.44494470
H        0.74296930       1.74238661      -0.64235098
H       -0.11622984      -1.42551231      -1.19657233
H       -0.38376337       0.47225051      -1.64577710
H       -1.29452422      -0.80668923       1.33938078
H       -2.37537049      -0.33890917       0.00558549
12
Frame=15 idx=004364 GeodesicLength=0.8983070766951852 rxn_smarts="[O:1]=[C:2]([C@@:3]1([H:8])[C:4]([H:9])([H:10])[C:5]([H:11])([H:12])[O:6]1)[H:7]>>[O+:1](=[C-:2][H:7])[C:4]1([H:9])[C:3]([H:8])([H:10])[O:6][C:5]1([H:11])[H:12]"
O        1.51236257      -1.09178952       0.26857866
C        1.90922117       0.07375129       0.41723550
C        0.17976293       0.86390784      -0.34991577
C       -0.21880686      -0.54666852      -0.58166420
C       -1.36259724      -0.26776475       0.39137605
O       -0.92401569       1.09624760       0.53439491
H        2.33435959       0.23972935       1.43003344
H        0.74204132       1.74846505      -0.62047206
H       -0.12546810      -1.43728709      -1.17605627
H       -0.35218307       0.46094089      -1.65191004
H       -1.31632164      -0.80518557       1.34178381
H       -2.37835497      -0.33434656      -0.00338403
12
Frame=16 idx=004364 GeodesicLength=0.9593980890160949 rxn_smarts="[O:1]=[C:2]([C@@:3]1([H:8])[C:4]([H:9])([H:10])[C:5]([H:11])([H:12])[O:6]1)[H:7]>>[O+:1](=[C-:2][H:7])[C:4]1([H:9])[C:3]([H:8])([H:10])[O:6][C:5]1([H:11])[H:12]"
O        1.52705672      -1.08906231       0.23910775
C        1.91168658       0.08059119       0.39699076
C        0.18667496       0.86225716      -0.33417450
C       -0.21758754      -0.55029101      -0.57097657
C       -1.36951746      -0.26620166       0.39270177
O       -0.92796344       1.09526363       0.54132587
H        2.32309622       0.24632157       1.41479383
H        0.74059564       1.75446428      -0.59870578
H       -0.13439476      -1.44886450      -1.15487856
H       -0.31951099       0.44864319      -1.65750620
H       -1.33881488      -0.80339821       1.34403636
H       -2.38132104      -0.32972332      -0.01271472
