18
Frame=0 idx=006566 GeodesicLength=0.0 rxn_smarts="[C:1]([C:2]([C:3]([C:4]([C:5]([H:16])([H:17])[H:18])([H:14])[H:15])([C:6]#[N:7])[H:13])([H:11])[H:12])([H:8])([H:9])[H:10]>>[C:1]([C:2]([C:3](=[C:6]=[N:7][C:5]([C:4]([H:14])([H:15])[H:17])([H:16])[H:18])[H:13])([H:11])[H:12])([H:8])([H:9])[H:10]"
C       -2.84166916       0.13156475      -0.07232266
C       -1.43509060      -0.42315193      -0.29418213
C       -0.40404133       0.11335845       0.66912308
C        1.76615302      -0.77055807       0.06490417
C        2.50486818       0.41324078      -0.25485909
C        0.25776144       1.27661180       0.41189207
N        1.08219595       2.06036389       0.10709332
H       -3.55711949      -0.30192068      -0.77541147
H       -2.85055548       1.21568456      -0.19975519
H       -3.18972169      -0.08581036       0.94009892
H       -1.46395707      -1.51487531      -0.20617949
H       -1.11895572      -0.20431967      -1.31900260
H       -0.54543014      -0.12835740       1.71937078
H        1.81832178      -1.19934076       1.05399650
H        1.23841450      -1.31233084      -0.70578846
H        3.16661267       0.85059281       0.47631672
H        2.99143544      -0.86103908      -0.33524835
H        2.58077765       0.74028709      -1.28004616
18
Frame=1 idx=006566 GeodesicLength=0.04185540007403828 rxn_smarts="[C:1]([C:2]([C:3]([C:4]([C:5]([H:16])([H:17])[H:18])([H:14])[H:15])([C:6]#[N:7])[H:13])([H:11])[H:12])([H:8])([H:9])[H:10]>>[C:1]([C:2]([C:3](=[C:6]=[N:7][C:5]([C:4]([H:14])([H:15])[H:17])([H:16])[H:18])[H:13])([H:11])[H:12])([H:8])([H:9])[H:10]"
C       -2.84490544       0.13054768      -0.06135783
C       -1.44245545      -0.42840307      -0.29660002
C       -0.39794975       0.11029938       0.65183256
C        1.76154823      -0.76897664       0.05764625
C        2.51438297       0.41737352      -0.23787706
C        0.24981897       1.28025809       0.38192272
N        1.08077968       2.05960646       0.08241413
H       -3.56916077      -0.30563380      -0.75352834
H       -2.85345456       1.21388210      -0.19530414
H       -3.18172936      -0.07998276       0.95629429
H       -1.47173788      -1.51944418      -0.20152133
H       -1.13781938      -0.21640586      -1.32624348
H       -0.53926626      -0.11420813       1.70621165
H        1.80332565      -1.21439750       1.04041442
H        1.24811926      -1.29640093      -0.73323732
H        3.16318228       0.84289504       0.51258662
H        3.00248917      -0.86151072      -0.32410362
H        2.61483264       0.75050133      -1.25954949
18
Frame=2 idx=006566 GeodesicLength=0.0833470530755187 rxn_smarts="[C:1]([C:2]([C:3]([C:4]([C:5]([H:16])([H:17])[H:18])([H:14])[H:15])([C:6]#[N:7])[H:13])([H:11])[H:12])([H:8])([H:9])[H:10]>>[C:1]([C:2]([C:3](=[C:6]=[N:7][C:5]([C:4]([H:14])([H:15])[H:17])([H:16])[H:18])[H:13])([H:11])[H:12])([H:8])([H:9])[H:10]"
C       -2.84762611       0.12973439      -0.05072431
C       -1.44942953      -0.43365506      -0.29871716
C       -0.39193154       0.10730378       0.63491584
C        1.75686949      -0.76745146       0.05024549
C        2.52290957       0.42143239      -0.22102290
C        0.24200606       1.28359259       0.35246248
N        1.07942054       2.05853758       0.05827777
H       -3.58036881      -0.30913991      -0.73202122
H       -2.85581886       1.21221521      -0.19139615
H       -3.17348146      -0.07373544       0.97192099
H       -1.47914917      -1.52394735      -0.19637142
H       -1.15600735      -0.22871507      -1.33294952
H       -0.53297535      -0.10037124       1.69308900
H        1.78872128      -1.22927159       1.02635194
H        1.25799997      -1.28039710      -0.76005684
H        3.15861582       0.83508166       0.54799163
H        3.01314386      -0.86183623      -0.31335162
H        2.64710159       0.76062284      -1.23864399
18
Frame=3 idx=006566 GeodesicLength=0.12464292039548067 rxn_smarts="[C:1]([C:2]([C:3]([C:4]([C:5]([H:16])([H:17])[H:18])([H:14])[H:15])([C:6]#[N:7])[H:13])([H:11])[H:12])([H:8])([H:9])[H:10]>>[C:1]([C:2]([C:3](=[C:6]=[N:7][C:5]([C:4]([H:14])([H:15])[H:17])([H:16])[H:18])[H:13])([H:11])[H:12])([H:8])([H:9])[H:10]"
C       -2.84992325       0.12904921      -0.04027674
C       -1.45609086      -0.43891870      -0.30054774
C       -0.38596970       0.10448741       0.61818990
C        1.75208612      -0.76597732       0.04251662
C        2.53062067       0.42540293      -0.20407958
C        0.23431903       1.28670206       0.32310430
N        1.07818748       2.05720007       0.03437174
H       -3.59092662      -0.31264583      -0.71057217
H       -2.85783938       1.21058893      -0.18800009
H       -3.16490725      -0.06704763       0.98720255
H       -1.48618524      -1.52838635      -0.19065196
H       -1.17375360      -0.24132781      -1.33919991
H       -0.52645894      -0.08657376       1.67988100
H        1.77423069      -1.24418706       1.01153700
H        1.26808690      -1.26406093      -0.78665305
H        3.15282758       0.82700129       0.58306448
H        3.02349177      -0.86205506      -0.30282590
H        2.67820459       0.77074854      -1.21706046
18
Frame=4 idx=006566 GeodesicLength=0.16567029113372062 rxn_smarts="[C:1]([C:2]([C:3]([C:4]([C:5]([H:16])([H:17])[H:18])([H:14])[H:15])([C:6]#[N:7])[H:13])([H:11])[H:12])([H:8])([H:9])[H:10]>>[C:1]([C:2]([C:3](=[C:6]=[N:7][C:5]([C:4]([H:14])([H:15])[H:17])([H:16])[H:18])[H:13])([H:11])[H:12])([H:8])([H:9])[H:10]"
C       -2.85175721       0.12858756      -0.03015254
C       -1.46240385      -0.44418849      -0.30210514
C       -0.38007607       0.10166057       0.60182776
C        1.74727537      -0.76456238       0.03467961
C        2.53741061       0.42930843      -0.18729148
C        0.22674153       1.28948190       0.29430570
N        1.07694939       2.05555055       0.01098599
H       -3.60074217      -0.31590524      -0.68948093
H       -2.85936044       1.20911002      -0.18513594
H       -3.15611175      -0.05990759       1.00194145
H       -1.49291764      -1.53276014      -0.18450682
H       -1.19086388      -0.25413236      -1.34494782
H       -0.51984484      -0.07318312       1.66672696
H        1.76018457      -1.25888002       0.99632294
H        1.27835641      -1.24768687      -0.81258778
H        3.14604284       0.81882172       0.61724350
H        3.03353595      -0.86210718      -0.29265260
H        2.70758118       0.78079264      -1.19517282
18
Frame=5 idx=006566 GeodesicLength=0.20656157322069066 rxn_smarts="[C:1]([C:2]([C:3]([C:4]([C:5]([H:16])([H:17])[H:18])([H:14])[H:15])([C:6]#[N:7])[H:13])([H:11])[H:12])([H:8])([H:9])[H:10]>>[C:1]([C:2]([C:3](=[C:6]=[N:7][C:5]([C:4]([H:14])([H:15])[H:17])([H:16])[H:18])[H:13])([H:11])[H:12])([H:8])([H:9])[H:10]"
C       -2.85319807       0.12828872      -0.02022838
C       -1.46843234      -0.44947107      -0.30340549
C       -0.37423433       0.09891365       0.58567002
C        1.74241690      -0.76320492       0.02658608
C        2.54341090       0.43313569      -0.17047828
C        0.21927231       1.29199630       0.26572650
N        1.07576345       2.05361744      -0.01215590
H       -3.60996087      -0.31907125      -0.66848381
H       -2.86053203       1.20770023      -0.18276120
H       -3.14702682      -0.05231099       1.01631690
H       -1.49934026      -1.53706577      -0.17788227
H       -1.20753631      -0.26718833      -1.35025872
H       -0.51304936      -0.05997516       1.65351655
H        1.74636635      -1.27352491       0.98049041
H        1.28883662      -1.23106860      -0.83817871
H        3.13817115       0.81042070       0.65096048
H        3.04334938      -0.86202346      -0.28268604
H        2.73572332       0.79083174      -1.17274813
18
Frame=6 idx=006566 GeodesicLength=0.24743485402633997 rxn_smarts="[C:1]([C:2]([C:3]([C:4]([C:5]([H:16])([H:17])[H:18])([H:14])[H:15])([C:6]#[N:7])[H:13])([H:11])[H:12])([H:8])([H:9])[H:10]>>[C:1]([C:2]([C:3](=[C:6]=[N:7][C:5]([C:4]([H:14])([H:15])[H:17])([H:16])[H:18])[H:13])([H:11])[H:12])([H:8])([H:9])[H:10]"
C       -2.85429766       0.12809474      -0.01037766
C       -1.47422845      -0.45477913      -0.30445438
C       -0.36842358       0.09634763       0.56955284
C        1.73748579      -0.76189742       0.01805873
C        2.54872042       0.43686324      -0.15344018
C        0.21191440       1.29431102       0.23700272
N        1.07469656       2.05141464      -0.03534676
H       -3.61870714      -0.32231227      -0.64729158
H       -2.86149503       1.20627883      -0.18085783
H       -3.13755535      -0.04421913       1.03051221
H       -1.50542964      -1.54130417      -0.17069739
H       -1.22396021      -0.28058036      -1.35518493
H       -0.50596682      -0.04671061       1.64012804
H        1.73254301      -1.28830820       0.96375547
H        1.29957411      -1.21396422      -0.86376167
H        3.12903805       0.80165744       0.68466271
H        3.05298702      -0.86182924      -0.27277198
H        2.76310451       0.80093721      -1.14948834
18
Frame=7 idx=006566 GeodesicLength=0.2884135247871402 rxn_smarts="[C:1]([C:2]([C:3]([C:4]([C:5]([H:16])([H:17])[H:18])([H:14])[H:15])([C:6]#[N:7])[H:13])([H:11])[H:12])([H:8])([H:9])[H:10]>>[C:1]([C:2]([C:3](=[C:6]=[N:7][C:5]([C:4]([H:14])([H:15])[H:17])([H:16])[H:18])[H:13])([H:11])[H:12])([H:8])([H:9])[H:10]"
C       -2.85508808       0.12795570      -0.00048518
C       -1.47982663      -0.46011868      -0.30525192
C       -0.36262121       0.09405336       0.55332645
C        1.73246535      -0.76063669       0.00893378
C        2.55339411       0.44046628      -0.13599716
C        0.20467208       1.29647411       0.20780564
N        1.07380754       2.04894540      -0.05887835
H       -3.62706796      -0.32575775      -0.62564790
H       -2.86236348       1.20476936      -0.17938860
H       -3.12760138      -0.03561148       1.04467521
H       -1.51114817      -1.54546262      -0.16287284
H       -1.24029367      -0.29437946      -1.35975662
H       -0.49849793      -0.03316673       1.62644192
H        1.71851533      -1.30338714       0.94584593
H        1.31062320      -1.19615792      -0.88962093
H        3.11842552       0.79239701       0.71873382
H        3.06248666      -0.86154893      -0.26276679
H        2.79011873       0.81116617      -1.12509647
18
Frame=8 idx=006566 GeodesicLength=0.3294074210896829 rxn_smarts="[C:1]([C:2]([C:3]([C:4]([C:5]([H:16])([H:17])[H:18])([H:14])[H:15])([C:6]#[N:7])[H:13])([H:11])[H:12])([H:8])([H:9])[H:10]>>[C:1]([C:2]([C:3](=[C:6]=[N:7][C:5]([C:4]([H:14])([H:15])[H:17])([H:16])[H:18])[H:13])([H:11])[H:12])([H:8])([H:9])[H:10]"
C       -2.85552584       0.12795191       0.00931522
C       -1.48517883      -0.46546630      -0.30581843
C       -0.35684188       0.09186861       0.53716753
C        1.72741909      -0.75943083      -0.00056577
C        2.55732103       0.44395867      -0.11840187
C        0.19754086       1.29840080       0.17859289
N        1.07299765       2.04616763      -0.08246289
H       -3.63493050      -0.32916153      -0.60387589
H       -2.86299959       1.20327423      -0.17831612
H       -3.11727727      -0.02654989       1.05859815
H       -1.51653401      -1.54952832      -0.15457391
H       -1.25633260      -0.30843993      -1.36393339
H       -0.49077870      -0.01967650       1.61260034
H        1.70459803      -1.31849426       0.92712306
H        1.32195236      -1.17794928      -0.91531097
H        3.10655519       0.78280147       0.75259336
H        3.07183296      -0.86113800      -0.25277645
H        2.81618203       0.82141152      -1.09995485
18
Frame=9 idx=006566 GeodesicLength=0.3703392515819402 rxn_smarts="[C:1]([C:2]([C:3]([C:4]([C:5]([H:16])([H:17])[H:18])([H:14])[H:15])([C:6]#[N:7])[H:13])([H:11])[H:12])([H:8])([H:9])[H:10]>>[C:1]([C:2]([C:3](=[C:6]=[N:7][C:5]([C:4]([H:14])([H:15])[H:17])([H:16])[H:18])[H:13])([H:11])[H:12])([H:8])([H:9])[H:10]"
C       -2.85559912       0.12813400       0.01892001
C       -1.49026021      -0.47078627      -0.30618980
C       -0.35110306       0.08966430       0.52121740
C        1.72239934      -0.75828567      -0.01022613
C        2.56044959       0.44735389      -0.10087741
C        0.19051824       1.30003817       0.14975069
N        1.07218841       2.04305487      -0.10587137
H       -3.64222868      -0.33232029      -0.58226006
H       -2.86331830       1.20187178      -0.17755750
H       -3.10669984      -0.01715374       1.07211755
H       -1.52162715      -1.55348078      -0.14598685
H       -1.27193167      -0.32258865      -1.36770644
H       -0.48293999      -0.00651061       1.59872657
H        1.69104982      -1.33339372       0.90794988
H        1.33351751      -1.15961387      -0.94044973
H        3.09369626       0.77301854       0.78575878
H        3.08102830      -0.86056921      -0.24287547
H        2.84086057       0.83156727      -1.07444013
18
Frame=10 idx=006566 GeodesicLength=0.4113191000189404 rxn_smarts="[C:1]([C:2]([C:3]([C:4]([C:5]([H:16])([H:17])[H:18])([H:14])[H:15])([C:6]#[N:7])[H:13])([H:11])[H:12])([H:8])([H:9])[H:10]>>[C:1]([C:2]([C:3](=[C:6]=[N:7][C:5]([C:4]([H:14])([H:15])[H:17])([H:16])[H:18])[H:13])([H:11])[H:12])([H:8])([H:9])[H:10]"
C       -2.85534056       0.12846259       0.02843599
C       -1.49511216      -0.47609410      -0.30636262
C       -0.34538488       0.08751333       0.50532882
C        1.71739342      -0.75719647      -0.02020881
C        2.56283998       0.45063599      -0.08324989
C        0.18359719       1.30142241       0.12096742
N        1.07143516       2.03960716      -0.12935586
H       -3.64905528      -0.33537286      -0.56053295
H       -2.86342300       1.20049134      -0.17712393
H       -3.09576992      -0.00735101       1.08538191
H       -1.52641116      -1.55731656      -0.13702339
H       -1.28724831      -0.33691717      -1.37110344
H       -0.47488531       0.00652341       1.58470043
H        1.67768820      -1.34824177       0.88806624
H        1.34537337      -1.14094129      -0.96532067
H        3.07966031       0.76292009       0.81860295
H        3.09011084      -0.85985742      -0.23293328
H        2.86453210       0.84171231      -1.04826891
18
Frame=11 idx=006566 GeodesicLength=0.4522806267771415 rxn_smarts="[C:1]([C:2]([C:3]([C:4]([C:5]([H:16])([H:17])[H:18])([H:14])[H:15])([C:6]#[N:7])[H:13])([H:11])[H:12])([H:8])([H:9])[H:10]>>[C:1]([C:2]([C:3](=[C:6]=[N:7][C:5]([C:4]([H:14])([H:15])[H:17])([H:16])[H:18])[H:13])([H:11])[H:12])([H:8])([H:9])[H:10]"
C       -2.85474583       0.12898709       0.03776023
C       -1.49972141      -0.48137029      -0.30636313
C       -0.33970546       0.08529034       0.48963942
C        1.71244520      -0.75616853      -0.03032329
C        2.56446334       0.45382740      -0.06572512
C        0.17676981       1.30250811       0.09260360
N        1.07066733       2.03581319      -0.15266811
H       -3.65536131      -0.33814225      -0.53896119
H       -2.86322700       1.19920874      -0.17697610
H       -3.08460406       0.00277821       1.09824426
H       -1.53094547      -1.56103298      -0.12783071
H       -1.30215374      -0.35129548      -1.37411870
H       -0.46673668       0.01916855       1.57064988
H        1.66475090      -1.36283785       0.86781167
H        1.35746517      -1.12218136      -0.98959785
H        3.06473746       0.75264234       0.85070058
H        3.09908619      -0.85897243      -0.22303902
H        2.88681555       0.85177722      -1.02180643
18
Frame=12 idx=006566 GeodesicLength=0.4931536445991035 rxn_smarts="[C:1]([C:2]([C:3]([C:4]([C:5]([H:16])([H:17])[H:18])([H:14])[H:15])([C:6]#[N:7])[H:13])([H:11])[H:12])([H:8])([H:9])[H:10]>>[C:1]([C:2]([C:3](=[C:6]=[N:7][C:5]([C:4]([H:14])([H:15])[H:17])([H:16])[H:18])[H:13])([H:11])[H:12])([H:8])([H:9])[H:10]"
C       -2.85382692       0.12973806       0.04680638
C       -1.50408286      -0.48658720      -0.30622340
C       -0.33408555       0.08289364       0.47426757
C        1.70758609      -0.75520702      -0.04038445
C        2.56532604       0.45694952      -0.04849326
C        0.17002408       1.30326554       0.06497398
N        1.06982780       2.03167379      -0.17558281
H       -3.66111791      -0.34047782      -0.51779421
H       -2.86267424       1.19808388      -0.17704630
H       -3.07332442       0.01311718       1.11058017
H       -1.53528093      -1.56461943      -0.11856315
H       -1.31654624      -0.36558068      -1.37675905
H       -0.45861955       0.03121486       1.55668899
H        1.65243562      -1.37700267       0.84752753
H        1.36972933      -1.10357260      -1.01299355
H        3.04924621       0.74231289       0.88168513
H        3.10796509      -0.85789860      -0.21327264
H        2.90741836       0.86169667      -0.99541692
18
Frame=13 idx=006566 GeodesicLength=0.5338642828916866 rxn_smarts="[C:1]([C:2]([C:3]([C:4]([C:5]([H:16])([H:17])[H:18])([H:14])[H:15])([C:6]#[N:7])[H:13])([H:11])[H:12])([H:8])([H:9])[H:10]>>[C:1]([C:2]([C:3](=[C:6]=[N:7][C:5]([C:4]([H:14])([H:15])[H:17])([H:16])[H:18])[H:13])([H:11])[H:12])([H:8])([H:9])[H:10]"
C       -2.85261085       0.13072313       0.05550112
C       -1.50819859      -0.49171022      -0.30598081
C       -0.32854981       0.08025027       0.45932047
C        1.70283244      -0.75431508      -0.05021212
C        2.56546827       0.46002099      -0.03172760
C        0.16335184       1.30368718       0.03835068
N        1.06887372       2.02720875      -0.19789133
H       -3.66631465      -0.34226401      -0.49727224
H       -2.86174020       1.19715993      -0.17725063
H       -3.06206094       0.02350979       1.12228797
H       -1.53945879      -1.56806349      -0.10938212
H       -1.33034945      -0.37961474      -1.37904632
H       -0.45065619       0.04250263       1.54292821
H        1.64089822      -1.39057338       0.82756249
H        1.38207627      -1.08533376      -1.03525681
H        3.03355125       0.73204564       0.91124447
H        3.11675717      -0.85663294      -0.20371180
H        2.92613028       0.87139932      -0.96946363
18
Frame=14 idx=006566 GeodesicLength=0.5745101042450572 rxn_smarts="[C:1]([C:2]([C:3]([C:4]([C:5]([H:16])([H:17])[H:18])([H:14])[H:15])([C:6]#[N:7])[H:13])([H:11])[H:12])([H:8])([H:9])[H:10]>>[C:1]([C:2]([C:3](=[C:6]=[N:7][C:5]([C:4]([H:14])([H:15])[H:17])([H:16])[H:18])[H:13])([H:11])[H:12])([H:8])([H:9])[H:10]"
C       -2.85113121       0.13191394       0.06393975
C       -1.51211845      -0.49676544      -0.30563333
C       -0.32308033       0.07741799       0.44466031
C        1.69817553      -0.75348980      -0.05995380
C        2.56495680       0.46303898      -0.01526711
C        0.15674486       1.30380771       0.01244319
N        1.06784855       2.02242414      -0.21981532
H       -3.67104979      -0.34362305      -0.47715183
H       -2.86050475       1.19638756      -0.17760923
H       -3.05072430       0.03404138       1.13351201
H       -1.54349130      -1.57138015      -0.10019532
H       -1.34371914      -0.39350401      -1.38101654
H       -0.44275471       0.05319576       1.52926115
H        1.62997843      -1.40371832       0.80767976
H        1.39456267      -1.06728623      -1.05665835
H        3.01748816       0.72174363       0.93974047
H        3.12550937      -0.85518168      -0.19423990
H        2.94330962       0.88097760      -0.94369592
18
Frame=15 idx=006566 GeodesicLength=0.615010549606222 rxn_smarts="[C:1]([C:2]([C:3]([C:4]([C:5]([H:16])([H:17])[H:18])([H:14])[H:15])([C:6]#[N:7])[H:13])([H:11])[H:12])([H:8])([H:9])[H:10]>>[C:1]([C:2]([C:3](=[C:6]=[N:7][C:5]([C:4]([H:14])([H:15])[H:17])([H:16])[H:18])[H:13])([H:11])[H:12])([H:8])([H:9])[H:10]"
C       -2.84942148       0.13330517       0.07206147
C       -1.51584773      -0.50171480      -0.30522217
C       -0.31770245       0.07434552       0.43037893
C        1.69362438      -0.75273307      -0.06943656
C        2.56384448       0.46601656       0.00073138
C        0.15020210       1.30363143      -0.01252093
N        1.06672676       2.01734577      -0.24116904
H       -3.67532133      -0.34446239      -0.45765920
H       -2.85895481       1.19580354      -0.17801160
H       -3.03944473       0.04452603       1.14416796
H       -1.54741453      -1.57455579      -0.09116419
H       -1.35659408      -0.40708839      -1.38270138
H       -0.43503722       0.06317817       1.51578520
H        1.61979647      -1.41628447       0.78821254
H        1.40710246      -1.04962988      -1.07697191
H        3.00141087       0.71151098       0.96690102
H        3.13423140      -0.85354555      -0.18492997
H        2.95879942       0.89035115      -0.91845155
18
Frame=16 idx=006566 GeodesicLength=0.6554528976467412 rxn_smarts="[C:1]([C:2]([C:3]([C:4]([C:5]([H:16])([H:17])[H:18])([H:14])[H:15])([C:6]#[N:7])[H:13])([H:11])[H:12])([H:8])([H:9])[H:10]>>[C:1]([C:2]([C:3](=[C:6]=[N:7][C:5]([C:4]([H:14])([H:15])[H:17])([H:16])[H:18])[H:13])([H:11])[H:12])([H:8])([H:9])[H:10]"
C       -2.84750497       0.13488056       0.07994648
C       -1.51943085      -0.50658633      -0.30474477
C       -0.31240090       0.07106943       0.41635684
C        1.68917780      -0.75204360      -0.07878787
C        2.56217977       0.46895730       0.01640593
C        0.14371322       1.30317677      -0.03678624
N        1.06553483       2.01197183      -0.26214181
H       -3.67921052      -0.34486669      -0.43858921
H       -2.85714499       1.19537390      -0.17847895
H       -3.02814182       0.05505142       1.15437752
H       -1.55124737      -1.57760881      -0.08220822
H       -1.36910881      -0.42046803      -1.38412960
H       -0.42741665       0.07256965       1.50240614
H        1.61023007      -1.42841987       0.76895828
H        1.41974662      -1.03222076      -1.09642454
H        2.98516814       0.70127871       0.99303053
H        3.14296613      -0.85172162      -0.17567848
H        2.97289029       0.89960614      -0.89351205
