11
Frame=0 idx=004448 GeodesicLength=0.0 rxn_smarts="[N:1]1([H:7])[C@@:2]2([H:8])[C@:3]1([H:9])[C@@:4]1([H:10])[O:5][C@@:6]21[H:11]>>[N:1]1([H:7])[C@@:2]2([H:8])[C@:3]1([H:9])[C@:4]([O:5][H:11])([H:10])[C:6]2"
N        1.02533658       0.36023102       1.02679446
C        0.21705942       1.13241336       0.10685438
C        0.98564627      -0.06816860      -0.33703404
C       -0.37033662      -0.77345236      -0.65464523
O       -1.06264409      -1.10622993       0.54450930
C       -1.11278572       0.46612286      -0.33832470
H        0.46149622      -0.23324910       1.62725801
H        0.39388785       2.19489455       0.01930826
H        1.89575062      -0.16103875      -0.91224542
H       -0.51393215      -1.45300759      -1.48766191
H       -1.91947834      -0.35851542       0.40518688
11
Frame=1 idx=004448 GeodesicLength=0.04694029579570733 rxn_smarts="[N:1]1([H:7])[C@@:2]2([H:8])[C@:3]1([H:9])[C@@:4]1([H:10])[O:5][C@@:6]21[H:11]>>[N:1]1([H:7])[C@@:2]2([H:8])[C@:3]1([H:9])[C@:4]([O:5][H:11])([H:10])[C:6]2"
N        1.02771197       0.35955038       1.02661627
C        0.21658081       1.13479231       0.11193406
C        0.98366875      -0.06943321      -0.33732608
C       -0.36669254      -0.78093220      -0.65036083
O       -1.06523181      -1.10437960       0.54683950
C       -1.10196375       0.46486957      -0.34335929
H        0.46546746      -0.23590868       1.62674859
H        0.39489748       2.19698907       0.02340797
H        1.89038741      -0.15259421      -0.91919690
H       -0.51323969      -1.45876866      -1.48393750
H       -1.93158607      -0.35418477       0.39863421
11
Frame=2 idx=004448 GeodesicLength=0.09387784589000026 rxn_smarts="[N:1]1([H:7])[C@@:2]2([H:8])[C@:3]1([H:9])[C@@:4]1([H:10])[O:5][C@@:6]21[H:11]>>[N:1]1([H:7])[C@@:2]2([H:8])[C@:3]1([H:9])[C@:4]([O:5][H:11])([H:10])[C:6]2"
N        1.03011667       0.35891682       1.02641638
C        0.21607757       1.13714024       0.11701074
C        0.98172542      -0.07071927      -0.33760821
C       -0.36305643      -0.78835370      -0.64603504
O       -1.06774820      -1.10254385       0.54914259
C       -1.09112610       0.46355294      -0.34823495
H        0.46951330      -0.23854219       1.62623140
H        0.39583717       2.19905360       0.02745037
H        1.88493136      -0.14426050      -0.92606933
H       -0.51256211      -1.46440318      -1.48021712
H       -1.94370866      -0.34984091       0.39191318
11
Frame=3 idx=004448 GeodesicLength=0.14080719844042566 rxn_smarts="[N:1]1([H:7])[C@@:2]2([H:8])[C@:3]1([H:9])[C@@:4]1([H:10])[O:5][C@@:6]21[H:11]>>[N:1]1([H:7])[C@@:2]2([H:8])[C@:3]1([H:9])[C@:4]([O:5][H:11])([H:10])[C:6]2"
N        1.03254674       0.35833592       1.02619556
C        0.21554850       1.13945790       0.12207897
C        0.97981593      -0.07202877      -0.33787719
C       -0.35943069      -0.79570925      -0.64167603
O       -1.07018241      -1.10073558       0.55141495
C       -1.08028153       0.46217502      -0.35293798
H        0.47362934      -0.24114163       1.62570821
H        0.39670952       2.20108709       0.03141812
H        1.87939227      -0.13605482      -0.93284579
H       -0.51190630      -1.46989047      -1.47651812
H       -1.95584136      -0.34549542       0.38503931
11
Frame=4 idx=004448 GeodesicLength=0.18773337326766376 rxn_smarts="[N:1]1([H:7])[C@@:2]2([H:8])[C@:3]1([H:9])[C@@:4]1([H:10])[O:5][C@@:6]21[H:11]>>[N:1]1([H:7])[C@@:2]2([H:8])[C@:3]1([H:9])[C@:4]([O:5][H:11])([H:10])[C:6]2"
N        1.03500340       0.35780503       1.02595431
C        0.21499489       1.14174388       0.12713903
C        0.97794233      -0.07336482      -0.33813258
C       -0.35581564      -0.80299870      -0.63728353
O       -1.07253735      -1.09895234       0.55365961
C       -1.06943112       0.46074024      -0.35747011
H        0.47781767      -0.24370998       1.62517997
H        0.39751637       2.20308880       0.03531583
H        1.87377092      -0.12796672      -0.93953587
H       -0.51126929      -1.47523904      -1.47283317
H       -1.96799217      -0.34114635       0.37800651
11
Frame=5 idx=004448 GeodesicLength=0.23466163470937385 rxn_smarts="[N:1]1([H:7])[C@@:2]2([H:8])[C@:3]1([H:9])[C@@:4]1([H:10])[O:5][C@@:6]21[H:11]>>[N:1]1([H:7])[C@@:2]2([H:8])[C@:3]1([H:9])[C@:4]([O:5][H:11])([H:10])[C:6]2"
N        1.03748880       0.35732447       1.02569357
C        0.21441804       1.14399791       0.13219049
C        0.97610631      -0.07473010      -0.33837362
C       -0.35221039      -0.81022308      -0.63285841
O       -1.07481225      -1.09719320       0.55588049
C       -1.05857636       0.45925293      -0.36183266
H        0.48208125      -0.24624598       1.62464892
H        0.39825891       2.20506002       0.03914989
H        1.86806687      -0.11999299      -0.94614566
H       -0.51065383      -1.48045406      -1.46915959
H       -1.98016736      -0.33679591       0.37080658
11
Frame=6 idx=004448 GeodesicLength=0.281587389421981 rxn_smarts="[N:1]1([H:7])[C@@:2]2([H:8])[C@:3]1([H:9])[C@@:4]1([H:10])[O:5][C@@:6]21[H:11]>>[N:1]1([H:7])[C@@:2]2([H:8])[C@:3]1([H:9])[C@:4]([O:5][H:11])([H:10])[C:6]2"
N        1.04000448       0.35689234       1.02541049
C        0.21381956       1.14621654       0.13723264
C        0.97430984      -0.07612726      -0.33859909
C       -0.34861518      -0.81737988      -0.62839652
O       -1.07700933      -1.09545444       0.55808042
C       -1.04771777       0.45771295      -0.36602406
H        0.48642090      -0.24874840       1.62411241
H        0.39894335       2.20699455       0.04292499
H        1.86227978      -0.11212093      -0.95268227
H       -0.51006067      -1.48553755      -1.46548674
H       -1.99237498      -0.33244792       0.36342772
11
Frame=7 idx=004448 GeodesicLength=0.32851380970671573 rxn_smarts="[N:1]1([H:7])[C@@:2]2([H:8])[C@:3]1([H:9])[C@@:4]1([H:10])[O:5][C@@:6]21[H:11]>>[N:1]1([H:7])[C@@:2]2([H:8])[C@:3]1([H:9])[C@:4]([O:5][H:11])([H:10])[C:6]2"
N        1.04254583       0.35651171       1.02510783
C        0.21319952       1.14840055       0.14226033
C        0.97255425      -0.07755966      -0.33880621
C       -0.34503110      -0.82446580      -0.62390798
O       -1.07912040      -1.09374876       0.56025740
C       -1.03686274       0.45612520      -0.37003697
H        0.49082997      -0.25121325       1.62357372
H        0.39956893       2.20889430       0.04662734
H        1.85641856      -0.10436274      -0.95913509
H       -0.50949191      -1.49047670      -1.46183143
H       -2.00461091      -0.32810486       0.35589107
11
Frame=8 idx=004448 GeodesicLength=0.3754440867018735 rxn_smarts="[N:1]1([H:7])[C@@:2]2([H:8])[C@:3]1([H:9])[C@@:4]1([H:10])[O:5][C@@:6]21[H:11]>>[N:1]1([H:7])[C@@:2]2([H:8])[C@:3]1([H:9])[C@:4]([O:5][H:11])([H:10])[C:6]2"
N        1.04511838       0.35618065       1.02478419
C        0.21255931       1.15054916       0.14727586
C        0.97084043      -0.07902774      -0.33899675
C       -0.34145849      -0.83148134      -0.61939056
O       -1.08114955      -1.09206891       0.56241562
C       -1.02601149       0.45449426      -0.37387790
H        0.49531767      -0.25364406       1.62303076
H        0.40013456       2.21076008       0.05027411
H        1.85047821      -0.09671008      -0.96551546
H       -0.50894389      -1.49528923      -1.45817892
H       -2.01688517      -0.32376277       0.34817904
11
Frame=9 idx=004448 GeodesicLength=0.4223773901473984 rxn_smarts="[N:1]1([H:7])[C@@:2]2([H:8])[C@:3]1([H:9])[C@@:4]1([H:10])[O:5][C@@:6]21[H:11]>>[N:1]1([H:7])[C@@:2]2([H:8])[C@:3]1([H:9])[C@:4]([O:5][H:11])([H:10])[C:6]2"
N        1.04772401       0.35589690       1.02444013
C        0.21190052       1.15266201       0.15228106
C        0.96917117      -0.08053371      -0.33917021
C       -0.33789715      -0.83842608      -0.61484052
O       -1.08309886      -1.09041119       0.56455973
C       -1.01516430       0.45282315      -0.37754635
H        0.49988633      -0.25604303       1.62248527
H        0.40064585       2.21259103       0.05386829
H        1.84445723      -0.08915181      -0.97183385
H       -0.50841887      -1.49998047      -1.45452019
H       -2.02920594      -0.31942678       0.34027665
11
Frame=10 idx=004448 GeodesicLength=0.4693203373499507 rxn_smarts="[N:1]1([H:7])[C@@:2]2([H:8])[C@:3]1([H:9])[C@@:4]1([H:10])[O:5][C@@:6]21[H:11]>>[N:1]1([H:7])[C@@:2]2([H:8])[C@:3]1([H:9])[C@:4]([O:5][H:11])([H:10])[C:6]2"
N        1.05036494       0.35565917       1.02407367
C        0.21122486       1.15473804       0.15727496
C        0.96754824      -0.08207929      -0.33932786
C       -0.33434568      -0.84530203      -0.61025779
O       -1.08496970      -1.08877202       0.56669471
C       -1.00432097       0.45111478      -0.38104776
H        0.50453960      -0.25841183       1.62193591
H        0.40109920       2.21438856       0.05742309
H        1.83835396      -0.08168397      -0.97809733
H       -0.50791531      -1.50455951      -1.45084784
H       -2.04157913      -0.31509190       0.33217623
11
Frame=11 idx=004448 GeodesicLength=0.5162696118966507 rxn_smarts="[N:1]1([H:7])[C@@:2]2([H:8])[C@:3]1([H:9])[C@@:4]1([H:10])[O:5][C@@:6]21[H:11]>>[N:1]1([H:7])[C@@:2]2([H:8])[C@:3]1([H:9])[C@:4]([O:5][H:11])([H:10])[C:6]2"
N        1.05303971       0.35547254       1.02368578
C        0.21053166       1.15677806       0.16225431
C        0.96597095      -0.08366470      -0.33946757
C       -0.33080636      -0.85210363      -0.60564942
O       -1.08675298      -1.08716265       0.56881883
C       -0.99348923       0.44937166      -0.38437120
H        0.50927688      -0.26074385       1.62138378
H        0.40149553       2.21615198       0.06092463
H        1.83217628      -0.07432304      -0.98429054
H       -0.50743886      -1.50900952      -1.44717708
H       -2.05400356      -0.31076684       0.32388848
11
Frame=12 idx=004448 GeodesicLength=0.5632277981873753 rxn_smarts="[N:1]1([H:7])[C@@:2]2([H:8])[C@:3]1([H:9])[C@@:4]1([H:10])[O:5][C@@:6]21[H:11]>>[N:1]1([H:7])[C@@:2]2([H:8])[C@:3]1([H:9])[C@:4]([O:5][H:11])([H:10])[C:6]2"
N        1.05575065       0.35533304       1.02327413
C        0.20982408       1.15878056       0.16722025
C        0.96444261      -0.08529188      -0.33959058
C       -0.32727888      -0.85883050      -0.60101258
O       -1.08845310      -1.08557683       0.57093582
C       -0.98266786       0.44759790      -0.38752050
H        0.51409999      -0.26304241       1.62082662
H        0.40183443       2.21788064       0.06438430
H        1.82592267      -0.06705757      -0.99042534
H       -0.50698641      -1.51334331      -1.44349482
H       -2.06648817      -0.30644965       0.31540270
11
Frame=13 idx=004448 GeodesicLength=0.6101949616340729 rxn_smarts="[N:1]1([H:7])[C@@:2]2([H:8])[C@:3]1([H:9])[C@@:4]1([H:10])[O:5][C@@:6]21[H:11]>>[N:1]1([H:7])[C@@:2]2([H:8])[C@:3]1([H:9])[C@:4]([O:5][H:11])([H:10])[C:6]2"
N        1.05850174       0.35523778       1.02283836
C        0.20910246       1.16074454       0.17217436
C        0.96296297      -0.08696317      -0.33969830
C       -0.32376339      -0.86548594      -0.59634537
O       -1.09007318      -1.08401004       0.57305119
C       -0.97185764       0.44579533      -0.39050152
H        0.51901504      -0.26531101       1.62026512
H        0.40211700       2.21957557       0.06781454
H        1.81958618      -0.05987624      -0.99651213
H       -0.50655363      -1.51757403      -1.43979068
H       -2.07903755      -0.30213278       0.30670444
11
Frame=14 idx=004448 GeodesicLength=0.6571715480951483 rxn_smarts="[N:1]1([H:7])[C@@:2]2([H:8])[C@:3]1([H:9])[C@@:4]1([H:10])[O:5][C@@:6]21[H:11]>>[N:1]1([H:7])[C@@:2]2([H:8])[C@:3]1([H:9])[C@:4]([O:5][H:11])([H:10])[C:6]2"
N        1.06129040       0.35519106       1.02237793
C        0.20836658       1.16267205       0.17711335
C        0.96153256      -0.08867691      -0.33979014
C       -0.32026163      -0.87206456      -0.59165496
O       -1.09160410      -1.08247318       0.57516380
C       -0.96106568       0.44396649      -0.39330476
H        0.52401925      -0.26754339       1.61969950
H        0.40234530       2.22123716       0.07120260
H        1.81317874      -0.05279594      -1.00253523
H       -0.50614773      -1.52168570      -1.43607938
H       -2.09165367      -0.29782708       0.29780729
11
Frame=15 idx=004448 GeodesicLength=0.7041539735000953 rxn_smarts="[N:1]1([H:7])[C@@:2]2([H:8])[C@:3]1([H:9])[C@@:4]1([H:10])[O:5][C@@:6]21[H:11]>>[N:1]1([H:7])[C@@:2]2([H:8])[C@:3]1([H:9])[C@:4]([O:5][H:11])([H:10])[C:6]2"
N        1.06411387       0.35519567       1.02189293
C        0.20761571       1.16456462       0.18203419
C        0.96015062      -0.09043305      -0.33986531
C       -0.31677466      -0.87856289      -0.58694829
O       -1.09303792      -1.08097656       0.57727308
C       -0.95029871       0.44211269      -0.39592365
H        0.52910925      -0.26973460       1.61913074
H        0.40252076       2.22286578       0.07453786
H        1.80670998      -0.04582915      -1.00848249
H       -0.50577321      -1.52566513      -1.43237367
H       -2.10433570      -0.29353737       0.28872461
11
Frame=16 idx=004448 GeodesicLength=0.7511392293943159 rxn_smarts="[N:1]1([H:7])[C@@:2]2([H:8])[C@:3]1([H:9])[C@@:4]1([H:10])[O:5][C@@:6]21[H:11]>>[N:1]1([H:7])[C@@:2]2([H:8])[C@:3]1([H:9])[C@:4]([O:5][H:11])([H:10])[C:6]2"
N        1.06696938       0.35525409       1.02138343
C        0.20684927       1.16642390       0.18693406
C        0.95881652      -0.09223124      -0.33992313
C       -0.31330349      -0.88497804      -0.58223248
O       -1.09436711      -1.07953037       0.57937863
C       -0.93956317       0.44023542      -0.39835265
H        0.53428161      -0.27188007       1.61855972
H        0.40264502       2.22446187       0.07781027
H        1.80019030      -0.03898727      -1.01434225
H       -0.50543441      -1.52950043      -1.42868595
H       -2.11708391      -0.28926785       0.27947034
