12
Frame=0 idx=003229 GeodesicLength=0.0 rxn_smarts="[C:1]1([H:5])([H:6])[C:2]([H:7])([H:8])[C:3]([H:9])([H:10])[C:4]1([H:11])[H:12]>>[C:1](=[C:4]([H:11])[H:12])([H:5])[H:6].[C:2](=[C:3]([H:9])[H:10])([H:7])[H:8]"
C       -0.59077893      -1.34737624       0.24913758
C       -0.34885972       0.63848151       0.56763312
C        0.58980499       1.35130847      -0.24751073
C        0.34856328      -0.63755090      -0.56662198
H       -1.61035998      -1.47801238      -0.07649990
H       -0.26737050      -1.83715114       1.15366351
H       -1.39886506       0.84160586       0.40809643
H       -0.09474586       0.49059242       1.60817945
H        0.26751201       1.83411484      -1.15598312
H        1.61158355       1.47460516       0.07371609
H        0.09503769      -0.48991107      -1.60732905
H        1.39847857      -0.84070649      -0.40648143
12
Frame=1 idx=003229 GeodesicLength=0.08494974120231567 rxn_smarts="[C:1]1([H:5])([H:6])[C:2]([H:7])([H:8])[C:3]([H:9])([H:10])[C:4]1([H:11])[H:12]>>[C:1](=[C:4]([H:11])[H:12])([H:5])[H:6].[C:2](=[C:3]([H:9])[H:10])([H:7])[H:8]"
C       -0.59212163      -1.34653701       0.24755092
C       -0.35159630       0.65227066       0.57671113
C        0.58772463       1.35040388      -0.24960259
C        0.35378345      -0.65190447      -0.57305221
H       -1.60822029      -1.48403506      -0.08781887
H       -0.27145122      -1.85338407       1.14421492
H       -1.40151333       0.86454030       0.42616445
H       -0.08938977       0.50969226       1.61646560
H        0.25851782       1.84123102      -1.15192897
H        1.60684910       1.49152399       0.07438681
H        0.10553127      -0.51222904      -1.61649777
H        1.40188626      -0.86157248      -0.40659343
12
Frame=2 idx=003229 GeodesicLength=0.16987755438992239 rxn_smarts="[C:1]1([H:5])([H:6])[C:2]([H:7])([H:8])[C:3]([H:9])([H:10])[C:4]1([H:11])[H:12]>>[C:1](=[C:4]([H:11])[H:12])([H:5])[H:6].[C:2](=[C:3]([H:9])[H:10])([H:7])[H:8]"
C       -0.59346339      -1.34549028       0.24573131
C       -0.35431569       0.66639309       0.58624521
C        0.58530435       1.34932599      -0.25173396
C        0.35937686      -0.66671241      -0.57955443
H       -1.60586987      -1.48979786      -0.09962124
H       -0.27621841      -1.87001634       1.13405006
H       -1.40396468       0.88814271       0.44507841
H       -0.08348774       0.52919896       1.62498956
H        0.24898468       1.84813137      -1.14771831
H        1.60150804       1.50908697       0.07454420
H        0.11666779      -0.53526121      -1.62573539
H        1.40547807      -0.88300099      -0.40627541
12
Frame=3 idx=003229 GeodesicLength=0.25479374507411506 rxn_smarts="[C:1]1([H:5])([H:6])[C:2]([H:7])([H:8])[C:3]([H:9])([H:10])[C:4]1([H:11])[H:12]>>[C:1](=[C:4]([H:11])[H:12])([H:5])[H:6].[C:2](=[C:3]([H:9])[H:10])([H:7])[H:8]"
C       -0.59478171      -1.34422634       0.24364452
C       -0.35701165       0.68086143       0.59627654
C        0.58250522       1.34806452      -0.25388316
C        0.36538132      -0.68200091      -0.58612708
H       -1.60328848      -1.49523784      -0.11194139
H       -0.28174599      -1.88702298       1.12311770
H       -1.40619510       0.91243666       0.46490461
H       -0.07700744       0.54911639       1.63376951
H        0.23885779       1.85476079      -1.14334377
H        1.59550038       1.52729849       0.07411428
H        0.12851030      -0.55904013      -1.63503618
H        1.40927536      -0.90501008      -0.40549558
12
Frame=4 idx=003229 GeodesicLength=0.3397056831750976 rxn_smarts="[C:1]1([H:5])([H:6])[C:2]([H:7])([H:8])[C:3]([H:9])([H:10])[C:4]1([H:11])[H:12]>>[C:1](=[C:4]([H:11])[H:12])([H:5])[H:6].[C:2](=[C:3]([H:9])[H:10])([H:7])[H:8]"
C       -0.59605001      -1.34273555       0.24125097
C       -0.35967586       0.69568752       0.60685068
C        0.57928126       1.34660640      -0.25602261
C        0.37183985      -0.69779874      -0.59276739
H       -1.60045348      -1.50027678      -0.12482180
H       -0.28811470      -1.90436690       1.11136304
H       -1.40817575       0.93744576       0.48571720
H       -0.06991243       0.56944659       1.64282506
H        0.22807153       1.86105088      -1.13879859
H        1.58875813       1.54615654       0.07301310
H        0.14112960      -0.58359861      -1.64439248
H        1.41330188      -0.92761712      -0.40421719
12
Frame=5 idx=003229 GeodesicLength=0.42461956697357606 rxn_smarts="[C:1]1([H:5])([H:6])[C:2]([H:7])([H:8])[C:3]([H:9])([H:10])[C:4]1([H:11])[H:12]>>[C:1](=[C:4]([H:11])[H:12])([H:5])[H:6].[C:2](=[C:3]([H:9])[H:10])([H:7])[H:8]"
C       -0.59723699      -1.34101358       0.23851268
C       -0.36230615       0.71088365       0.61800975
C        0.57559154       1.34494455      -0.25812006
C        0.37879050      -0.71413074      -0.59947768
H       -1.59734544      -1.50484411      -0.13829294
H       -0.29538240      -1.92200087       1.09874566
H       -1.40988427       0.96318752       0.50757136
H       -0.06218293       0.59019593       1.65217333
H        0.21657194       1.86693823      -1.13407626
H        1.58122514       1.56563863       0.07117347
H        0.15458132      -0.60895844      -1.65379979
H        1.41757773      -0.95084078      -0.40241953
12
Frame=6 idx=003229 GeodesicLength=0.5095369674247977 rxn_smarts="[C:1]1([H:5])([H:6])[C:2]([H:7])([H:8])[C:3]([H:9])([H:10])[C:4]1([H:11])[H:12]>>[C:1](=[C:4]([H:11])[H:12])([H:5])[H:6].[C:2](=[C:3]([H:9])[H:10])([H:7])[H:8]"
C       -0.59830680      -1.33905069       0.23537916
C       -0.36489398       0.72646109       0.62980709
C        0.57137756       1.34306509      -0.26014112
C        0.38628326      -0.73102611      -0.60625393
H       -1.59393723      -1.50883352      -0.15240816
H       -0.30363222      -1.93986197       1.08520803
H       -1.41128467       0.98968401       0.53054936
H       -0.05378006       0.61136456       1.66183666
H        0.20427199       1.87233057      -1.12917443
H        1.57282694       1.58571822       0.06850724
H        0.16894682      -0.63515399      -1.66324601
H        1.42212837      -0.97469726      -0.40006390
12
Frame=7 idx=003229 GeodesicLength=0.5944624801482925 rxn_smarts="[C:1]1([H:5])([H:6])[C:2]([H:7])([H:8])[C:3]([H:9])([H:10])[C:4]1([H:11])[H:12]>>[C:1](=[C:4]([H:11])[H:12])([H:5])[H:6].[C:2](=[C:3]([H:9])[H:10])([H:7])[H:8]"
C       -0.59921858      -1.33684451       0.23180534
C       -0.36743907       0.74243165       0.64228925
C        0.56659135       1.34095874      -0.26204430
C        0.39436104      -0.74851003      -0.61309988
H       -1.59020538      -1.51215311      -0.16720467
H       -0.31291438      -1.95787891       1.07071318
H       -1.41235155       1.01695287       0.55470663
H       -0.04468833       0.63296073       1.67183337
H        0.19110363       1.87714712      -1.12408902
H        1.56350391       1.60634789       0.06494807
H        0.18428440      -0.66220360      -1.67272434
H        1.42697298      -0.99920882      -0.39713362
12
Frame=8 idx=003229 GeodesicLength=0.6793957138131245 rxn_smarts="[C:1]1([H:5])([H:6])[C:2]([H:7])([H:8])[C:3]([H:9])([H:10])[C:4]1([H:11])[H:12]>>[C:1](=[C:4]([H:11])[H:12])([H:5])[H:6].[C:2](=[C:3]([H:9])[H:10])([H:7])[H:8]"
C       -0.59992582      -1.33438898       0.22773689
C       -0.36994104       0.75880683       0.65550766
C        0.56117228       1.33861101      -0.26378104
C        0.40306998      -0.76661107      -0.62001758
H       -1.58611963      -1.51468758      -0.18273380
H       -0.32328245      -1.97595898       1.05522006
H       -1.41304818       1.04501294       0.58010539
H       -0.03488257       0.65499441       1.68218170
H        0.17698033       1.88128236      -1.11881341
H        1.55318394       1.62746385       0.06042585
H        0.20066078      -0.69012867      -1.68222444
H        1.43213237      -1.02439613      -0.39360726
12
Frame=9 idx=003229 GeodesicLength=0.7643326222354367 rxn_smarts="[C:1]1([H:5])([H:6])[C:2]([H:7])([H:8])[C:3]([H:9])([H:10])[C:4]1([H:11])[H:12]>>[C:1](=[C:4]([H:11])[H:12])([H:5])[H:6].[C:2](=[C:3]([H:9])[H:10])([H:7])[H:8]"
C       -0.60038294      -1.33168739       0.22313208
C       -0.37239587       0.77560028       0.66950683
C        0.55507972       1.33601465      -0.26529939
C        0.41245003      -0.78535419      -0.62700897
H       -1.58165840      -1.51634043      -0.19903003
H       -0.33476882      -1.99401239       1.03870811
H       -1.41335427       1.07387114       0.60678543
H       -0.02437100       0.67747379       1.69289903
H        0.16184419       1.88464701      -1.11334612
H        1.54181368       1.64899481       0.05488155
H        0.21811912      -0.71893594      -1.69173430
H        1.43762456      -1.05027134      -0.38949422
12
Frame=10 idx=003229 GeodesicLength=0.8492747677224206 rxn_smarts="[C:1]1([H:5])([H:6])[C:2]([H:7])([H:8])[C:3]([H:9])([H:10])[C:4]1([H:11])[H:12]>>[C:1](=[C:4]([H:11])[H:12])([H:5])[H:6].[C:2](=[C:3]([H:9])[H:10])([H:7])[H:8]"
C       -0.60052887      -1.32873423       0.21793515
C       -0.37481818       0.79282399       0.68433369
C        0.54825020       1.33315094      -0.26654150
C        0.42254241      -0.80476293      -0.63408510
H       -1.57678099      -1.51699078      -0.21613942
H       -0.34738527      -2.01192305       1.02114572
H       -1.41323143       1.10355635       0.63478249
H       -0.01313981       0.70042948       1.70399739
H        0.14560282       1.88712805      -1.10767359
H        1.52932682       1.67083566       0.04828049
H        0.23670680      -0.74863939      -1.70124730
H        1.44345549      -1.07687407      -0.38478801
12
Frame=11 idx=003229 GeodesicLength=0.9342229928409808 rxn_smarts="[C:1]1([H:5])([H:6])[C:2]([H:7])([H:8])[C:3]([H:9])([H:10])[C:4]1([H:11])[H:12]>>[C:1](=[C:4]([H:11])[H:12])([H:5])[H:6].[C:2](=[C:3]([H:9])[H:10])([H:7])[H:8]"
C       -0.60030338      -1.32553966       0.21211315
C       -0.37722695       0.81049086       0.70002261
C        0.54064464       1.33000656      -0.26744341
C        0.43337427      -0.82485710      -0.64126521
H       -1.57145238      -1.51655440      -0.23407652
H       -0.36110655      -2.02957615       1.00252566
H       -1.41265745       1.13409444       0.66409158
H       -0.00122125       0.72389663       1.71548589
H        0.12820973       1.88863650      -1.10178132
H        1.51568125       1.69287013       0.04061597
H        0.25643029      -0.77923116      -1.71076305
H        1.44962778      -1.10423666      -0.37952536
12
Frame=12 idx=003229 GeodesicLength=1.0191809739934001 rxn_smarts="[C:1]1([H:5])([H:6])[C:2]([H:7])([H:8])[C:3]([H:9])([H:10])[C:4]1([H:11])[H:12]>>[C:1](=[C:4]([H:11])[H:12])([H:5])[H:6].[C:2](=[C:3]([H:9])[H:10])([H:7])[H:8]"
C       -0.59963460      -1.32210336       0.20561986
C       -0.37963543       0.82861881       0.71661090
C        0.53221235       1.32656219      -0.26793028
C        0.44497549      -0.84565890      -0.64856386
H       -1.56562536      -1.51491885      -0.25287109
H       -0.37590865      -2.04685056       0.98283204
H       -1.41160600       1.16551606       0.69471452
H        0.01136270       0.74791830       1.72737167
H        0.10959869       1.88905631      -1.09564883
H        1.50082173       1.71497415       0.03187616
H        0.27730147      -0.81071283      -1.72027559
H        1.45613760      -1.13240132      -0.37373550
12
Frame=13 idx=003229 GeodesicLength=1.1041544085975974 rxn_smarts="[C:1]1([H:5])([H:6])[C:2]([H:7])([H:8])[C:3]([H:9])([H:10])[C:4]1([H:11])[H:12]>>[C:1](=[C:4]([H:11])[H:12])([H:5])[H:6].[C:2](=[C:3]([H:9])[H:10])([H:7])[H:8]"
C       -0.59844606      -1.31844288       0.19844069
C       -0.38207895       0.84722805       0.73411426
C        0.52293391       1.32280211      -0.26792212
C        0.45735338      -0.86718247      -0.65601314
H       -1.55925723      -1.51203256      -0.27249688
H       -0.39169919      -2.06362822       0.96208569
H       -1.41007071       1.19785846       0.72658053
H        0.02452590       0.77255083       1.73965469
H        0.08976931       1.88831938      -1.08924687
H        1.48473327       1.73699961       0.02211506
H        0.29926579      -0.84306428      -1.72979600
H        1.46297061      -1.16140803      -0.36751591
12
Frame=14 idx=003229 GeodesicLength=1.1891418226424113 rxn_smarts="[C:1]1([H:5])([H:6])[C:2]([H:7])([H:8])[C:3]([H:9])([H:10])[C:4]1([H:11])[H:12]>>[C:1](=[C:4]([H:11])[H:12])([H:5])[H:6].[C:2](=[C:3]([H:9])[H:10])([H:7])[H:8]"
C       -0.59665638      -1.31456704       0.19054770
C       -0.38458335       0.86633590       0.75255417
C        0.51277538       1.31870351      -0.26733341
C        0.47052282      -0.88944622      -0.66363383
H       -1.55228935      -1.50780142      -0.29295847
H       -0.40841332      -2.07979089       0.94027538
H       -1.40802239       1.23117403       0.75964677
H        0.03821678       0.79785802       1.75233350
H        0.06867936       1.88631520      -1.08254092
H        1.46736403       1.75880560       0.01136250
H        0.32229543      -0.87627825      -1.73932163
H        1.47011099      -1.19130844      -0.36093174
12
Frame=15 idx=003229 GeodesicLength=1.2741542687593135 rxn_smarts="[C:1]1([H:5])([H:6])[C:2]([H:7])([H:8])[C:3]([H:9])([H:10])[C:4]1([H:11])[H:12]>>[C:1](=[C:4]([H:11])[H:12])([H:5])[H:6].[C:2](=[C:3]([H:9])[H:10])([H:7])[H:8]"
C       -0.59417201      -1.31050446       0.18194749
C       -0.38720903       0.88596716       0.77192354
C        0.50173966       1.31424790      -0.26606324
C        0.48446620      -0.91245757      -0.67147576
H       -1.54466747      -1.50221304      -0.31418534
H       -0.42588636      -2.09522889       0.91744278
H       -1.40546751       1.26553235       0.79377318
H        0.05230127       0.82392600       1.76539880
H        0.04638134       1.88299056      -1.07548093
H        1.44871540       1.78021529      -0.00026260
H        0.34627120      -0.91031968      -1.74888036
H        1.47752731      -1.22215563      -0.35413754
12
Frame=16 idx=003229 GeodesicLength=1.3592066311339885 rxn_smarts="[C:1]1([H:5])([H:6])[C:2]([H:7])([H:8])[C:3]([H:9])([H:10])[C:4]1([H:11])[H:12]>>[C:1](=[C:4]([H:11])[H:12])([H:5])[H:6].[C:2](=[C:3]([H:9])[H:10])([H:7])[H:8]"
C       -0.59089497      -1.30628002       0.17264833
C       -0.39000640       0.90615115       0.79221652
C        0.48982436       1.30941700      -0.26400865
C        0.49916707      -0.93622541      -0.67958140
H       -1.53632783      -1.49524122      -0.33611583
H       -0.44397567      -2.10985233       0.89360758
H       -1.40240416       1.30101075       0.82882891
H        0.06665691       0.85084293       1.77884128
H        0.02291094       1.87827960      -1.06801724
H        1.42878283       1.80107392      -0.01264951
H        0.37107898      -0.94516710      -1.75849537
H        1.48518793      -1.25400927      -0.34727461
