11
Frame=0 idx=010260 GeodesicLength=0.0 rxn_smarts="[C:1](#[C:2][c:3]1[c:4]([H:9])[n:5]([H:10])[n:6][c:7]1[H:11])[H:8]>>[C:1](=[C:2]=[C:3]=[C:4]([N:5]([N+:6]#[C-:7])[H:10])[H:9])([H:8])[H:11]"
C        2.43736871       0.28041912      -0.09078201
C        1.47591182      -0.48839780       0.19940863
C        0.12174559      -0.38602798       0.15191551
C       -1.09058242      -0.95248698       0.35766841
N       -2.03268604      -0.04915414       0.00439600
N       -1.50027075       1.11114146      -0.43527692
C       -0.22262662       1.04894721      -0.40026235
H        3.50573056       0.36362614      -0.11638077
H       -1.34740777      -1.93199612       0.72794616
H       -3.02897732      -0.16275057       0.03649655
H        1.68179428       1.16667968      -0.43512923
11
Frame=1 idx=010260 GeodesicLength=0.10829616455430954 rxn_smarts="[C:1](#[C:2][c:3]1[c:4]([H:9])[n:5]([H:10])[n:6][c:7]1[H:11])[H:8]>>[C:1](=[C:2]=[C:3]=[C:4]([N:5]([N+:6]#[C-:7])[H:10])[H:9])([H:8])[H:11]"
C        2.44051442       0.28406300      -0.07272506
C        1.47826165      -0.48980010       0.20296029
C        0.12544706      -0.40228644       0.11055822
C       -1.08617131      -0.95065646       0.36103376
N       -2.03256004      -0.03927688       0.03541093
N       -1.50747344       1.11030692      -0.43750483
C       -0.23118810       1.05973740      -0.43563643
H        3.51111878       0.33516841      -0.11602056
H       -1.34096919      -1.92985525       0.73352844
H       -3.02712081      -0.17174653       0.03501420
H        1.67014098       1.19434594      -0.41661896
11
Frame=2 idx=010260 GeodesicLength=0.21660726183340362 rxn_smarts="[C:1](#[C:2][c:3]1[c:4]([H:9])[n:5]([H:10])[n:6][c:7]1[H:11])[H:8]>>[C:1](=[C:2]=[C:3]=[C:4]([N:5]([N+:6]#[C-:7])[H:10])[H:9])([H:8])[H:11]"
C        2.44281275       0.28946893      -0.04853780
C        1.48004360      -0.49348928       0.20073050
C        0.12895140      -0.41519317       0.07904020
C       -1.08111144      -0.94955110       0.36242193
N       -2.03100881      -0.03097540       0.06249317
N       -1.51381365       1.11326211      -0.42950340
C       -0.24040902       1.07082965      -0.47076870
H        3.51474319       0.31346189      -0.09741262
H       -1.33442589      -1.93114720       0.72960024
H       -3.02349596      -0.17714049       0.04186130
H        1.65771383       1.21047406      -0.42992482
11
Frame=3 idx=010260 GeodesicLength=0.32487163257816465 rxn_smarts="[C:1](#[C:2][c:3]1[c:4]([H:9])[n:5]([H:10])[n:6][c:7]1[H:11])[H:8]>>[C:1](=[C:2]=[C:3]=[C:4]([N:5]([N+:6]#[C-:7])[H:10])[H:9])([H:8])[H:11]"
C        2.44462841       0.29182285      -0.03095402
C        1.48190380      -0.49908113       0.19430512
C        0.13243116      -0.42665668       0.05268368
C       -1.07575379      -0.94866636       0.36338315
N       -2.02880190      -0.02470444       0.08418687
N       -1.51916435       1.11759140      -0.41810647
C       -0.25026448       1.08303290      -0.50321637
H        3.51744086       0.29409321      -0.07386910
H       -1.32786378      -1.93118416       0.72902291
H       -3.01910000      -0.18267100       0.04688748
H        1.64454406       1.22642341      -0.44432326
11
Frame=4 idx=010260 GeodesicLength=0.4334139553962707 rxn_smarts="[C:1](#[C:2][c:3]1[c:4]([H:9])[n:5]([H:10])[n:6][c:7]1[H:11])[H:8]>>[C:1](=[C:2]=[C:3]=[C:4]([N:5]([N+:6]#[C-:7])[H:10])[H:9])([H:8])[H:11]"
C        2.44741170       0.29046751      -0.02120060
C        1.48390845      -0.50458519       0.18895716
C        0.13603005      -0.43673365       0.03088438
C       -1.07014391      -0.94678735       0.36621925
N       -2.02646335      -0.02063567       0.09870077
N       -1.52456925       1.11798732      -0.41733979
C       -0.26024306       1.09670926      -0.53285564
H        3.52045870       0.26832875      -0.06677527
H       -1.32090812      -1.92788630       0.73657907
H       -3.01439835      -0.18989975       0.04756218
H        1.62891713       1.25303507      -0.43073152
11
Frame=5 idx=010260 GeodesicLength=0.542077829100281 rxn_smarts="[C:1](#[C:2][c:3]1[c:4]([H:9])[n:5]([H:10])[n:6][c:7]1[H:11])[H:8]>>[C:1](=[C:2]=[C:3]=[C:4]([N:5]([N+:6]#[C-:7])[H:10])[H:9])([H:8])[H:11]"
C        2.44929922       0.29037893      -0.00724029
C        1.48600224      -0.51133214       0.18012253
C        0.13969671      -0.44767147       0.00773027
C       -1.06436589      -0.94701538       0.36416751
N       -2.02291217      -0.01557381       0.11642231
N       -1.52901093       1.12030918      -0.41113603
C       -0.27113525       1.10980893      -0.56469907
H        3.52246226       0.24926509      -0.04109560
H       -1.31402327      -1.92749550       0.73693904
H       -3.00930378      -0.19250275       0.05911330
H        1.61329086       1.27182890      -0.44032397
11
Frame=6 idx=010260 GeodesicLength=0.6503580910087138 rxn_smarts="[C:1](#[C:2][c:3]1[c:4]([H:9])[n:5]([H:10])[n:6][c:7]1[H:11])[H:8]>>[C:1](=[C:2]=[C:3]=[C:4]([N:5]([N+:6]#[C-:7])[H:10])[H:9])([H:8])[H:11]"
C        2.45054175       0.28965618       0.00572338
C        1.48829026      -0.51981260       0.16632157
C        0.14332923      -0.45936784      -0.01718124
C       -1.05832070      -0.94828695       0.35942537
N       -2.01814763      -0.01003925       0.13559415
N       -1.53293903       1.12279338      -0.40440066
C       -0.28294309       1.12321535      -0.59719266
H        3.52346181       0.23415023      -0.00222417
H       -1.30681954      -1.92797901       0.73507040
H       -3.00371600      -0.19221807       0.07813138
H        1.59726294       1.28788858      -0.45926752
11
Frame=7 idx=010260 GeodesicLength=0.7588269467571541 rxn_smarts="[C:1](#[C:2][c:3]1[c:4]([H:9])[n:5]([H:10])[n:6][c:7]1[H:11])[H:8]>>[C:1](=[C:2]=[C:3]=[C:4]([N:5]([N+:6]#[C-:7])[H:10])[H:9])([H:8])[H:11]"
C        2.45208509       0.28874500       0.02008519
C        1.49064404      -0.52638159       0.15787059
C        0.14726377      -0.46969312      -0.03775201
C       -1.05220461      -0.94906573       0.35590617
N       -2.01341464      -0.00578009       0.15131572
N       -1.53665534       1.12508385      -0.39821811
C       -0.29519407       1.13835599      -0.62621894
H        3.52432635       0.21463403       0.02534966
H       -1.29950326      -1.92785372       0.73474079
H       -2.99779672      -0.19415540       0.09102647
H        1.58044941       1.30611079      -0.47410553
11
Frame=8 idx=010260 GeodesicLength=0.867420329786378 rxn_smarts="[C:1](#[C:2][c:3]1[c:4]([H:9])[n:5]([H:10])[n:6][c:7]1[H:11])[H:8]>>[C:1](=[C:2]=[C:3]=[C:4]([N:5]([N+:6]#[C-:7])[H:10])[H:9])([H:8])[H:11]"
C        2.45588942       0.28532737       0.02981789
C        1.49291770      -0.53010109       0.15786431
C        0.15163568      -0.47782188      -0.05208380
C       -1.04601700      -0.94799550       0.35618803
N       -2.00983786      -0.00347658       0.16037646
N       -1.54156436       1.12457354      -0.40006244
C       -0.30733591       1.15588603      -0.65068531
H        3.52729998       0.18589961       0.03005876
H       -1.29174702      -1.92471392       0.74139976
H       -2.99217592      -0.20070721       0.09304140
H        1.56093529       1.33312962      -0.46591506
11
Frame=9 idx=010260 GeodesicLength=0.9763356243157498 rxn_smarts="[C:1](#[C:2][c:3]1[c:4]([H:9])[n:5]([H:10])[n:6][c:7]1[H:11])[H:8]>>[C:1](=[C:2]=[C:3]=[C:4]([N:5]([N+:6]#[C-:7])[H:10])[H:9])([H:8])[H:11]"
C        2.45900214       0.28131846       0.03853989
C        1.49543094      -0.53662301       0.14904175
C        0.15575205      -0.48729144      -0.07078239
C       -1.03947472      -0.94845647       0.35288678
N       -2.00478924      -0.00004335       0.17413853
N       -1.54558012       1.12666288      -0.39439689
C       -0.32117893       1.17383934      -0.67633151
H        3.52815880       0.16497621       0.06086336
H       -1.28354290      -1.92396488       0.74228493
H       -2.98585770      -0.20355719       0.10470310
H        1.54207968       1.35313946      -0.48094755
11
Frame=10 idx=010260 GeodesicLength=1.0848338981684233 rxn_smarts="[C:1](#[C:2][c:3]1[c:4]([H:9])[n:5]([H:10])[n:6][c:7]1[H:11])[H:8]>>[C:1](=[C:2]=[C:3]=[C:4]([N:5]([N+:6]#[C-:7])[H:10])[H:9])([H:8])[H:11]"
C        2.46379695       0.27524255       0.04297664
C        1.49802062      -0.54149748       0.14493819
C        0.16026348      -0.49554371      -0.08610072
C       -1.03276022      -0.94783968       0.35144643
N       -2.00035972       0.00229528       0.18384245
N       -1.55058191       1.12680937      -0.39441739
C       -0.33532724       1.19331293      -0.69999521
H        3.53043431       0.13812126       0.07958147
H       -1.27466897      -1.92092368       0.74827104
H       -2.97964534      -0.20905346       0.11059560
H        1.52082804       1.37907662      -0.48113851
11
Frame=11 idx=010260 GeodesicLength=1.19337654093804 rxn_smarts="[C:1](#[C:2][c:3]1[c:4]([H:9])[n:5]([H:10])[n:6][c:7]1[H:11])[H:8]>>[C:1](=[C:2]=[C:3]=[C:4]([N:5]([N+:6]#[C-:7])[H:10])[H:9])([H:8])[H:11]"
C        2.46830477       0.26931144       0.04939297
C        1.50077919      -0.54725425       0.13776295
C        0.16483260      -0.50420013      -0.10301435
C       -1.02581622      -0.94814425       0.34771118
N       -1.99496737       0.00502521       0.19558077
N       -1.55513263       1.12807536      -0.39105026
C       -0.35078471       1.21362710      -0.72370067
H        3.53152338       0.11372481       0.10866895
H       -1.26541121      -1.91929979       0.75071566
H       -2.97293065      -0.21276692       0.12137123
H        1.49960284       1.40190141      -0.49343842
11
Frame=12 idx=010260 GeodesicLength=1.3017143899898362 rxn_smarts="[C:1](#[C:2][c:3]1[c:4]([H:9])[n:5]([H:10])[n:6][c:7]1[H:11])[H:8]>>[C:1](=[C:2]=[C:3]=[C:4]([N:5]([N+:6]#[C-:7])[H:10])[H:9])([H:8])[H:11]"
C        2.47304230       0.26399454       0.05972063
C        1.50368545      -0.55184932       0.13397190
C        0.16986034      -0.51216430      -0.11779448
C       -1.01878115      -0.94839707       0.34402159
N       -1.98960044       0.00726126       0.20614492
N       -1.55974689       1.12927754      -0.38773887
C       -0.36698149       1.23513981      -0.74600864
H        3.53285617       0.08670720       0.13216130
H       -1.25607888      -1.91787860       0.75249790
H       -2.96610095      -0.21722477       0.13036935
H        1.47784554       1.42513370      -0.50734559
11
Frame=13 idx=010260 GeodesicLength=1.4100841375450213 rxn_smarts="[C:1](#[C:2][c:3]1[c:4]([H:9])[n:5]([H:10])[n:6][c:7]1[H:11])[H:8]>>[C:1](=[C:2]=[C:3]=[C:4]([N:5]([N+:6]#[C-:7])[H:10])[H:9])([H:8])[H:11]"
C        2.48031343       0.25438193       0.05792653
C        1.50673811      -0.55716243       0.12660239
C        0.17477110      -0.51978497      -0.13360757
C       -1.01118771      -0.94805048       0.34076974
N       -1.98402056       0.00940771       0.21656026
N       -1.56532921       1.12990204      -0.38607074
C       -0.38462104       1.25850245      -0.76721782
H        3.53383811       0.05974877       0.16719750
H       -1.24542771      -1.91535050       0.75626923
H       -2.95902156      -0.22214857       0.14070189
H        1.45394705       1.45055405      -0.51913141
11
Frame=14 idx=010260 GeodesicLength=1.518542561694279 rxn_smarts="[C:1](#[C:2][c:3]1[c:4]([H:9])[n:5]([H:10])[n:6][c:7]1[H:11])[H:8]>>[C:1](=[C:2]=[C:3]=[C:4]([N:5]([N+:6]#[C-:7])[H:10])[H:9])([H:8])[H:11]"
C        2.48796657       0.24608140       0.06426278
C        1.50989920      -0.56023729       0.12661899
C        0.18048034      -0.52629678      -0.14526932
C       -1.00370666      -0.94746121       0.33817573
N       -1.97898394       0.01080474       0.22474700
N       -1.57102450       1.13020730      -0.38505921
C       -0.40276211       1.28278042      -0.78692184
H        3.53596698       0.02857308       0.18809634
H       -1.23528770      -1.91298534       0.75938547
H       -2.95210425      -0.22851347       0.14668457
H        1.42955608       1.47704714      -0.53072050
11
Frame=15 idx=010260 GeodesicLength=1.6271676137396438 rxn_smarts="[C:1](#[C:2][c:3]1[c:4]([H:9])[n:5]([H:10])[n:6][c:7]1[H:11])[H:8]>>[C:1](=[C:2]=[C:3]=[C:4]([N:5]([N+:6]#[C-:7])[H:10])[H:9])([H:8])[H:11]"
C        2.49697955       0.23593392       0.06730438
C        1.51329766      -0.56377007       0.12434565
C        0.18630024      -0.53256102      -0.15767543
C       -0.99579735      -0.94688062       0.33510208
N       -1.97346778       0.01224466       0.23392409
N       -1.57688525       1.13106645      -0.38227135
C       -0.42259176       1.30852393      -0.80583799
H        3.53727814      -0.00188782       0.21807433
H       -1.22459448      -1.91122213       0.76068572
H       -2.94480698      -0.23455640       0.15488243
H        1.40428800       1.50310910      -0.54853391
11
Frame=16 idx=010260 GeodesicLength=1.7359359144248576 rxn_smarts="[C:1](#[C:2][c:3]1[c:4]([H:9])[n:5]([H:10])[n:6][c:7]1[H:11])[H:8]>>[C:1](=[C:2]=[C:3]=[C:4]([N:5]([N+:6]#[C-:7])[H:10])[H:9])([H:8])[H:11]"
C        2.50646667       0.22637954       0.07616260
C        1.51689256      -0.56651721       0.12460282
C        0.19265485      -0.53815579      -0.16850524
C       -0.98776335      -0.94634385       0.33175853
N       -1.96794288       0.01334788       0.24269724
N       -1.58275902       1.13225623      -0.37839362
C       -0.44372094       1.33545478      -0.82371110
H        3.53906008      -0.03429393       0.24416190
H       -1.21397839      -1.91007858       0.76026607
H       -2.93739104      -0.24099174       0.16224489
H        1.37848148       1.52894269      -0.57128408
