17
Frame=0 idx=006904 GeodesicLength=0.0 rxn_smarts="[C:1]([C@@:2]1([H:11])[O:3][C:4]([H:12])([H:13])[C@@:5]2([H:14])[C:6]([H:15])([H:16])[C@@:7]12[H:17])([H:8])([H:9])[H:10]>>[C:1]([C:2]1=[C:7]2[C@@:5]([H:14])([C:4]([H:12])([H:13])[O:3]1)[C:6]2([H:15])[H:16])([H:8])([H:9])[H:10].[H:11][H:17]"
C       -2.11877253      -0.48545150       0.22085284
C       -0.74932833      -0.04791877      -0.14084050
O       -0.54245829       1.23403841      -0.12394590
C        0.88580634       1.49871006      -0.29439876
C        1.54893667       0.15121912      -0.19144355
C        1.33860152      -0.57548213       1.09592184
C        0.45803899      -0.89803727      -0.10017220
H       -2.87785834       0.15099305      -0.22835788
H       -2.19471935      -0.40536687       1.31072093
H       -2.26358080      -1.52398188      -0.06198045
H       -0.85891370      -0.69162972      -1.85330938
H        1.00202556       1.96092276      -1.27512734
H        1.14443233       2.21587042       0.48534898
H        2.43060674      -0.01411873      -0.79792475
H        0.95892981      -0.00638614       1.94201035
H        2.05011507      -1.34401494       1.36949931
H       -0.21186170      -1.21936587      -1.35685350
17
Frame=1 idx=006904 GeodesicLength=0.062195047158577384 rxn_smarts="[C:1]([C@@:2]1([H:11])[O:3][C:4]([H:12])([H:13])[C@@:5]2([H:14])[C:6]([H:15])([H:16])[C@@:7]12[H:17])([H:8])([H:9])[H:10]>>[C:1]([C:2]1=[C:7]2[C@@:5]([H:14])([C:4]([H:12])([H:13])[O:3]1)[C:6]2([H:15])[H:16])([H:8])([H:9])[H:10].[H:11][H:17]"
C       -2.11881959      -0.47821070       0.22485241
C       -0.75212569      -0.04653504      -0.15745749
O       -0.54391153       1.24032627      -0.13279793
C        0.88386961       1.50652093      -0.28748540
C        1.54892474       0.15958179      -0.18952316
C        1.33852372      -0.58070663       1.09106430
C        0.45722112      -0.88736536      -0.10468986
H       -2.88065869       0.15116162      -0.23032292
H       -2.19126112      -0.38128884       1.31328947
H       -2.26720759      -1.52076907      -0.04159551
H       -0.86199316      -0.72548233      -1.85903163
H        1.01108995       1.97692703      -1.26315745
H        1.13701071       2.21798729       0.49950936
H        2.43146410      -0.00286829      -0.79551685
H        0.95571576      -0.02196992       1.94227264
H        2.05028105      -1.35293907       1.35387787
H       -0.19812338      -1.25436969      -1.36328785
17
Frame=2 idx=006904 GeodesicLength=0.12439581184559888 rxn_smarts="[C:1]([C@@:2]1([H:11])[O:3][C:4]([H:12])([H:13])[C@@:5]2([H:14])[C:6]([H:15])([H:16])[C@@:7]12[H:17])([H:8])([H:9])[H:10]>>[C:1]([C:2]1=[C:7]2[C@@:5]([H:14])([C:4]([H:12])([H:13])[O:3]1)[C:6]2([H:15])[H:16])([H:8])([H:9])[H:10].[H:11][H:17]"
C       -2.11870972      -0.47052683       0.22869094
C       -0.75499727      -0.04499825      -0.17445424
O       -0.54539983       1.24678531      -0.14184157
C        0.88176807       1.51447985      -0.28032450
C        1.54878478       0.16811050      -0.18766625
C        1.33833337      -0.58614808       1.08574827
C        0.45625793      -0.87649770      -0.10960630
H       -2.88344123       0.15150462      -0.23239248
H       -2.18760560      -0.35666703       1.31542398
H       -2.27059581      -1.51692882      -0.02102131
H       -0.86493579      -0.76076788      -1.86385460
H        1.02009979       1.99337017      -1.25056128
H        1.12917011       2.21993471       0.51413935
H        2.43215704       0.00870023      -0.79325950
H        0.95244336      -0.03808723       1.94214346
H        2.05033207      -1.36203601       1.33748723
H       -0.18366127      -1.29022756      -1.36865120
17
Frame=3 idx=006904 GeodesicLength=0.18659467749134623 rxn_smarts="[C:1]([C@@:2]1([H:11])[O:3][C:4]([H:12])([H:13])[C@@:5]2([H:14])[C:6]([H:15])([H:16])[C@@:7]12[H:17])([H:8])([H:9])[H:10]>>[C:1]([C:2]1=[C:7]2[C@@:5]([H:14])([C:4]([H:12])([H:13])[O:3]1)[C:6]2([H:15])[H:16])([H:8])([H:9])[H:10].[H:11][H:17]"
C       -2.11844200      -0.46239168       0.23234769
C       -0.75794523      -0.04330391      -0.19182472
O       -0.54691949       1.25341902      -0.15108502
C        0.87949393       1.52257702      -0.27291770
C        1.54851142       0.17680057      -0.18587479
C        1.33802514      -0.59181506       1.07994464
C        0.45514632      -0.86543692      -0.11494091
H       -2.88620361       0.15204275      -0.23455514
H       -2.18376038      -0.33153500       1.31709747
H       -2.27374179      -1.51243143      -0.00030707
H       -0.86773282      -0.79747597      -1.86766842
H        1.02904357       2.01023486      -1.23732684
H        1.12089517       2.22168654       0.52923118
H        2.43268324       0.02059078      -0.79114827
H        0.94911794      -0.05475634       1.94159055
H        2.05026598      -1.37129028       1.32028654
H       -0.16843739      -1.32691494      -1.37284919
17
Frame=4 idx=006904 GeodesicLength=0.24877245292104588 rxn_smarts="[C:1]([C@@:2]1([H:11])[O:3][C:4]([H:12])([H:13])[C@@:5]2([H:14])[C:6]([H:15])([H:16])[C@@:7]12[H:17])([H:8])([H:9])[H:10]>>[C:1]([C:2]1=[C:7]2[C@@:5]([H:14])([C:4]([H:12])([H:13])[O:3]1)[C:6]2([H:15])[H:16])([H:8])([H:9])[H:10].[H:11][H:17]"
C       -2.11801545      -0.45380015       0.23580217
C       -0.76097179      -0.04145137      -0.20956360
O       -0.54846482       1.26022680      -0.16054378
C        0.87703740       1.53079875      -0.26526617
C        1.54809944       0.18564524      -0.18415112
C        1.33759386      -0.59771803       1.07362296
C        0.45388444      -0.85418953      -0.12071619
H       -2.88894192       0.15278855      -0.23680248
H       -2.17973181      -0.30591280       1.31827787
H       -2.27664354      -1.50724680       0.02050715
H       -0.87037858      -0.83558914      -1.87035046
H        1.03791214       2.02750411      -1.22344002
H        1.11216250       2.22321315       0.54477914
H        2.43304226       0.03280882      -0.78917436
H        0.94574475      -0.07199749       1.94057766
H        2.05008116      -1.38068820       1.30223025
H       -0.15241004      -1.36439190      -1.37578904
17
Frame=5 idx=006904 GeodesicLength=0.31093494358777907 rxn_smarts="[C:1]([C@@:2]1([H:11])[O:3][C:4]([H:12])([H:13])[C@@:5]2([H:14])[C:6]([H:15])([H:16])[C@@:7]12[H:17])([H:8])([H:9])[H:10]>>[C:1]([C:2]1=[C:7]2[C@@:5]([H:14])([C:4]([H:12])([H:13])[O:3]1)[C:6]2([H:15])[H:16])([H:8])([H:9])[H:10].[H:11][H:17]"
C       -2.11743204      -0.44474762       0.23903469
C       -0.76407795      -0.03943994      -0.22765899
O       -0.55003348       1.26721097      -0.17022224
C        0.87439141       1.53913081      -0.25737600
C        1.54754346       0.19463599      -0.18250006
C        1.33703235      -0.60386547       1.06675241
C        0.45247233      -0.84276362      -0.12694853
H       -2.89165168       0.15376283      -0.23913092
H       -2.17553396      -0.27984126       1.31895303
H       -2.27929850      -1.50135910       0.04136395
H       -0.87285774      -0.87505983      -1.87179152
H        1.04668759       2.04515362      -1.20889419
H        1.10296447       2.22448967       0.56076690
H        2.43323139       0.04535200      -0.78734014
H        0.94232718      -0.08982828       1.93906884
H        2.04977653      -1.39021440       1.28328865
H       -0.13554137      -1.40261637      -1.37736589
17
Frame=6 idx=006904 GeodesicLength=0.37305011115981557 rxn_smarts="[C:1]([C@@:2]1([H:11])[O:3][C:4]([H:12])([H:13])[C@@:5]2([H:14])[C:6]([H:15])([H:16])[C@@:7]12[H:17])([H:8])([H:9])[H:10]>>[C:1]([C:2]1=[C:7]2[C@@:5]([H:14])([C:4]([H:12])([H:13])[O:3]1)[C:6]2([H:15])[H:16])([H:8])([H:9])[H:10].[H:11][H:17]"
C       -2.11669164      -0.43523277       0.24202708
C       -0.76726512      -0.03727295      -0.24610212
O       -0.55161798       1.27436638      -0.18014064
C        0.87154584       1.54755468      -0.24925281
C        1.54683914       0.20376158      -0.18092423
C        1.33633441      -0.61026918       1.05930050
C        0.45091117      -0.83117240      -0.13366388
H       -2.89432901       0.15497526      -0.24153720
H       -2.17117630      -0.25334030       1.31909327
H       -2.28170454      -1.49474582       0.06223014
H       -0.87516887      -0.91584557      -1.87185271
H        1.05536209       2.06315904      -1.19367687
H        1.09327236       2.22547853       0.57718023
H        2.43325440       0.05822307      -0.78562966
H        0.93886711      -0.10826927       1.93702418
H        2.04935344      -1.39985412       1.26341980
H       -0.11778649      -1.44151617      -1.37749507
17
Frame=7 idx=006904 GeodesicLength=0.4351098312913286 rxn_smarts="[C:1]([C@@:2]1([H:11])[O:3][C:4]([H:12])([H:13])[C@@:5]2([H:14])[C:6]([H:15])([H:16])[C@@:7]12[H:17])([H:8])([H:9])[H:10]>>[C:1]([C:2]1=[C:7]2[C@@:5]([H:14])([C:4]([H:12])([H:13])[O:3]1)[C:6]2([H:15])[H:16])([H:8])([H:9])[H:10].[H:11][H:17]"
C       -2.11579643      -0.42526353       0.24475953
C       -0.77053215      -0.03496064      -0.26487604
O       -0.55321242       1.28168476      -0.19030451
C        0.86849317       1.55604464      -0.24090830
C        1.54598410       0.21300388      -0.17942550
C        1.33549674      -0.61693322       1.05124599
C        0.44920516      -0.81943586      -0.14087061
H       -2.89696930       0.15643903      -0.24401876
H       -2.16667108      -0.22645478       1.31869082
H       -2.28386169      -1.48740333       0.08305051
H       -0.87730779      -0.95784401      -1.87042844
H        1.06391808       2.08147847      -1.17778897
H        1.08307720       2.22614911       0.59398793
H        2.43311129       0.07140621      -0.78404037
H        0.93536456      -0.12732746       1.93441221
H        2.04882487      -1.40957856       1.24261669
H       -0.09912433      -1.48100470      -1.37610217
17
Frame=8 idx=006904 GeodesicLength=0.497093792617983 rxn_smarts="[C:1]([C@@:2]1([H:11])[O:3][C:4]([H:12])([H:13])[C@@:5]2([H:14])[C:6]([H:15])([H:16])[C@@:7]12[H:17])([H:8])([H:9])[H:10]>>[C:1]([C:2]1=[C:7]2[C@@:5]([H:14])([C:4]([H:12])([H:13])[O:3]1)[C:6]2([H:15])[H:16])([H:8])([H:9])[H:10].[H:11][H:17]"
C       -2.11475061      -0.41484558       0.24721588
C       -0.77387941      -0.03251291      -0.28396275
O       -0.55480963       1.28915745      -0.20072842
C        0.86522443       1.56457412      -0.23235373
C        1.54497364       0.22234445      -0.17800864
C        1.33451359      -0.62386822       1.04256000
C        0.44735768      -0.80757625      -0.14858748
H       -2.89956910       0.15816325      -0.24657993
H       -2.16203452      -0.19921456       1.31773338
H       -2.28577066      -1.47932563       0.10378543
H       -0.87926786      -1.00096274      -1.86739303
H        1.07234095       2.10007773      -1.16122449
H        1.07236284       2.22646594       0.61116267
H        2.43280329       0.08489153      -0.78256502
H        0.93181973      -0.14701927       1.93119157
H        2.04820033      -1.41936481       1.22086113
H       -0.07951469      -1.52098450      -1.37310657
17
Frame=9 idx=006904 GeodesicLength=0.5589503247461438 rxn_smarts="[C:1]([C@@:2]1([H:11])[O:3][C:4]([H:12])([H:13])[C@@:5]2([H:14])[C:6]([H:15])([H:16])[C@@:7]12[H:17])([H:8])([H:9])[H:10]>>[C:1]([C:2]1=[C:7]2[C@@:5]([H:14])([C:4]([H:12])([H:13])[O:3]1)[C:6]2([H:15])[H:16])([H:8])([H:9])[H:10].[H:11][H:17]"
C       -2.11354630      -0.40405329       0.24938146
C       -0.77728421      -0.02999022      -0.30332422
O       -0.55639991       1.29673505      -0.21138990
C        0.86174217       1.57307722      -0.22363499
C        1.54382542       0.23172971      -0.17665978
C        1.33341105      -0.63102164       1.03331342
C        0.44539477      -0.79564799      -0.15672918
H       -2.90211765       0.16014720      -0.24921150
H       -2.15727101      -0.17176006       1.31626591
H       -2.28744329      -1.47058704       0.12433756
H       -0.88110650      -1.04485611      -1.86277638
H        1.08060976       2.11884538      -1.14403549
H        1.06116893       2.22641977       0.62858779
H        2.43233054       0.09858163      -0.78121877
H        0.92823613      -0.16724485       1.92739267
H        2.04755563      -1.42913775       1.19833913
H       -0.05910553      -1.56123701      -1.36863776
17
Frame=10 idx=006904 GeodesicLength=0.620714428536372 rxn_smarts="[C:1]([C@@:2]1([H:11])[O:3][C:4]([H:12])([H:13])[C@@:5]2([H:14])[C:6]([H:15])([H:16])[C@@:7]12[H:17])([H:8])([H:9])[H:10]>>[C:1]([C:2]1=[C:7]2[C@@:5]([H:14])([C:4]([H:12])([H:13])[O:3]1)[C:6]2([H:15])[H:16])([H:8])([H:9])[H:10].[H:11][H:17]"
C       -2.11220294      -0.39284194       0.25125183
C       -0.78076549      -0.02736550      -0.32293632
O       -0.55797717       1.30443772      -0.22232526
C        0.85802928       1.58155589      -0.21474278
C        1.54251545       0.24116333      -0.17539755
C        1.33216036      -0.63845188       1.02340759
C        0.44330312      -0.78365464      -0.16539056
H       -2.90461482       0.16240317      -0.25191932
H       -2.15241284      -0.14402670       1.31423885
H       -2.28887606      -1.46112148       0.14472382
H       -0.88275546      -1.08959776      -1.85636982
H        1.08870644       2.13778878      -1.12619091
H        1.04943390       2.22595118       0.64629869
H        2.43169917       0.11253372      -0.77996656
H        0.92461144      -0.18810827       1.92293153
H        2.04684678      -1.43891809       1.17487797
H       -0.03770116      -1.60174751      -1.36249120
17
Frame=11 idx=006904 GeodesicLength=0.6824096643521351 rxn_smarts="[C:1]([C@@:2]1([H:11])[O:3][C:4]([H:12])([H:13])[C@@:5]2([H:14])[C:6]([H:15])([H:16])[C@@:7]12[H:17])([H:8])([H:9])[H:10]>>[C:1]([C:2]1=[C:7]2[C@@:5]([H:14])([C:4]([H:12])([H:13])[O:3]1)[C:6]2([H:15])[H:16])([H:8])([H:9])[H:10].[H:11][H:17]"
C       -2.11073043      -0.38123353       0.25282606
C       -0.78432310      -0.02465944      -0.34275756
O       -0.55953608       1.31225030      -0.23352805
C        0.85408064       1.58997328      -0.20570064
C        1.54103945       0.25061336      -0.17422103
C        1.33075889      -0.64615433       1.01283926
C        0.44108801      -0.77163011      -0.17456406
H       -2.90705880       0.16493993      -0.25469202
H       -2.14748010      -0.11606401       1.31166738
H       -2.29008047      -1.45095053       0.16489625
H       -0.88420389      -1.13502015      -1.84811879
H        1.09660810       2.15683631      -1.10771740
H        1.03716683       2.22503759       0.66424068
H        2.43091081       0.12671456      -0.77879676
H        0.92094429      -0.20959851       1.91778825
H        2.04609036      -1.44867111       1.15050461
H       -0.01527450      -1.64238361      -1.35466619
17
Frame=12 idx=006904 GeodesicLength=0.7440298273852495 rxn_smarts="[C:1]([C@@:2]1([H:11])[O:3][C:4]([H:12])([H:13])[C@@:5]2([H:14])[C:6]([H:15])([H:16])[C@@:7]12[H:17])([H:8])([H:9])[H:10]>>[C:1]([C:2]1=[C:7]2[C@@:5]([H:14])([C:4]([H:12])([H:13])[O:3]1)[C:6]2([H:15])[H:16])([H:8])([H:9])[H:10].[H:11][H:17]"
C       -2.10913867      -0.36925275       0.25410585
C       -0.78795512      -0.02189775      -0.36274436
O       -0.56106678       1.32014986      -0.24499683
C        0.84989076       1.59828758      -0.19653528
C        1.53939311       0.26004423      -0.17313148
C        1.32920739      -0.65412594       1.00161033
C        0.43875668      -0.75961518      -0.18423542
H       -2.90944415       0.16775048      -0.25752589
H       -2.14249507      -0.08791146       1.30855802
H       -2.29106553      -1.44009004       0.18482897
H       -0.88544592      -1.18093434      -1.83797031
H        1.10429304       2.17591655      -1.08864347
H        1.02436504       2.22364329       0.68235788
H        2.42996696       0.14108596      -0.77769707
H        0.91723488      -0.23170297       1.91194199
H        2.04530761      -1.45835926       1.12525749
H        0.00819575      -1.68298826      -1.34518042
17
Frame=13 idx=006904 GeodesicLength=0.8055887856518936 rxn_smarts="[C:1]([C@@:2]1([H:11])[O:3][C:4]([H:12])([H:13])[C@@:5]2([H:14])[C:6]([H:15])([H:16])[C@@:7]12[H:17])([H:8])([H:9])[H:10]>>[C:1]([C:2]1=[C:7]2[C@@:5]([H:14])([C:4]([H:12])([H:13])[O:3]1)[C:6]2([H:15])[H:16])([H:8])([H:9])[H:10].[H:11][H:17]"
C       -2.10743996      -0.35692967       0.25509855
C       -0.79166076      -0.01910798      -0.38284875
O       -0.56256432       1.32811781      -0.25671407
C        0.84545801       1.60645730      -0.18727737
C        1.53757235       0.26941701      -0.17213299
C        1.32750445      -0.66235994       0.98972953
C        0.43631567      -0.74765242      -0.19438404
H       -2.91177142       0.17084053      -0.26041194
H       -2.13748151      -0.05962714       1.30494036
H       -2.29184783      -1.42857017       0.20447754
H       -0.88647079      -1.22713753      -1.82590293
H        1.11173362       2.19495061      -1.06901047
H        1.01105067       2.22174826       0.70058478
H        2.42886823       0.15559960      -0.77666265
H        0.91347853      -0.25439763       1.90538365
H        2.04452250      -1.46794266       1.09919789
H        0.03273256      -1.72340597      -1.33406710
17
Frame=14 idx=006904 GeodesicLength=0.8670898761740636 rxn_smarts="[C:1]([C@@:2]1([H:11])[O:3][C:4]([H:12])([H:13])[C@@:5]2([H:14])[C:6]([H:15])([H:16])[C@@:7]12[H:17])([H:8])([H:9])[H:10]>>[C:1]([C:2]1=[C:7]2[C@@:5]([H:14])([C:4]([H:12])([H:13])[O:3]1)[C:6]2([H:15])[H:16])([H:8])([H:9])[H:10].[H:11][H:17]"
C       -2.10564719      -0.34429381       0.25581545
C       -0.79544082      -0.01631795      -0.40302059
O       -0.56401779       1.33612605      -0.26867278
C        0.84078113       1.61443687      -0.17795910
C        1.53557357       0.27868934      -0.17122144
C        1.32565316      -0.67084279       0.97722117
C        0.43376865      -0.73578639      -0.20498532
H       -2.91403829       0.17419734      -0.26333550
H       -2.13245601      -0.03124625       1.30083386
H       -2.29243959      -1.41642319       0.22383092
H       -0.88728312      -1.27342479      -1.81190994
H        1.11891071       2.21385665      -1.04886201
H        0.99723078       2.21932592       0.71885312
H        2.42761782       0.17020703      -0.77567095
H        0.90967347      -0.27765229       1.89811159
H        2.04375892      -1.47738471       1.07239498
H        0.05835461      -1.76346705      -1.32142345
17
Frame=15 idx=006904 GeodesicLength=0.9285520192437176 rxn_smarts="[C:1]([C@@:2]1([H:11])[O:3][C:4]([H:12])([H:13])[C@@:5]2([H:14])[C:6]([H:15])([H:16])[C@@:7]12[H:17])([H:8])([H:9])[H:10]>>[C:1]([C:2]1=[C:7]2[C@@:5]([H:14])([C:4]([H:12])([H:13])[O:3]1)[C:6]2([H:15])[H:16])([H:8])([H:9])[H:10].[H:11][H:17]"
C       -2.10377428      -0.33138160       0.25627410
C       -0.79929580      -0.01355910      -0.42320669
O       -0.56542231       1.34414999      -0.28084897
C        0.83586321       1.62218308      -0.16861702
C        1.53339397       0.28781706      -0.17039483
C        1.32365640      -0.67955911       0.96411736
C        0.43112004      -0.72406325      -0.21600296
H       -2.91624723       0.17781582      -0.26628282
H       -2.12744040      -0.00282085       1.29627629
H       -2.29285971      -1.40368765       0.24286480
H       -0.88788321      -1.31957677      -1.79601983
H        1.12580044       2.23254925      -1.02825178
H        0.98293470       2.21636480       0.73708712
H        2.42621640       0.18484828      -0.77471257
H        0.90581662      -0.30142462       1.89013536
H        2.04304203      -1.48664654       1.04493894
H        0.08507913      -1.80300878      -1.30735649
17
Frame=16 idx=006904 GeodesicLength=0.989986839985834 rxn_smarts="[C:1]([C@@:2]1([H:11])[O:3][C:4]([H:12])([H:13])[C@@:5]2([H:14])[C:6]([H:15])([H:16])[C@@:7]12[H:17])([H:8])([H:9])[H:10]>>[C:1]([C:2]1=[C:7]2[C@@:5]([H:14])([C:4]([H:12])([H:13])[O:3]1)[C:6]2([H:15])[H:16])([H:8])([H:9])[H:10].[H:11][H:17]"
C       -2.10183600      -0.31822729       0.25649533
C       -0.80322737      -0.01086372      -0.44335484
O       -0.56677108       1.35216360      -0.29322311
C        0.83070732       1.62965243      -0.15928629
C        1.53103064       0.29675572      -0.16965118
C        1.32151795      -0.68849192       0.95045582
C        0.42837221      -0.71252968      -0.22739683
H       -2.91840085       0.18168370      -0.26923864
H       -2.12245443       0.02561066       1.29130112
H       -2.29312452      -1.39040427       0.26157135
H       -0.88827948      -1.36538353      -1.77827367
H        1.13238463       2.25094733      -1.00723249
H        0.96818972       2.21285241       0.75521361
H        2.42466394       0.19946256      -0.77377536
H        0.90190459      -0.32567039       1.88146809
H        2.04239943      -1.49569112       1.01693060
H        0.11292330      -1.84186649      -1.29200350
