14
Frame=0 idx=009241 GeodesicLength=0.0 rxn_smarts="[C:1]([C@@:2]([C:3](=[O:4])[H:12])([C:5](=[O:6])[N:7]([H:13])[H:14])[H:11])([H:8])([H:9])[H:10]>>[C:1]([C@@:2]([O+:4]=[C-:3][H:12])([C:5](=[O:6])[N:7]([H:13])[H:14])[H:11])([H:8])([H:9])[H:10]"
C       -1.14087495      -1.05812590       0.96252176
C       -0.40649803      -0.35881156      -0.13408187
C       -0.82533785       1.46039279      -0.00293180
O       -1.45214364       0.78147184      -0.90809355
C        1.08213930      -0.06534402       0.15094209
O        1.59263925      -0.39371005       1.19294617
N        1.75515118       0.49718278      -0.88095116
H       -0.96096991      -0.58106804       1.92071187
H       -2.20629070      -1.06481375       0.74112282
H       -0.78838163      -2.09135855       1.00635168
H       -0.42449256      -0.91335757      -1.08171895
H       -0.24736314       2.30159877      -0.48106161
H        1.29599271       0.76682280      -1.73158397
H        2.72642991       0.71912042      -0.75417344
14
Frame=1 idx=009241 GeodesicLength=0.09585629993637165 rxn_smarts="[C:1]([C@@:2]([C:3](=[O:4])[H:12])([C:5](=[O:6])[N:7]([H:13])[H:14])[H:11])([H:8])([H:9])[H:10]>>[C:1]([C@@:2]([O+:4]=[C-:3][H:12])([C:5](=[O:6])[N:7]([H:13])[H:14])[H:11])([H:8])([H:9])[H:10]"
C       -1.13522751      -1.07231290       0.95419390
C       -0.40934471      -0.33969982      -0.12822990
C       -0.80022567       1.48433028      -0.02169864
O       -1.51525098       0.79696166      -0.83974415
C        1.08447049      -0.07371843       0.15116663
O        1.58266505      -0.34531871       1.21548704
N        1.76932369       0.47479936      -0.88066772
H       -0.97808267      -0.60058143       1.91921158
H       -2.19894383      -1.10464963       0.72669697
H       -0.76338356      -2.09882416       0.99161655
H       -0.43554036      -0.88400208      -1.08183346
H       -0.25836153       2.33382666      -0.51962406
H        1.31290500       0.75150203      -1.73050934
H        2.74499661       0.67768716      -0.75606541
14
Frame=2 idx=009241 GeodesicLength=0.1911620238066608 rxn_smarts="[C:1]([C@@:2]([C:3](=[O:4])[H:12])([C:5](=[O:6])[N:7]([H:13])[H:14])[H:11])([H:8])([H:9])[H:10]>>[C:1]([C@@:2]([O+:4]=[C-:3][H:12])([C:5](=[O:6])[N:7]([H:13])[H:14])[H:11])([H:8])([H:9])[H:10]"
C       -1.12878049      -1.08688235       0.94525438
C       -0.41248748      -0.31931215      -0.12147707
C       -0.77718426       1.50840559      -0.04599542
O       -1.57678437       0.81459681      -0.76202263
C        1.08602762      -0.08027690       0.15324043
O        1.57181759      -0.29559899       1.23642508
N        1.78354811       0.45211580      -0.87881460
H       -0.99480933      -0.62202909       1.91730942
H       -2.18991824      -1.14574903       0.71085523
H       -0.73695607      -2.10601107       0.97529088
H       -0.44741795      -0.85122976      -1.08196563
H       -0.27257471       2.36593943      -0.56194868
H        1.33132662       0.73478519      -1.72891571
H        2.76419295       0.63124651      -0.75723569
14
Frame=3 idx=009241 GeodesicLength=0.28549788523872244 rxn_smarts="[C:1]([C@@:2]([C:3](=[O:4])[H:12])([C:5](=[O:6])[N:7]([H:13])[H:14])[H:11])([H:8])([H:9])[H:10]>>[C:1]([C@@:2]([O+:4]=[C-:3][H:12])([C:5](=[O:6])[N:7]([H:13])[H:14])[H:11])([H:8])([H:9])[H:10]"
C       -1.12169186      -1.10156340       0.93579631
C       -0.41587089      -0.29785697      -0.11367565
C       -0.75688091       1.53212483      -0.07699336
O       -1.63503920       0.83469228      -0.67455251
C        1.08677938      -0.08474022       0.15722602
O        1.56103485      -0.24723172       1.25518317
N        1.79777266       0.42892459      -0.87542826
H       -1.01037364      -0.64575829       1.91521370
H       -2.17942810      -1.18652635       0.69384341
H       -0.71007011      -2.11291415       0.95707690
H       -0.46004819      -0.81558670      -1.08167631
H       -0.29022647       2.39750582      -0.60866290
H        1.35112974       0.71585352      -1.72701191
H        2.78291272       0.58307674      -0.75633864
14
Frame=4 idx=009241 GeodesicLength=0.378585167321431 rxn_smarts="[C:1]([C@@:2]([C:3](=[O:4])[H:12])([C:5](=[O:6])[N:7]([H:13])[H:14])[H:11])([H:8])([H:9])[H:10]>>[C:1]([C@@:2]([O+:4]=[C-:3][H:12])([C:5](=[O:6])[N:7]([H:13])[H:14])[H:11])([H:8])([H:9])[H:10]"
C       -1.11415199      -1.11604275       0.92588207
C       -0.41934240      -0.27555998      -0.10471977
C       -0.74045569       1.55472382      -0.11601921
O       -1.68810123       0.85757448      -0.57711783
C        1.08672275      -0.08651775       0.16320309
O        1.55143958      -0.20311063       1.27164320
N        1.81187889       0.40575685      -0.87032047
H       -1.02406928      -0.67201382       1.91312819
H       -2.16787006      -1.22524465       0.67590794
H       -0.68370934      -2.11952802       0.93661688
H       -0.47304549      -0.77784608      -1.08049909
H       -0.31206137       2.42815943      -0.66020136
H        1.37208391       0.69435142      -1.72485219
H        2.80068173       0.53529769      -0.75265147
14
Frame=5 idx=009241 GeodesicLength=0.47047221666038175 rxn_smarts="[C:1]([C@@:2]([C:3](=[O:4])[H:12])([C:5](=[O:6])[N:7]([H:13])[H:14])[H:11])([H:8])([H:9])[H:10]>>[C:1]([C@@:2]([O+:4]=[C-:3][H:12])([C:5](=[O:6])[N:7]([H:13])[H:14])[H:11])([H:8])([H:9])[H:10]"
C       -1.10631894      -1.13003306       0.91546394
C       -0.42266815      -0.25269053      -0.09465397
C       -0.72962273       1.57504748      -0.16446801
O       -1.73381406       0.88365538      -0.46961949
C        1.08589605      -0.08473572       0.17123458
O        1.54387462      -0.16501217       1.28631843
N        1.82571819       0.38390394      -0.86312183
H       -1.03540120      -0.70092155       1.91111781
H       -2.15570698      -1.26031970       0.65712009
H       -0.65856670      -2.12579828       0.91357378
H       -0.48571694      -0.73904061      -1.07807833
H       -0.33919864       2.45765901      -0.71622576
H        1.39389051       0.67071395      -1.72224420
H        2.81763498       0.48757185      -0.74641705
14
Frame=6 idx=009241 GeodesicLength=0.5612887814551919 rxn_smarts="[C:1]([C@@:2]([C:3](=[O:4])[H:12])([C:5](=[O:6])[N:7]([H:13])[H:14])[H:11])([H:8])([H:9])[H:10]>>[C:1]([C@@:2]([O+:4]=[C-:3][H:12])([C:5](=[O:6])[N:7]([H:13])[H:14])[H:11])([H:8])([H:9])[H:10]"
C       -1.09861655      -1.14313065       0.90459670
C       -0.42557738      -0.23010026      -0.08395797
C       -0.72607838       1.59100348      -0.22394411
O       -1.76913944       0.91358709      -0.35263422
C        1.08448995      -0.07940471       0.18086066
O        1.53887020      -0.13421529       1.29956233
N        1.83918466       0.36398939      -0.85405667
H       -1.04399459      -0.73209220       1.90915808
H       -2.14385034      -1.28976446       0.63786211
H       -0.63578794      -2.13166713       0.88815294
H       -0.49741315      -0.70129659      -1.07431922
H       -0.37160011       2.48576985      -0.77445145
H        1.41612910       0.64500585      -1.71936924
H        2.83338396       0.44231565      -0.73745995
14
Frame=7 idx=009241 GeodesicLength=0.6513740025146115 rxn_smarts="[C:1]([C@@:2]([C:3](=[O:4])[H:12])([C:5](=[O:6])[N:7]([H:13])[H:14])[H:11])([H:8])([H:9])[H:10]>>[C:1]([C@@:2]([O+:4]=[C-:3][H:12])([C:5](=[O:6])[N:7]([H:13])[H:14])[H:11])([H:8])([H:9])[H:10]"
C       -1.09148850      -1.15461447       0.89351191
C       -0.42769243      -0.20900255      -0.07373112
C       -0.73313069       1.59930628      -0.29722279
O       -1.79084846       0.94728851      -0.22892941
C        1.08262188      -0.06990320       0.19156626
O        1.53679729      -0.11166228       1.31147026
N        1.85207991       0.34783818      -0.84326639
H       -1.04987573      -0.76381479       1.90703162
H       -2.13325779      -1.31177671       0.61882878
H       -0.61633768      -2.13671620       0.86159620
H       -0.50662667      -0.66813816      -1.06943659
H       -0.40858540       2.51336452      -0.82835519
H        1.43836074       0.61837756      -1.71633096
H        2.84798353       0.39945331      -0.72673258
14
Frame=8 idx=009241 GeodesicLength=0.7407379744079552 rxn_smarts="[C:1]([C@@:2]([C:3](=[O:4])[H:12])([C:5](=[O:6])[N:7]([H:13])[H:14])[H:11])([H:8])([H:9])[H:10]>>[C:1]([C@@:2]([O+:4]=[C-:3][H:12])([C:5](=[O:6])[N:7]([H:13])[H:14])[H:11])([H:8])([H:9])[H:10]"
C       -1.08539636      -1.16340242       0.88266857
C       -0.42867678      -0.19105554      -0.06608459
C       -0.75592245       1.59510826      -0.38865372
O       -1.79584726       0.98411805      -0.10438443
C        1.08023058      -0.05524801       0.20242025
O        1.53728568      -0.09617983       1.32168507
N        1.86412652       0.33770178      -0.83139804
H       -1.05375934      -0.79256044       1.90432000
H       -2.12476582      -1.32514144       0.60103257
H       -0.60074229      -2.14010198       0.83673368
H       -0.51118580      -0.64473068      -1.06431049
H       -0.44673987       2.54137036      -0.86428627
H        1.46010253       0.59274106      -1.71356270
H        2.86129066       0.35738083      -0.71617989
14
Frame=9 idx=009241 GeodesicLength=0.8274842482578666 rxn_smarts="[C:1]([C@@:2]([C:3](=[O:4])[H:12])([C:5](=[O:6])[N:7]([H:13])[H:14])[H:11])([H:8])([H:9])[H:10]>>[C:1]([C@@:2]([O+:4]=[C-:3][H:12])([C:5](=[O:6])[N:7]([H:13])[H:14])[H:11])([H:8])([H:9])[H:10]"
C       -1.08165036      -1.16809182       0.87258205
C       -0.42810256      -0.17754063      -0.06274450
C       -0.79700719       1.57517426      -0.49420473
O       -1.77970916       1.02557137       0.01400787
C        1.07780529      -0.03774065       0.21168793
O        1.54047875      -0.08905488       1.32870389
N        1.87500297       0.33310598      -0.82029654
H       -1.05651466      -0.81508916       1.90099573
H       -2.12018847      -1.32722343       0.58589683
H       -0.59162131      -2.14130428       0.81578025
H       -0.51033955      -0.63399764      -1.06007318
H       -0.48068365       2.55924380      -0.87563572
H        1.48014828       0.57095314      -1.71132074
H        2.87238163       0.32599394      -0.70537915
14
Frame=10 idx=009241 GeodesicLength=0.9159219579754909 rxn_smarts="[C:1]([C@@:2]([C:3](=[O:4])[H:12])([C:5](=[O:6])[N:7]([H:13])[H:14])[H:11])([H:8])([H:9])[H:10]>>[C:1]([C@@:2]([O+:4]=[C-:3][H:12])([C:5](=[O:6])[N:7]([H:13])[H:14])[H:11])([H:8])([H:9])[H:10]"
C       -1.08015312      -1.16879943       0.86238527
C       -0.42473934      -0.16609718      -0.06173498
C       -0.85482701       1.54523308      -0.59101846
O       -1.74132375       1.07303902       0.12463948
C        1.07699616      -0.01859152       0.22111709
O        1.54769459      -0.09328767       1.33396819
N        1.88540494       0.34039653      -0.80666767
H       -1.05885382      -0.83349558       1.89708259
H       -2.11935430      -1.31770061       0.57201063
H       -0.58928588      -2.14072152       0.79554801
H       -0.50354064      -0.62840058      -1.05699555
H       -0.51837603       2.55155732      -0.88819127
H        1.49805694       0.56404847      -1.70462422
H        2.88230125       0.29281967      -0.69751911
14
Frame=11 idx=009241 GeodesicLength=1.006611525237008 rxn_smarts="[C:1]([C@@:2]([C:3](=[O:4])[H:12])([C:5](=[O:6])[N:7]([H:13])[H:14])[H:11])([H:8])([H:9])[H:10]>>[C:1]([C@@:2]([O+:4]=[C-:3][H:12])([C:5](=[O:6])[N:7]([H:13])[H:14])[H:11])([H:8])([H:9])[H:10]"
C       -1.08214951      -1.16688786       0.85277144
C       -0.41838734      -0.15767566      -0.06101817
C       -0.91961645       1.51068876      -0.66203551
O       -1.68242769       1.12448972       0.22561135
C        1.07955985      -0.00697172       0.22966264
O        1.55962737      -0.11296655       1.33649266
N        1.89574250       0.35239515      -0.79226731
H       -1.06198291      -0.84929611       1.89336418
H       -2.12335833      -1.29752523       0.56017607
H       -0.59646912      -2.14042213       0.77574917
H       -0.49485809      -0.62371008      -1.05498293
H       -0.56013633       2.52060618      -0.92125338
H        1.51297529       0.57107798      -1.69341878
H        2.89148076       0.27619755      -0.68885143
14
Frame=12 idx=009241 GeodesicLength=1.097405023472065 rxn_smarts="[C:1]([C@@:2]([C:3](=[O:4])[H:12])([C:5](=[O:6])[N:7]([H:13])[H:14])[H:11])([H:8])([H:9])[H:10]>>[C:1]([C@@:2]([O+:4]=[C-:3][H:12])([C:5](=[O:6])[N:7]([H:13])[H:14])[H:11])([H:8])([H:9])[H:10]"
C       -1.08642715      -1.16284862       0.84399844
C       -0.40934068      -0.15193762      -0.06054102
C       -0.98821471       1.47379405      -0.70881722
O       -1.61090863       1.17479854       0.31158390
C        1.08534905      -0.00275405       0.23726660
O        1.57462988      -0.14180919       1.33694567
N        1.90659106       0.36779843      -0.77709605
H       -1.06720078      -0.86073204       1.88953174
H       -2.12980460      -1.27160086       0.54954441
H       -0.60956569      -2.13980425       0.75863760
H       -0.48495323      -0.61898079      -1.05426140
H       -0.60680933       2.47725516      -0.96692729
H        1.52583005       0.59152524      -1.67790816
H        2.90082478       0.26529598      -0.68195722
14
Frame=13 idx=009241 GeodesicLength=1.1877420536023182 rxn_smarts="[C:1]([C@@:2]([C:3](=[O:4])[H:12])([C:5](=[O:6])[N:7]([H:13])[H:14])[H:11])([H:8])([H:9])[H:10]>>[C:1]([C@@:2]([O+:4]=[C-:3][H:12])([C:5](=[O:6])[N:7]([H:13])[H:14])[H:11])([H:8])([H:9])[H:10]"
C       -1.09244197      -1.15683831       0.83627638
C       -0.39848531      -0.14875987      -0.06087371
C       -1.05793356       1.43526844      -0.73699654
O       -1.53257245       1.22193731       0.38010124
C        1.09369422      -0.00623854       0.24266432
O        1.59113340      -0.17491274       1.33501970
N        1.91796582       0.38252699      -0.76286692
H       -1.07496975      -0.86622681       1.88541361
H       -2.13755360      -1.24305670       0.53993820
H       -0.62662078      -2.13838268       0.74568860
H       -0.47561812      -0.61456742      -1.05508226
H       -0.65477859       2.42671592      -1.01327038
H        1.53721329       0.62025763      -1.66011298
H        2.91096741       0.26227679      -0.67589925
14
Frame=14 idx=009241 GeodesicLength=1.27795365904866 rxn_smarts="[C:1]([C@@:2]([C:3](=[O:4])[H:12])([C:5](=[O:6])[N:7]([H:13])[H:14])[H:11])([H:8])([H:9])[H:10]>>[C:1]([C@@:2]([O+:4]=[C-:3][H:12])([C:5](=[O:6])[N:7]([H:13])[H:14])[H:11])([H:8])([H:9])[H:10]"
C       -1.09917359      -1.14929441       0.82919273
C       -0.38650367      -0.14721559      -0.06221047
C       -1.12776153       1.39650527      -0.74996689
O       -1.45165290       1.26536393       0.43225101
C        1.10380202      -0.01560314       0.24582259
O        1.60786126      -0.20786889       1.33171087
N        1.92998017       0.39544611      -0.74969574
H       -1.08502775      -0.86603194       1.88073654
H       -2.14530227      -1.21448055       0.53049178
H       -0.64500009      -2.13585033       0.73655847
H       -0.46764196      -0.60936956      -1.05772538
H       -0.70339407       2.37176634      -1.05583002
H        1.54782681       0.65452375      -1.64044880
H        2.92198756       0.26210900      -0.67088668
14
Frame=15 idx=009241 GeodesicLength=1.368438560410341 rxn_smarts="[C:1]([C@@:2]([C:3](=[O:4])[H:12])([C:5](=[O:6])[N:7]([H:13])[H:14])[H:11])([H:8])([H:9])[H:10]>>[C:1]([C@@:2]([O+:4]=[C-:3][H:12])([C:5](=[O:6])[N:7]([H:13])[H:14])[H:11])([H:8])([H:9])[H:10]"
C       -1.10595427      -1.14067058       0.82239656
C       -0.37393110      -0.14659860      -0.06455371
C       -1.19680929       1.35850858      -0.74996775
O       -1.37051946       1.30535437       0.47001764
C        1.11499980      -0.02929193       0.24684825
O        1.62399568      -0.23816665       1.32781757
N        1.94267161       0.40573253      -0.73763466
H       -1.09694025      -0.86092604       1.87531049
H       -2.15237803      -1.18748528       0.52071770
H       -0.66307369      -2.13218372       0.73050548
H       -0.46154647      -0.60245297      -1.06222948
H       -0.75253059       2.31373894      -1.09348485
H        1.55825064       0.69273760      -1.61883478
H        2.93376544       0.26170375      -0.66690846
14
Frame=16 idx=009241 GeodesicLength=1.4590732355912663 rxn_smarts="[C:1]([C@@:2]([C:3](=[O:4])[H:12])([C:5](=[O:6])[N:7]([H:13])[H:14])[H:11])([H:8])([H:9])[H:10]>>[C:1]([C@@:2]([O+:4]=[C-:3][H:12])([C:5](=[O:6])[N:7]([H:13])[H:14])[H:11])([H:8])([H:9])[H:10]"
C       -1.11227968      -1.13144451       0.81555656
C       -0.36125593      -0.14633728      -0.06788192
C       -1.26397108       1.32235526      -0.73854304
O       -1.29124905       1.34195722       0.49524212
C        1.12664934      -0.04585769       0.24589307
O        1.63874477      -0.26329250       1.32412584
N        1.95595729       0.41261614      -0.72695611
H       -1.11037140      -0.85182244       1.86889933
H       -2.15832858      -1.16346591       0.51014669
H       -0.67946652      -2.12742083       0.72690127
H       -0.45774658      -0.59296745      -1.06855914
H       -0.80172882       2.25390626      -1.12531363
H        1.56896182       0.73271886      -1.59553726
H        2.94608441       0.25905486      -0.66397376
