12
Frame=0 idx=004693 GeodesicLength=0.0 rxn_smarts="[C:1]([C:2]([C:3]#[C:4][C:5](=[O:6])[H:12])([H:10])[H:11])([H:7])([H:8])[H:9]>>[C:1]([C:2]([C:3]([C:5](=[C:4])[H:12])=[O:6])([H:10])[H:11])([H:7])([H:8])[H:9]"
C       -1.62555955       0.49353249      -0.13262320
C       -0.57033437      -0.60820024      -0.13900714
C        0.79090509      -0.10423297      -0.40414788
C        1.96662909      -0.30168793      -1.01062915
C        2.21960678       0.12486901       0.33551533
O        1.30784763       0.93725748       0.81022951
H       -1.41751618       1.21963282       0.65268130
H       -1.64619412       1.02034291      -1.08718180
H       -2.61295382       0.06551431       0.04198230
H       -0.77182200      -1.35218936      -0.91221859
H       -0.55415839      -1.13006757       0.82184157
H        2.91354984      -0.36477098       1.02355775
12
Frame=1 idx=004693 GeodesicLength=0.09636705301982731 rxn_smarts="[C:1]([C:2]([C:3]#[C:4][C:5](=[O:6])[H:12])([H:10])[H:11])([H:7])([H:8])[H:9]>>[C:1]([C:2]([C:3]([C:5](=[C:4])[H:12])=[O:6])([H:10])[H:11])([H:7])([H:8])[H:9]"
C       -1.63336439       0.49295417      -0.12865412
C       -0.57677024      -0.60682819      -0.14444143
C        0.78609856      -0.10068617      -0.39572174
C        1.97549704      -0.35560897      -0.99088298
C        2.23877483       0.13028897       0.32766168
O        1.32488274       0.96929593       0.79568329
H       -1.43462212       1.20596205       0.67090878
H       -1.64782866       1.03558827      -1.07435765
H       -2.62157128       0.06074602       0.03077508
H       -0.77680949      -1.34127246      -0.92738858
H       -0.56337458      -1.14236977       0.80894853
H        2.92908759      -0.34806986       1.02746915
12
Frame=2 idx=004693 GeodesicLength=0.19263544016579093 rxn_smarts="[C:1]([C:2]([C:3]#[C:4][C:5](=[O:6])[H:12])([H:10])[H:11])([H:7])([H:8])[H:9]>>[C:1]([C:2]([C:3]([C:5](=[C:4])[H:12])=[O:6])([H:10])[H:11])([H:7])([H:8])[H:9]"
C       -1.64111818       0.49234081      -0.12455056
C       -0.58347520      -0.60572163      -0.15003591
C        0.78127535      -0.09786353      -0.38641279
C        1.98321692      -0.40958614      -0.96820236
C        2.25834127       0.13550350       0.31915773
O        1.34238747       1.00168307       0.77954352
H       -1.45143295       1.19165584       0.68916423
H       -1.64914809       1.05096505      -1.06090983
H       -2.63018088       0.05651844       0.01939411
H       -0.78180492      -1.32981726      -0.94327825
H       -0.57354485      -1.15556996       0.79527089
H        2.94548405      -0.33010818       1.03085921
12
Frame=3 idx=004693 GeodesicLength=0.2888450644472992 rxn_smarts="[C:1]([C:2]([C:3]#[C:4][C:5](=[O:6])[H:12])([H:10])[H:11])([H:7])([H:8])[H:9]>>[C:1]([C:2]([C:3]([C:5](=[C:4])[H:12])=[O:6])([H:10])[H:11])([H:7])([H:8])[H:9]"
C       -1.64881025       0.49168481      -0.12019437
C       -0.59045169      -0.60489526      -0.15588878
C        0.77642799      -0.09583248      -0.37624337
C        1.98995602      -0.46401376      -0.94223093
C        2.27825301       0.14045226       0.30995968
O        1.36036123       1.03467057       0.76119835
H       -1.46798117       1.17650590       0.70772929
H       -1.65008817       1.06667946      -1.04656143
H       -2.63878298       0.05283133       0.00782948
H       -0.78679441      -1.31766738      -0.96009026
H       -0.58469334      -1.16979443       0.78059609
H        2.96260376      -0.31062101       1.03389625
12
Frame=4 idx=004693 GeodesicLength=0.38498796660537193 rxn_smarts="[C:1]([C:2]([C:3]#[C:4][C:5](=[O:6])[H:12])([H:10])[H:11])([H:7])([H:8])[H:9]>>[C:1]([C:2]([C:3]([C:5](=[C:4])[H:12])=[O:6])([H:10])[H:11])([H:7])([H:8])[H:9]"
C       -1.65647528       0.49097095      -0.11560563
C       -0.59772600      -0.60434496      -0.16196118
C        0.77150072      -0.09455073      -0.36495150
C        1.99570172      -0.51863956      -0.91277605
C        2.29853572       0.14503201       0.30002869
O        1.37888396       1.06812615       0.74062201
H       -1.48430695       1.16055486       0.72650093
H       -1.65068689       1.08261987      -1.03134593
H       -2.64740661       0.04969717      -0.00391121
H       -0.79163662      -1.30472788      -0.97783256
H       -0.59695201      -1.18506730       0.76487646
H        2.98056824      -0.28967059       1.03635596
12
Frame=5 idx=004693 GeodesicLength=0.48106160668225073 rxn_smarts="[C:1]([C:2]([C:3]#[C:4][C:5](=[O:6])[H:12])([H:10])[H:11])([H:7])([H:8])[H:9]>>[C:1]([C:2]([C:3]([C:5](=[C:4])[H:12])=[O:6])([H:10])[H:11])([H:7])([H:8])[H:9]"
C       -1.66414227       0.49018392      -0.11077641
C       -0.60531769      -0.60406620      -0.16823795
C        0.76644167      -0.09399789      -0.35228615
C        2.00046506      -0.57333428      -0.87958448
C        2.31919073       0.14912905       0.28932074
O        1.39802178       1.10197847       0.71764423
H       -1.50047633       1.14378330       0.74546650
H       -1.65094763       1.09875190      -1.01522397
H       -2.65607696       0.04712029      -0.01584880
H       -0.79618606      -1.29087206      -0.99654733
H       -0.61044410      -1.20143324       0.74801595
H        2.99947179      -0.26724326       1.03805767
12
Frame=6 idx=004693 GeodesicLength=0.5770677960803814 rxn_smarts="[C:1]([C:2]([C:3]#[C:4][C:5](=[O:6])[H:12])([H:10])[H:11])([H:7])([H:8])[H:9]>>[C:1]([C:2]([C:3]([C:5](=[C:4])[H:12])=[O:6])([H:10])[H:11])([H:7])([H:8])[H:9]"
C       -1.67185152       0.48930754      -0.10571675
C       -0.61323629      -0.60404336      -0.17468213
C        0.76119002      -0.09411961      -0.33794725
C        2.00424651      -0.62786314      -0.84244631
C        2.34020998       0.15259661       0.27779997
O        1.41784711       1.13610481       0.69215579
H       -1.51659311       1.12620855       0.76457952
H       -1.65088984       1.11501349      -0.99819924
H       -2.66482100       0.04508705      -0.02801362
H       -0.80024743      -1.27598471      -1.01623295
H       -0.62528908      -1.21890658       0.72994288
H        3.01943466      -0.24340065       1.03876009
12
Frame=7 idx=004693 GeodesicLength=0.6730935565883455 rxn_smarts="[C:1]([C:2]([C:3]#[C:4][C:5](=[O:6])[H:12])([H:10])[H:11])([H:7])([H:8])[H:9]>>[C:1]([C:2]([C:3]([C:5](=[C:4])[H:12])=[O:6])([H:10])[H:11])([H:7])([H:8])[H:9]"
C       -1.67967785       0.48834373      -0.10051618
C       -0.62147266      -0.60426828      -0.18116662
C        0.75565822      -0.09477836      -0.32150527
C        2.00701362      -0.68165227      -0.80144424
C        2.36158695       0.15525813       0.26544760
O        1.43843960       1.17026014       0.66441683
H       -1.53284405       1.10804804       0.78366770
H       -1.65059609       1.13126187      -0.98050495
H       -2.67367523       0.04354208      -0.04044768
H       -0.80352518      -1.26008366      -1.03676760
H       -0.64158404      -1.23746175       0.71076009
H        3.04067670      -0.21846965       1.03806032
12
Frame=8 idx=004693 GeodesicLength=0.7685133037173825 rxn_smarts="[C:1]([C:2]([C:3]#[C:4][C:5](=[O:6])[H:12])([H:10])[H:11])([H:7])([H:8])[H:9]>>[C:1]([C:2]([C:3]([C:5](=[C:4])[H:12])=[O:6])([H:10])[H:11])([H:7])([H:8])[H:9]"
C       -1.68806576       0.48718373      -0.09626407
C       -0.62987414      -0.60427732      -0.18651927
C        0.74954849      -0.09463453      -0.30147794
C        2.00844092      -0.72987688      -0.76002540
C        2.38352122       0.15668288       0.25247499
O        1.46003113       1.20191660       0.63980956
H       -1.55001872       1.09145277       0.79992284
H       -1.65113599       1.14503763      -0.96478130
H       -2.68280423       0.04197813      -0.05305311
H       -0.80499168      -1.24402309      -1.05582704
H       -0.65915301      -1.25533008       0.69224593
H        3.06450176      -0.19610983       1.03349482
12
Frame=9 idx=004693 GeodesicLength=0.8640950849849103 rxn_smarts="[C:1]([C:2]([C:3]#[C:4][C:5](=[O:6])[H:12])([H:10])[H:11])([H:7])([H:8])[H:9]>>[C:1]([C:2]([C:3]([C:5](=[C:4])[H:12])=[O:6])([H:10])[H:11])([H:7])([H:8])[H:9]"
C       -1.69629314       0.48589493      -0.09071079
C       -0.63877223      -0.60471853      -0.19298985
C        0.74324176      -0.09637954      -0.27915974
C        2.00907039      -0.78266694      -0.70989715
C        2.40556824       0.15731497       0.23805433
O        1.48243026       1.23586851       0.60644405
H       -1.56728906       1.07131663       0.81915689
H       -1.65007409       1.16138266      -0.94498364
H       -2.69200041       0.04135933      -0.06686041
H       -0.80598420      -1.22494023      -1.07799776
H       -0.67885634      -1.27596554       0.67000623
H        3.08895882      -0.16846625       1.02893784
12
Frame=10 idx=004693 GeodesicLength=0.9597656145041981 rxn_smarts="[C:1]([C:2]([C:3]#[C:4][C:5](=[O:6])[H:12])([H:10])[H:11])([H:7])([H:8])[H:9]>>[C:1]([C:2]([C:3]([C:5](=[C:4])[H:12])=[O:6])([H:10])[H:11])([H:7])([H:8])[H:9]"
C       -1.70483479       0.48445184      -0.08490098
C       -0.64801291      -0.60527838      -0.19944319
C        0.73637849      -0.09873862      -0.25273451
C        2.00843439      -0.83520746      -0.65385307
C        2.42788003       0.15662727       0.22228101
O        1.50583160       1.26960160       0.56939118
H       -1.58559064       1.04988472       0.83885053
H       -1.64841401       1.17816858      -0.92375477
H       -2.70142585       0.04120212      -0.08185794
H       -0.80520753      -1.20376494      -1.10129179
H       -0.70068529      -1.29803361       0.64577049
H        3.11564651      -0.13891311       1.02154306
12
Frame=11 idx=004693 GeodesicLength=1.0552974568147098 rxn_smarts="[C:1]([C:2]([C:3]#[C:4][C:5](=[O:6])[H:12])([H:10])[H:11])([H:7])([H:8])[H:9]>>[C:1]([C:2]([C:3]([C:5](=[C:4])[H:12])=[O:6])([H:10])[H:11])([H:7])([H:8])[H:9]"
C       -1.71379048       0.48279381      -0.07895269
C       -0.65749406      -0.60578789      -0.20563262
C        0.72879062      -0.10155067      -0.22108480
C        2.00645259      -0.88680688      -0.59161329
C        2.45025969       0.15425959       0.20498972
O        1.53019092       1.30258276       0.52867844
H       -1.60549840       1.02708665       0.85876516
H       -1.64608429       1.19524184      -0.90105634
H       -2.71105966       0.04143255      -0.09847710
H       -0.80195193      -1.18013838      -1.12530951
H       -0.72474658      -1.32130132       0.61943203
H        3.14493158      -0.10781206       1.01026100
12
Frame=12 idx=004693 GeodesicLength=1.1507757820079252 rxn_smarts="[C:1]([C:2]([C:3]#[C:4][C:5](=[O:6])[H:12])([H:10])[H:11])([H:7])([H:8])[H:9]>>[C:1]([C:2]([C:3]([C:5](=[C:4])[H:12])=[O:6])([H:10])[H:11])([H:7])([H:8])[H:9]"
C       -1.72339467       0.48086320      -0.07308082
C       -0.66697955      -0.60597044      -0.21113323
C        0.72027514      -0.10435732      -0.18270276
C        2.00294510      -0.93657154      -0.52329210
C        2.47253936       0.14978810       0.18593227
O        1.55560397       1.33431189       0.48468799
H       -1.62790491       1.00301908       0.87855707
H       -1.64322255       1.21238850      -0.87707200
H       -2.72089792       0.04175401      -0.11735602
H       -0.79527011      -1.15372809      -1.14941751
H       -0.75092954      -1.34543938       0.59105777
H        3.17723570      -0.07605799       0.99381935
12
Frame=13 idx=004693 GeodesicLength=1.2459833006896714 rxn_smarts="[C:1]([C:2]([C:3]#[C:4][C:5](=[O:6])[H:12])([H:10])[H:11])([H:7])([H:8])[H:9]>>[C:1]([C:2]([C:3]([C:5](=[C:4])[H:12])=[O:6])([H:10])[H:11])([H:7])([H:8])[H:9]"
C       -1.73381980       0.47856865      -0.06753835
C       -0.67600922      -0.60538168      -0.21538152
C        0.71062516      -0.10646322      -0.13606284
C        1.99772247      -0.98342862      -0.44946716
C        2.49427130       0.14271217       0.16485769
O        1.58197787       1.36419497       0.43792095
H       -1.65380556       0.97776519       0.89778325
H       -1.63996226       1.22932453      -0.85205013
H       -2.73072816       0.04169514      -0.13919191
H       -0.78403674      -1.12415356      -1.17264395
H       -0.77876441      -1.36985144       0.56086389
H        3.21252935      -0.04498212       0.97091008
12
Frame=14 idx=004693 GeodesicLength=1.3409134335370552 rxn_smarts="[C:1]([C:2]([C:3]#[C:4][C:5](=[O:6])[H:12])([H:10])[H:11])([H:7])([H:8])[H:9]>>[C:1]([C:2]([C:3]([C:5](=[C:4])[H:12])=[O:6])([H:10])[H:11])([H:7])([H:8])[H:9]"
C       -1.74502817       0.47589712      -0.06231780
C       -0.68398133      -0.60358760      -0.21812898
C        0.69975999      -0.10733728      -0.08069181
C        1.99101161      -1.02705833      -0.37024846
C        2.51462003       0.13242347       0.14176205
O        1.60863139       1.39175592       0.38769293
H       -1.68388416       0.95108037       0.91644868
H       -1.63639124       1.24628424      -0.82557269
H       -2.74013684       0.04096861      -0.16446787
H       -0.76733206      -1.09103483      -1.19426564
H       -0.80721867      -1.39395221       0.52875863
H        3.24994946      -0.01543948       0.94103096
12
Frame=15 idx=004693 GeodesicLength=1.4356635293352387 rxn_smarts="[C:1]([C:2]([C:3]#[C:4][C:5](=[O:6])[H:12])([H:10])[H:11])([H:7])([H:8])[H:9]>>[C:1]([C:2]([C:3]([C:5](=[C:4])[H:12])=[O:6])([H:10])[H:11])([H:7])([H:8])[H:9]"
C       -1.75706062       0.47277483      -0.05762118
C       -0.68998899      -0.59981283      -0.21908891
C        0.68778669      -0.10531138      -0.01829990
C        1.98300821      -1.06635918      -0.28747388
C        2.53276173       0.11827775       0.11722834
O        1.63505175       1.41628889       0.33513915
H       -1.71833944       0.92335692       0.93388738
H       -1.63368412       1.26279073      -0.79821030
H       -2.74860068       0.03868526      -0.19282084
H       -0.74489374      -1.05465009      -1.21295229
H       -0.83394887      -1.41618455       0.49555465
H        3.28790809       0.01014368       0.90465779
12
Frame=16 idx=004693 GeodesicLength=1.5302258838704368 rxn_smarts="[C:1]([C:2]([C:3]#[C:4][C:5](=[O:6])[H:12])([H:10])[H:11])([H:7])([H:8])[H:9]>>[C:1]([C:2]([C:3]([C:5](=[C:4])[H:12])=[O:6])([H:10])[H:11])([H:7])([H:8])[H:9]"
C       -1.76971287       0.46916165      -0.05349873
C       -0.69338097      -0.59350933      -0.21854700
C        0.67510830      -0.09863680       0.04619040
C        1.97429778      -1.10045741      -0.20365568
C        2.54805671       0.09999848       0.09254552
O        1.66075398       1.43737536       0.28187707
H       -1.75601232       0.89521517       0.94948759
H       -1.63348778       1.27831255      -0.77077756
H       -2.75559916       0.03406373      -0.22257235
H       -0.71793747      -1.01612202      -1.22786233
H       -0.85597387      -1.43485271       0.46249022
H        3.32388768       0.02945132       0.86432285
