11
Frame=0 idx=002710 GeodesicLength=0.0 rxn_smarts="[C@:1]12([H:7])[C@:2]3([H:8])[C@@:3]1([H:9])[N:4]1[C@@:5]2([H:10])[C@:6]31[H:11]>>[C@@:1]12([H:7])[C:2]([H:8])=[C:6]([H:11])[C@:5]1([H:10])[N:4]=[C:3]2[H:9]"
C       -0.10807734       1.01176810       0.26995649
C        1.01670135       0.00694795       0.61408424
C        0.16298797       0.43392039      -1.02540916
N       -0.84877240      -0.54563678      -1.13077110
C       -1.11161861      -0.20756974       0.30029885
C        0.06699505      -1.05443020       0.48114769
H       -0.17047083       2.04460421       0.59071673
H        2.07454277       0.05145260       0.41090710
H        0.87977702       0.70643357      -1.79477504
H       -2.08714090      -0.31314907       0.76066958
H        0.12507595      -2.13434105       0.52317461
11
Frame=1 idx=002710 GeodesicLength=0.0344493208541373 rxn_smarts="[C@:1]12([H:7])[C@:2]3([H:8])[C@@:3]1([H:9])[N:4]1[C@@:5]2([H:10])[C@:6]31[H:11]>>[C@@:1]12([H:7])[C:2]([H:8])=[C:6]([H:11])[C@:5]1([H:10])[N:4]=[C:3]2[H:9]"
C       -0.10608839       1.00901440       0.26980123
C        1.01675361       0.00219460       0.60525500
C        0.16355426       0.43781218      -1.03271244
N       -0.84209626      -0.54662936      -1.12977542
C       -1.10968447      -0.20710448       0.30015585
C        0.06670116      -1.05993543       0.48238205
H       -0.16776600       2.04028746       0.59495950
H        2.07870590       0.04922276       0.42604292
H        0.86502766       0.72344787      -1.81111808
H       -2.08824528      -0.30921626       0.75440277
H        0.12313781      -2.13909375       0.54060662
11
Frame=2 idx=002710 GeodesicLength=0.06888282453145476 rxn_smarts="[C@:1]12([H:7])[C@:2]3([H:8])[C@@:3]1([H:9])[N:4]1[C@@:5]2([H:10])[C@:6]31[H:11]>>[C@@:1]12([H:7])[C:2]([H:8])=[C:6]([H:11])[C@:5]1([H:10])[N:4]=[C:3]2[H:9]"
C       -0.10389885       1.00616888       0.26954963
C        1.01694507      -0.00274948       0.59612825
C        0.16413508       0.44171256      -1.04015909
N       -0.83530923      -0.54762337      -1.12886028
C       -1.10764364      -0.20666739       0.29992846
C        0.06645208      -1.06551679       0.48356478
H       -0.16475327       2.03584969       0.59914951
H        2.08261913       0.04697077       0.44201393
H        0.84945191       0.74076709      -1.82761190
H       -2.08920704      -0.30524905       0.74801577
H        0.12120877      -2.14366292       0.55828094
11
Frame=3 idx=002710 GeodesicLength=0.10328762104798343 rxn_smarts="[C@:1]12([H:7])[C@:2]3([H:8])[C@@:3]1([H:9])[N:4]1[C@@:5]2([H:10])[C@:6]31[H:11]>>[C@@:1]12([H:7])[C:2]([H:8])=[C:6]([H:11])[C@:5]1([H:10])[N:4]=[C:3]2[H:9]"
C       -0.10149453       1.00323124       0.26919362
C        1.01728653      -0.00788877       0.58668828
C        0.16473058       0.44562087      -1.04775869
N       -0.82842078      -0.54860907      -1.12802822
C       -1.10548737      -0.20625385       0.29961904
C        0.06625499      -1.07117362       0.48468443
H       -0.16141851       2.03129274       0.60327029
H        2.08622829       0.04470276       0.45888349
H        0.83302276       0.75835805      -1.84423700
H       -2.09000912      -0.30124431       0.74152761
H        0.11930717      -2.14803603       0.57615715
11
Frame=4 idx=002710 GeodesicLength=0.13764770929697792 rxn_smarts="[C@:1]12([H:7])[C@:2]3([H:8])[C@@:3]1([H:9])[N:4]1[C@@:5]2([H:10])[C@:6]31[H:11]>>[C@@:1]12([H:7])[C:2]([H:8])=[C:6]([H:11])[C@:5]1([H:10])[N:4]=[C:3]2[H:9]"
C       -0.09886081       1.00020201       0.26872433
C        1.01779086      -0.01322782       0.57691787
C        0.16533816       0.44953959      -1.05552128
N       -0.82144305      -0.54957384      -1.12728062
C       -1.10320640      -0.20585869       0.29923103
C        0.06611839      -1.07690563       0.48572852
H       -0.15774717       2.02661905       0.60730506
H        2.08946573       0.04242745       0.47671068
H        0.81572249       0.77617960      -1.86096719
H       -2.09063376      -0.29719855       0.73495974
H        0.11745557      -2.15220317       0.59419187
11
Frame=5 idx=002710 GeodesicLength=0.17195097763078712 rxn_smarts="[C@:1]12([H:7])[C@:2]3([H:8])[C@@:3]1([H:9])[N:4]1[C@@:5]2([H:10])[C@:6]31[H:11]>>[C@@:1]12([H:7])[C:2]([H:8])=[C:6]([H:11])[C@:5]1([H:10])[N:4]=[C:3]2[H:9]"
C       -0.09598441       0.99708333       0.26813353
C        1.01846691      -0.01876179       0.56679988
C        0.16595750       0.45346781      -1.06345730
N       -0.81438350      -0.55050804      -1.12661947
C       -1.10078788      -0.20547459       0.29876980
C        0.06605310      -1.08270310       0.48668503
H       -0.15373239       2.02183116       0.61123856
H        2.09226334       0.04013387       0.49556666
H        0.79752711       0.79418553      -1.87778470
H       -2.09105684      -0.29310954       0.72833939
H        0.11567704      -2.15614463       0.61232864
11
Frame=6 idx=002710 GeodesicLength=0.20617157714870538 rxn_smarts="[C@:1]12([H:7])[C@:2]3([H:8])[C@@:3]1([H:9])[N:4]1[C@@:5]2([H:10])[C@:6]31[H:11]>>[C@@:1]12([H:7])[C:2]([H:8])=[C:6]([H:11])[C@:5]1([H:10])[N:4]=[C:3]2[H:9]"
C       -0.09284973       0.99387313       0.26741345
C        1.01932834      -0.02449612       0.55632101
C        0.16657976       0.45741069      -1.07157555
N       -0.80725870      -0.55139183      -1.12604443
C       -1.09821965      -0.20509432       0.29824150
C        0.06606867      -1.08856315       0.48754218
H       -0.14935452       2.01692714       0.61505052
H        2.09451380       0.03784083       0.51549527
H        0.77844009       0.81231498      -1.89464778
H       -2.09125441      -0.28897061       0.72169350
H        0.11400635      -2.15985076       0.63051033
11
Frame=7 idx=002710 GeodesicLength=0.24028862907645923 rxn_smarts="[C@:1]12([H:7])[C@:2]3([H:8])[C@@:3]1([H:9])[N:4]1[C@@:5]2([H:10])[C@:6]31[H:11]>>[C@@:1]12([H:7])[C:2]([H:8])=[C:6]([H:11])[C@:5]1([H:10])[N:4]=[C:3]2[H:9]"
C       -0.08944353       0.99058912       0.26655961
C        1.02040130      -0.03042054       0.54546293
C        0.16720485       0.46137047      -1.07988477
N       -0.80008815      -0.55222988      -1.12555560
C       -1.09550397      -0.20471307       0.29765560
C        0.06617764      -1.09448806       0.48828538
H       -0.14460496       2.01194144       0.61873182
H        2.09614783       0.03555015       0.53654161
H        0.75847124       0.83051400      -1.91152731
H       -2.09123384      -0.28478000       0.71505496
H        0.11247159      -2.16333362       0.64867576
11
Frame=8 idx=002710 GeodesicLength=0.274300671003347 rxn_smarts="[C@:1]12([H:7])[C@:2]3([H:8])[C@@:3]1([H:9])[N:4]1[C@@:5]2([H:10])[C@:6]31[H:11]>>[C@@:1]12([H:7])[C:2]([H:8])=[C:6]([H:11])[C@:5]1([H:10])[N:4]=[C:3]2[H:9]"
C       -0.08575380       0.98721539       0.26555624
C        1.02167169      -0.03653067       0.53421866
C        0.16782285       0.46535692      -1.08839123
N       -0.79286326      -0.55297990      -1.12514601
C       -1.09260085      -0.20431735       0.29701858
C        0.06639587      -1.10044608       0.48891353
H       -0.13948273       2.00683482       0.62224634
H        2.09701593       0.03321679       0.55875885
H        0.73760144       0.84872868      -1.92839280
H       -2.09091948      -0.28053641       0.70845188
H        0.11111235      -2.16654220       0.66676594
11
Frame=9 idx=002710 GeodesicLength=0.30818848119879383 rxn_smarts="[C@:1]12([H:7])[C@:2]3([H:8])[C@@:3]1([H:9])[N:4]1[C@@:5]2([H:10])[C@:6]31[H:11]>>[C@@:1]12([H:7])[C:2]([H:8])=[C:6]([H:11])[C@:5]1([H:10])[N:4]=[C:3]2[H:9]"
C       -0.08175895       0.98376916       0.26440637
C        1.02319314      -0.04282767       0.52256624
C        0.16843627       0.46936942      -1.09710797
N       -0.78560312      -0.55366429      -1.12482924
C       -1.08951953      -0.20390952       0.29633285
C        0.06674177      -1.10645690       0.48940140
H       -0.13395409       2.00164894       0.62561059
H        2.09702100       0.03087059       0.58215993
H        0.71583855       0.86693691      -1.94521456
H       -2.09034534      -0.27622838       0.70189689
H        0.10995029      -2.16950827       0.68477750
11
Frame=10 idx=002710 GeodesicLength=0.342001124689542 rxn_smarts="[C@:1]12([H:7])[C@:2]3([H:8])[C@@:3]1([H:9])[N:4]1[C@@:5]2([H:10])[C@:6]31[H:11]>>[C@@:1]12([H:7])[C:2]([H:8])=[C:6]([H:11])[C@:5]1([H:10])[N:4]=[C:3]2[H:9]"
C       -0.07742918       0.98023530       0.26308311
C        1.02498336      -0.04931626       0.51048492
C        0.16906321       0.47341049      -1.10605381
N       -0.77828116      -0.55427543      -1.12461172
C       -1.08622608      -0.20349281       0.29558894
C        0.06723883      -1.11251409       0.48974680
H       -0.12798462       1.99635523       0.62879061
H        2.09604090       0.02844152       0.60682535
H        0.69307223       0.88521717      -1.96199751
H       -2.08947128      -0.27185592       0.69538138
H        0.10899380      -2.17220521       0.70276192
11
Frame=11 idx=002710 GeodesicLength=0.3756915214132066 rxn_smarts="[C@:1]12([H:7])[C@:2]3([H:8])[C@@:3]1([H:9])[N:4]1[C@@:5]2([H:10])[C@:6]31[H:11]>>[C@@:1]12([H:7])[C:2]([H:8])=[C:6]([H:11])[C@:5]1([H:10])[N:4]=[C:3]2[H:9]"
C       -0.07274488       0.97661878       0.26159826
C        1.02706174      -0.05600146       0.49797405
C        0.16970565       0.47746938      -1.11521434
N       -0.77088369      -0.55482434      -1.12449538
C       -1.08269835      -0.20305658       0.29478214
C        0.06790704      -1.11861652       0.48992397
H       -0.12154393       1.99096915       0.63181177
H        2.09390227       0.02595647       0.63270608
H        0.66929297       0.90349684      -1.97866833
H       -2.08827613      -0.26738936       0.68888849
H        0.10827731      -2.17462236       0.72069329
11
Frame=12 idx=002710 GeodesicLength=0.40929854146783573 rxn_smarts="[C@:1]12([H:7])[C@:2]3([H:8])[C@@:3]1([H:9])[N:4]1[C@@:5]2([H:10])[C@:6]31[H:11]>>[C@@:1]12([H:7])[C:2]([H:8])=[C:6]([H:11])[C@:5]1([H:10])[N:4]=[C:3]2[H:9]"
C       -0.06770936       0.97291933       0.25993893
C        1.02942723      -0.06283317       0.48507107
C        0.17038920       0.48156392      -1.12459804
N       -0.76337871      -0.55528195      -1.12447611
C       -1.07891979      -0.20259690       0.29392548
C        0.06876517      -1.12472113       0.48995729
H       -0.11467547       1.98547416       0.63462603
H        2.09045693       0.02326172       0.65971776
H        0.64453542       0.92177796      -1.99518093
H       -2.08673332      -0.26286251       0.68245621
H        0.10784270      -2.17670144       0.73856231
11
Frame=13 idx=002710 GeodesicLength=0.442780641004774 rxn_smarts="[C@:1]12([H:7])[C@:2]3([H:8])[C@@:3]1([H:9])[N:4]1[C@@:5]2([H:10])[C@:6]31[H:11]>>[C@@:1]12([H:7])[C:2]([H:8])=[C:6]([H:11])[C@:5]1([H:10])[N:4]=[C:3]2[H:9]"
C       -0.06232566       0.96916487       0.25813252
C        1.03209734      -0.06980214       0.47184611
C        0.17112410       0.48570049      -1.13416957
N       -0.75575921      -0.55566369      -1.12455064
C       -1.07490361      -0.20211028       0.29301697
C        0.06982169      -1.13084175       0.48985459
H       -0.10738202       1.97992491       0.63726747
H        2.08559225       0.02039578       0.68763328
H        0.61889148       0.93996345      -2.01142955
H       -2.08487995      -0.25825595       0.67605695
H        0.10772360      -2.17847568       0.75634187
11
Frame=14 idx=002710 GeodesicLength=0.47621459458721027 rxn_smarts="[C@:1]12([H:7])[C@:2]3([H:8])[C@@:3]1([H:9])[N:4]1[C@@:5]2([H:10])[C@:6]31[H:11]>>[C@@:1]12([H:7])[C:2]([H:8])=[C:6]([H:11])[C@:5]1([H:10])[N:4]=[C:3]2[H:9]"
C       -0.05658777       0.96534784       0.25616635
C        1.03506333      -0.07687876       0.45838531
C        0.17198462       0.48988100      -1.14391373
N       -0.74792674      -0.55597443      -1.12472471
C       -1.07062102      -0.20160596       0.29202424
C        0.07109222      -1.13695978       0.48965906
H       -0.09968562       1.97430053       0.63970129
H        2.07922930       0.01718020       0.71626764
H        0.59224401       0.95819433      -2.02735671
H       -2.08269335      -0.25359558       0.66960816
H        0.10790102      -2.17988939       0.77418309
11
Frame=15 idx=002710 GeodesicLength=0.5095671251349041 rxn_smarts="[C@:1]12([H:7])[C@:2]3([H:8])[C@@:3]1([H:9])[N:4]1[C@@:5]2([H:10])[C@:6]31[H:11]>>[C@@:1]12([H:7])[C:2]([H:8])=[C:6]([H:11])[C@:5]1([H:10])[N:4]=[C:3]2[H:9]"
C       -0.05053940       0.96148372       0.25410131
C        1.03829136      -0.08402613       0.44483253
C        0.17301081       0.49410111      -1.15376530
N       -0.73981830      -0.55622989      -1.12499660
C       -1.06609701      -0.20108038       0.29094106
C        0.07256125      -1.14305517       0.48940333
H       -0.09165403       1.96862260       0.64200346
H        2.07133661       0.01361847       0.74514993
H        0.56475344       0.97634879      -2.04280557
H       -2.08022535      -0.24887461       0.66304368
H        0.10838062      -2.18090850       0.79209216
11
Frame=16 idx=002710 GeodesicLength=0.5429001513798267 rxn_smarts="[C@:1]12([H:7])[C@:2]3([H:8])[C@@:3]1([H:9])[N:4]1[C@@:5]2([H:10])[C@:6]31[H:11]>>[C@@:1]12([H:7])[C:2]([H:8])=[C:6]([H:11])[C@:5]1([H:10])[N:4]=[C:3]2[H:9]"
C       -0.04421387       0.95757835       0.25194986
C        1.04174038      -0.09119652       0.43135022
C        0.17430401       0.49836544      -1.16367418
N       -0.73131783      -0.55644174      -1.12536150
C       -1.06134332      -0.20054947       0.28973022
C        0.07421438      -1.14911348       0.48915643
H       -0.08337034       1.96289353       0.64415527
H        2.06200182       0.00954786       0.77387410
H        0.53638895       0.99453142      -2.05765591
H       -2.07751446      -0.24413317       0.65624560
H        0.10911029      -2.18148223       0.81022990
