17
Frame=0 idx=009039 GeodesicLength=0.0 rxn_smarts="[C:1]([C@@:2]1([H:11])[C:3]([H:12])([H:13])[C:4]([H:14])=[C:5]([H:15])[C:6]([H:16])([H:17])[O:7]1)([H:8])([H:9])[H:10]>>[C:1]([C@@:2]1([H:11])[C+:3]([H:13])[C:4]([H:14])=[C-:5][C:6]([H:16])([H:17])[O:7]1)([H:8])([H:9])[H:10].[H:12][H:15]"
C       -1.97080852       0.29659625      -0.07388745
C       -0.73790153       0.23795768       0.81072031
C        0.15876789      -0.95216462       0.46624552
C        1.51410860      -1.04728127       0.87403965
C        1.42546296      -0.24218297      -0.25478092
C        1.04471017       1.20674304      -0.30871979
O        0.06026510       1.40024908       0.68773635
H       -2.61199566      -0.57009675       0.10139139
H       -1.69830220       0.30830475      -1.13195216
H       -2.54121752       1.19889732       0.14618027
H       -1.03625932       0.18669159       1.86134667
H        0.52151376      -0.88459316      -1.46786061
H       -0.34537649      -1.80466746      -0.01280258
H        2.11080654      -1.92930180       1.04232511
H        1.54446418      -0.71816002      -1.37063599
H        1.88790991       1.85148897      -0.05929554
H        0.67385206       1.46151939      -1.31005030
17
Frame=1 idx=009039 GeodesicLength=0.1264380236358702 rxn_smarts="[C:1]([C@@:2]1([H:11])[C:3]([H:12])([H:13])[C:4]([H:14])=[C:5]([H:15])[C:6]([H:16])([H:17])[O:7]1)([H:8])([H:9])[H:10]>>[C:1]([C@@:2]1([H:11])[C+:3]([H:13])[C:4]([H:14])=[C-:5][C:6]([H:16])([H:17])[O:7]1)([H:8])([H:9])[H:10].[H:12][H:15]"
C       -1.97686414       0.29447174      -0.07334177
C       -0.73786421       0.23615240       0.80282009
C        0.15205331      -0.95687470       0.45806137
C        1.50860669      -1.04023453       0.86748865
C        1.45107178      -0.22994424      -0.25851479
C        1.05636221       1.21408470      -0.30292648
O        0.05169520       1.40266703       0.67322909
H       -2.61635033      -0.57275020       0.10535743
H       -1.71022793       0.30899073      -1.13277974
H       -2.54848109       1.19478475       0.15193721
H       -1.02917614       0.18806417       1.85590862
H        0.50885896      -0.90522498      -1.46875682
H       -0.35595156      -1.82630979       0.01832256
H        2.10297323      -1.92429993       1.03605230
H        1.54996326      -0.72251905      -1.38943499
H        1.89191472       1.86242513      -0.03545428
H        0.70141606       1.47651676      -1.30796847
17
Frame=2 idx=009039 GeodesicLength=0.25285962651908966 rxn_smarts="[C:1]([C@@:2]1([H:11])[C:3]([H:12])([H:13])[C:4]([H:14])=[C:5]([H:15])[C:6]([H:16])([H:17])[O:7]1)([H:8])([H:9])[H:10]>>[C:1]([C@@:2]1([H:11])[C+:3]([H:13])[C:4]([H:14])=[C-:5][C:6]([H:16])([H:17])[O:7]1)([H:8])([H:9])[H:10].[H:12][H:15]"
C       -1.98303640       0.29229759      -0.07293262
C       -0.73782933       0.23423036       0.79451081
C        0.14499748      -0.96199598       0.44949283
C        1.50293407      -1.03332281       0.85989599
C        1.47728851      -0.21737971      -0.26218892
C        1.06811782       1.22146183      -0.29684890
O        0.04319881       1.40478772       0.65815420
H       -2.62094543      -0.57528063       0.10949937
H       -1.72248323       0.30927971      -1.13376088
H       -2.55558053       1.19078634       0.15747109
H       -1.02194669       0.18951411       1.85005433
H        0.49630644      -0.92642447      -1.46969044
H       -0.36691491      -1.84765796       0.05196940
H        2.09518872      -1.91920938       1.02908022
H        1.55567562      -0.72631465      -1.40849729
H        1.89548749       1.87327538      -0.01087655
H        0.72954156       1.49195255      -1.30533266
17
Frame=3 idx=009039 GeodesicLength=0.3792617019357365 rxn_smarts="[C:1]([C@@:2]1([H:11])[C:3]([H:12])([H:13])[C:4]([H:14])=[C:5]([H:15])[C:6]([H:16])([H:17])[O:7]1)([H:8])([H:9])[H:10]>>[C:1]([C@@:2]1([H:11])[C+:3]([H:13])[C:4]([H:14])=[C-:5][C:6]([H:16])([H:17])[O:7]1)([H:8])([H:9])[H:10].[H:12][H:15]"
C       -1.98932968       0.29006453      -0.07266749
C       -0.73779553       0.23217514       0.78576669
C        0.13757057      -0.96757319       0.44052562
C        1.49707718      -1.02657147       0.85120295
C        1.50414882      -0.20447712      -0.26574891
C        1.07997737       1.22885394      -0.29047564
O        0.03478278       1.40658990       0.64246692
H       -2.62577942      -0.57769709       0.11381697
H       -1.73508293       0.30916313      -1.13490426
H       -2.56251656       1.18689688       0.16278047
H       -1.01456021       0.19104303       1.84375692
H        0.48382444      -0.94821913      -1.47072134
H       -0.37818421      -1.86852585       0.08829862
H        2.08743370      -1.91405683       1.02137533
H        1.56159437      -0.72949832      -1.42783760
H        1.89859098       1.88400176       0.01446663
H        0.75824830       1.50783066      -1.30210188
17
Frame=4 idx=009039 GeodesicLength=0.5056405219208603 rxn_smarts="[C:1]([C@@:2]1([H:11])[C:3]([H:12])([H:13])[C:4]([H:14])=[C:5]([H:15])[C:6]([H:16])([H:17])[O:7]1)([H:8])([H:9])[H:10]>>[C:1]([C@@:2]1([H:11])[C+:3]([H:13])[C:4]([H:14])=[C-:5][C:6]([H:16])([H:17])[O:7]1)([H:8])([H:9])[H:10].[H:12][H:15]"
C       -1.99574851       0.28776173      -0.07255366
C       -0.73776107       0.22996814       0.77656008
C        0.12973965      -0.97365697       0.43114935
C        1.49102102      -1.02000765       0.84134628
C        1.53168994      -0.19122678      -0.26913102
C        1.09194160       1.23623616      -0.28379396
O        0.02645512       1.40804891       0.62611683
H       -2.63084984      -0.58001012       0.11831044
H       -1.74804398       0.30863201      -1.13621794
H       -2.56928914       1.18310938       0.16786511
H       -1.00700479       0.19265420       1.83698730
H        0.47136723      -0.97063793      -1.47191039
H       -0.38965329      -1.88869415       0.12745763
H        2.07968739      -1.90886838       1.01290700
H        1.56770601      -0.73201830      -1.44746727
H        1.90118370       1.89456107       0.04060606
H        0.78755896       1.52414869      -1.29823186
17
Frame=5 idx=009039 GeodesicLength=0.6319923068075382 rxn_smarts="[C:1]([C@@:2]1([H:11])[C:3]([H:12])([H:13])[C:4]([H:14])=[C:5]([H:15])[C:6]([H:16])([H:17])[O:7]1)([H:8])([H:9])[H:10]>>[C:1]([C@@:2]1([H:11])[C+:3]([H:13])[C:4]([H:14])=[C-:5][C:6]([H:16])([H:17])[O:7]1)([H:8])([H:9])[H:10].[H:12][H:15]"
C       -2.00229736       0.28537665      -0.07259760
C       -0.73772395       0.22758902       0.76686238
C        0.12146842      -0.98030426       0.42136220
C        1.48474986      -1.01366015       0.83025794
C        1.55995006      -0.17762231      -0.27226048
C        1.10401144       1.24357889      -0.27678977
O        0.01822532       1.40913667       0.60904728
H       -2.63615334      -0.58223173       0.12298199
H       -1.76138515       0.30767570      -1.13770891
H       -2.57589699       1.17941553       0.17272528
H       -0.99926773       0.19435457       1.82971517
H        0.45887192      -0.99371294      -1.47331659
H       -0.40118763      -1.90790796       0.16956532
H        2.07192830      -1.90366893       1.00364959
H        1.57398860      -0.73382054      -1.46739299
H        1.90321915       1.90490460       0.06757424
H        0.81749909       1.54089719      -1.29367504
17
Frame=6 idx=009039 GeodesicLength=0.7583125093063721 rxn_smarts="[C:1]([C@@:2]1([H:11])[C:3]([H:12])([H:13])[C:4]([H:14])=[C:5]([H:15])[C:6]([H:16])([H:17])[O:7]1)([H:8])([H:9])[H:10]>>[C:1]([C@@:2]1([H:11])[C+:3]([H:13])[C:4]([H:14])=[C-:5][C:6]([H:16])([H:17])[O:7]1)([H:8])([H:9])[H:10].[H:12][H:15]"
C       -2.00898028       0.28289513      -0.07280413
C       -0.73768170       0.22501617       0.75664500
C        0.11271780      -0.98757818       0.41117606
C        1.47824824      -1.00755861       0.81786538
C        1.58896810      -0.16366126      -0.27504952
C        1.11618744       1.25084712      -0.26944772
O        0.01010482       1.40982153       0.59119478
H       -2.64168545      -0.58437475       0.12783734
H       -1.77512660       0.30628088      -1.13938187
H       -2.58233708       1.17580606       0.17736168
H       -0.99133540       0.19615692       1.82190955
H        0.44625643      -1.01748190      -1.47499273
H       -0.41262259      -1.92587480       0.21469234
H        2.06413487      -1.89848080       0.99358504
H        1.58041114      -0.73484873      -1.48761484
H        1.90464464       1.91497782       0.09540383
H        0.84809561       1.55805738      -1.28838018
17
Frame=7 idx=009039 GeodesicLength=0.8845959331907184 rxn_smarts="[C:1]([C@@:2]1([H:11])[C:3]([H:12])([H:13])[C:4]([H:14])=[C:5]([H:15])[C:6]([H:16])([H:17])[O:7]1)([H:8])([H:9])[H:10]>>[C:1]([C@@:2]1([H:11])[C+:3]([H:13])[C:4]([H:14])=[C-:5][C:6]([H:16])([H:17])[O:7]1)([H:8])([H:9])[H:10].[H:12][H:15]"
C       -2.01580043       0.28030108      -0.07317501
C       -0.73763161       0.22222826       0.74588128
C        0.10344599      -0.99554630       0.40062495
C        1.47150209      -1.00173198       0.80409221
C        1.61878319      -0.14934540      -0.27739504
C        1.12846999       1.25800011      -0.26175142
O        0.00210765       1.41006876       0.57248776
H       -2.64744039      -0.58645239       0.13288957
H       -1.78928889       0.30442864      -1.14123778
H       -2.58860368       1.17227133       0.18177414
H       -0.98319378       0.19808418       1.81354054
H        0.43341466      -1.04198901      -1.47697847
H       -0.42375977      -1.94227018       0.26283164
H        2.05628606      -1.89332187       0.98270645
H        1.58693054      -0.73504572      -1.50812393
H        1.90540049       1.92472083       0.12412592
H        0.87937787       1.57559967      -1.28229282
17
Frame=8 idx=009039 GeodesicLength=1.010839778024021 rxn_smarts="[C:1]([C@@:2]1([H:11])[C:3]([H:12])([H:13])[C:4]([H:14])=[C:5]([H:15])[C:6]([H:16])([H:17])[O:7]1)([H:8])([H:9])[H:10]>>[C:1]([C@@:2]1([H:11])[C+:3]([H:13])[C:4]([H:14])=[C-:5][C:6]([H:16])([H:17])[O:7]1)([H:8])([H:9])[H:10].[H:12][H:15]"
C       -2.02275938       0.27757731      -0.07370758
C       -0.73757060       0.21920616       0.73454960
C        0.09361113      -1.00427945       0.38977456
C        1.46450117      -0.99620748       0.78885909
C        1.64943503      -0.13468100      -0.27917723
C        1.14085882       1.26499361      -0.25368429
O       -0.00574945       1.40984306       0.55284605
H       -2.65341101      -0.58847689       0.13816306
H       -1.80389172       0.30209186      -1.14327338
H       -2.59468785       1.16880433       0.18596041
H       -0.97482868       0.20017354       1.80458318
H        0.42021512      -1.06729288      -1.47929316
H       -0.43437206      -1.95674972       0.31386644
H        2.04836387      -1.88820469       0.97102338
H        1.59349081      -0.73435390      -1.52890228
H        1.90541877       1.93407152       0.15376904
H        0.91137604       1.59348463      -1.27535691
17
Frame=9 idx=009039 GeodesicLength=1.1370335890823913 rxn_smarts="[C:1]([C@@:2]1([H:11])[C:3]([H:12])([H:13])[C:4]([H:14])=[C:5]([H:15])[C:6]([H:16])([H:17])[O:7]1)([H:8])([H:9])[H:10]>>[C:1]([C@@:2]1([H:11])[C+:3]([H:13])[C:4]([H:14])=[C-:5][C:6]([H:16])([H:17])[O:7]1)([H:8])([H:9])[H:10].[H:12][H:15]"
C       -2.02985342       0.27470515      -0.07439797
C       -0.73749387       0.21593502       0.72263205
C        0.08317149      -1.01384106       0.37872664
C        1.45724227      -0.99100693       0.77207328
C        1.68095970      -0.11967536      -0.28026005
C        1.15335342       1.27177799      -0.24522622
O       -0.01344255       1.40910293       0.53218074
H       -2.65958670      -0.59045501       0.14368989
H       -1.81894817       0.29923191      -1.14548024
H       -2.60057162       1.16539903       0.18990562
H       -0.96622383       0.20247913       1.79501089
H        0.40648832      -1.09346437      -1.48192268
H       -0.44420659      -1.96897848       0.36757615
H        2.04035522      -1.88312218       0.95855302
H        1.60001096      -0.73271271      -1.54991795
H        1.90462477       1.94295868       0.18436372
H        0.94412060       1.61166625      -1.26750688
17
Frame=10 idx=009039 GeodesicLength=1.263180048006854 rxn_smarts="[C:1]([C@@:2]1([H:11])[C:3]([H:12])([H:13])[C:4]([H:14])=[C:5]([H:15])[C:6]([H:16])([H:17])[O:7]1)([H:8])([H:9])[H:10]>>[C:1]([C@@:2]1([H:11])[C+:3]([H:13])[C:4]([H:14])=[C-:5][C:6]([H:16])([H:17])[O:7]1)([H:8])([H:9])[H:10].[H:12][H:15]"
C       -2.03707846       0.27166581      -0.07523282
C       -0.73739686       0.21240694       0.71012024
C        0.07209149      -1.02429233       0.36762345
C        1.44972697      -0.98614720       0.75364161
C        1.71339902      -0.10433920      -0.28048897
C        1.16595539       1.27830659      -0.23635963
O       -0.02094667       1.40781389       0.51038729
H       -2.66595752      -0.59239043       0.14952977
H       -1.83447275       0.29579231      -1.14784406
H       -2.60623533       1.16205859       0.19359323
H       -0.95736233       0.20507698       1.78480969
H        0.39204605      -1.12059775      -1.48482451
H       -0.45300759      -1.97864795       0.42358541
H        2.03224966      -1.87806473       0.94534225
H        1.60640441      -0.73005373      -1.57113630
H        1.90293291       1.95131970       0.21593459
H        0.97765161       1.63009250      -1.25868123
17
Frame=11 idx=009039 GeodesicLength=1.3892764158578665 rxn_smarts="[C:1]([C@@:2]1([H:11])[C:3]([H:12])([H:13])[C:4]([H:14])=[C:5]([H:15])[C:6]([H:16])([H:17])[O:7]1)([H:8])([H:9])[H:10]>>[C:1]([C@@:2]1([H:11])[C+:3]([H:13])[C:4]([H:14])=[C-:5][C:6]([H:16])([H:17])[O:7]1)([H:8])([H:9])[H:10].[H:12][H:15]"
C       -2.04442476       0.26844093      -0.07619723
C       -0.73727177       0.20862046       0.69700817
C        0.06034121      -1.03567744       0.35663621
C        1.44196353      -0.98163678       0.73344667
C        1.74679296      -0.08868067      -0.27969335
C        1.17866833       1.28453216      -0.22706360
O       -0.02822770       1.40593548       0.48734580
H       -2.67251090      -0.59427599       0.15575635
H       -1.85047519       0.29170070      -1.15034535
H       -2.61164820       1.15879177       0.19699138
H       -0.94821926       0.20805987       1.77396218
H        0.37666653      -1.14880364      -1.48792017
H       -0.46052559      -1.98551789       0.48143252
H        2.02404086      -1.87299557       0.93145240
H        1.61256555      -0.72629342      -1.59251559
H        1.90024818       1.95908709       0.24851108
H        1.01201625       1.64871292      -1.24880747
17
Frame=12 idx=009039 GeodesicLength=1.5153223872174415 rxn_smarts="[C:1]([C@@:2]1([H:11])[C:3]([H:12])([H:13])[C:4]([H:14])=[C:5]([H:15])[C:6]([H:16])([H:17])[O:7]1)([H:8])([H:9])[H:10]>>[C:1]([C@@:2]1([H:11])[C+:3]([H:13])[C:4]([H:14])=[C-:5][C:6]([H:16])([H:17])[O:7]1)([H:8])([H:9])[H:10].[H:12][H:15]"
C       -2.05187858       0.26501509      -0.07727324
C       -0.73710779       0.20457902       0.68329180
C        0.04790013      -1.04802586       0.34595329
C        1.43396358      -0.97747857       0.71134132
C        1.78118123      -0.07270639      -0.27768738
C        1.19149806       1.29041205      -0.21731652
O       -0.03524331       1.40342358       0.46291909
H       -2.67923347      -0.59609212       0.16246126
H       -1.86696358       0.28687052      -1.15296118
H       -2.61676976       1.15561891       0.20005745
H       -0.93876062       0.21153096       1.76245019
H        0.36010737      -1.17821538      -1.49110685
H       -0.46653563      -1.98943257       0.54059786
H        2.01572361      -1.86785280       0.91697076
H        1.61838528      -0.72132525      -1.61401934
H        1.89646342       1.96619363       0.28212689
H        1.04727006       1.66748516      -1.23780539
17
Frame=13 idx=009039 GeodesicLength=1.6413181814935478 rxn_smarts="[C:1]([C@@:2]1([H:11])[C:3]([H:12])([H:13])[C:4]([H:14])=[C:5]([H:15])[C:6]([H:16])([H:17])[O:7]1)([H:8])([H:9])[H:10]>>[C:1]([C@@:2]1([H:11])[C+:3]([H:13])[C:4]([H:14])=[C-:5][C:6]([H:16])([H:17])[O:7]1)([H:8])([H:9])[H:10].[H:12][H:15]"
C       -2.05942244       0.26137731      -0.07844188
C       -0.73689032       0.20028721       0.66896311
C        0.03475646      -1.06135279       0.33575831
C        1.42573668      -0.97367375       0.68713283
C        1.81659856      -0.05642301      -0.27426932
C        1.20445187       1.29590703      -0.20709462
O       -0.04194057       1.40022500       0.43695202
H       -2.68611053      -0.59780514       0.16974957
H       -1.88394691       0.28120646      -1.15566643
H       -2.62154795       1.15257318       0.20274009
H       -0.92893963       0.21559384       1.75024770
H        0.34210781      -1.20898079      -1.49427336
H       -0.47083780      -1.99032597       0.60057203
H        2.00728708      -1.86254290       0.90201651
H        1.62376323      -0.71501228      -1.63562557
H        1.89145610       1.97256859       0.31682078
H        1.08347837       1.68637803      -1.22558177
17
Frame=14 idx=009039 GeodesicLength=1.7672691176379025 rxn_smarts="[C:1]([C@@:2]1([H:11])[C:3]([H:12])([H:13])[C:4]([H:14])=[C:5]([H:15])[C:6]([H:16])([H:17])[O:7]1)([H:8])([H:9])[H:10]>>[C:1]([C@@:2]1([H:11])[C+:3]([H:13])[C:4]([H:14])=[C-:5][C:6]([H:16])([H:17])[O:7]1)([H:8])([H:9])[H:10].[H:12][H:15]"
C       -2.06703725       0.25751789      -0.07968576
C       -0.73659949       0.19574640       0.65400257
C        0.02090825      -1.07566291       0.32621538
C        1.41728706      -0.97022637       0.66056480
C        1.85306672      -0.03984323      -0.26922388
C        1.21754173       1.30098021      -0.19636944
O       -0.04825478       1.39627227       0.40926158
H       -2.69312642      -0.59937032       0.17773935
H       -1.90144246       0.27460194      -1.15843688
H       -2.62591988       1.14969631       0.20497896
H       -0.91869112       0.22034679       1.73731342
H        0.32238243      -1.24126272      -1.49731284
H       -0.47325383      -1.98819607       0.66091555
H        1.99871044      -1.85693028       0.88675136
H        1.62861194      -0.70717530      -1.65734612
H        1.88508873       1.97812380       0.35265490
H        1.12072794       1.70538157      -1.21202296
17
Frame=15 idx=009039 GeodesicLength=1.8931797674898247 rxn_smarts="[C:1]([C@@:2]1([H:11])[C:3]([H:12])([H:13])[C:4]([H:14])=[C:5]([H:15])[C:6]([H:16])([H:17])[O:7]1)([H:8])([H:9])[H:10]>>[C:1]([C@@:2]1([H:11])[C+:3]([H:13])[C:4]([H:14])=[C-:5][C:6]([H:16])([H:17])[O:7]1)([H:8])([H:9])[H:10].[H:12][H:15]"
C       -2.07470122       0.25343261      -0.08098754
C       -0.73620948       0.19094925       0.63837656
C        0.00636407      -1.09095514       0.31745408
C        1.40860926      -0.96714959       0.63130097
C        1.89058298      -0.02299608      -0.26231754
C        1.23077756       1.30558933      -0.18510832
O       -0.05410529       1.39147534       0.37964404
H       -2.70026085      -0.60072914       0.18655490
H       -1.91947562       0.26695390      -1.16124554
H       -2.62980903       1.14704090       0.20671514
H       -0.90793010       0.22587000       1.72358643
H        0.30061635      -1.27523043      -1.50013766
H       -0.47360113      -1.98307933       0.72127405
H        1.98995189      -1.85081926       0.87141610
H        1.63287597      -0.69759292      -1.67923761
H        1.87720094       1.98274493       0.38970160
H        1.15911370       1.72449564      -1.19698966
17
Frame=16 idx=009039 GeodesicLength=2.0190490539256567 rxn_smarts="[C:1]([C@@:2]1([H:11])[C:3]([H:12])([H:13])[C:4]([H:14])=[C:5]([H:15])[C:6]([H:16])([H:17])[O:7]1)([H:8])([H:9])[H:10]>>[C:1]([C@@:2]1([H:11])[C+:3]([H:13])[C:4]([H:14])=[C-:5][C:6]([H:16])([H:17])[O:7]1)([H:8])([H:9])[H:10].[H:12][H:15]"
C       -2.08238417       0.24912397      -0.08232839
C       -0.73568452       0.18587495       0.62203866
C       -0.00884998      -1.10722425       0.30956782
C        1.39968811      -0.96446908       0.59891006
C        1.92910174      -0.00594061      -0.25329733
C        1.24416213       1.30967979      -0.17327552
O       -0.05938831       1.38571488       0.34788424
H       -2.70748083      -0.60180989       0.19632019
H       -1.93807546       0.25817239      -1.16405951
H       -2.63311760       1.14466816       0.20789877
H       -0.89654714       0.23221438       1.70898618
H        0.27644705      -1.31106320      -1.50268182
H       -0.47167453      -1.97502261       0.78135035
H        1.98093500      -1.84391789       0.85638363
H        1.63653781      -0.68599865      -1.70142095
H        1.86760707       1.98627795       0.42803773
H        1.19872362       1.74371971      -1.18031411
