11
Frame=0 idx=001462 GeodesicLength=0.0 rxn_smarts="[C:1]([C@@:2]1([H:10])[O:3][C@:4]1([C:5]#[N:6])[H:11])([H:7])([H:8])[H:9]>>[C:1]([C:2][C@@:4]([O:3][H:10])([C:5]#[N:6])[H:11])([H:7])([H:8])[H:9]"
C       -1.35753661      -0.37190617      -0.14393021
C       -0.47438592       0.80992370      -0.02632628
O        0.69156891       0.65538343       1.33917548
C        0.99376521       0.57750530      -0.05496412
C        1.51554031      -0.73373149      -0.42014763
N        1.92251580      -1.74698846      -0.76996528
H       -2.26588064      -0.25558332       0.44432099
H       -1.65914077      -0.37987573      -1.20008876
H       -0.88358291      -1.33415520       0.06783067
H       -0.12370986       1.40630094       1.18451150
H        1.64084653       1.37312697      -0.42041631
11
Frame=1 idx=001462 GeodesicLength=0.046644048582621424 rxn_smarts="[C:1]([C@@:2]1([H:10])[O:3][C@:4]1([C:5]#[N:6])[H:11])([H:7])([H:8])[H:9]>>[C:1]([C:2][C@@:4]([O:3][H:10])([C:5]#[N:6])[H:11])([H:7])([H:8])[H:9]"
C       -1.35851614      -0.37272571      -0.15304661
C       -0.47158115       0.80315400      -0.01813216
O        0.70038137       0.66292535       1.34201569
C        0.99456534       0.57127709      -0.05093080
C        1.52072366      -0.73951770      -0.40996045
N        1.93786259      -1.75213798      -0.74951116
H       -2.25270251      -0.26609876       0.45947283
H       -1.68523544      -0.35503768      -1.20104662
H       -0.88688384      -1.34169943       0.03043091
H       -0.12439898       1.41963282       1.18862986
H        1.62578511       1.37022800      -0.43792149
11
Frame=2 idx=001462 GeodesicLength=0.09314992935518279 rxn_smarts="[C:1]([C@@:2]1([H:10])[O:3][C@:4]1([C:5]#[N:6])[H:11])([H:7])([H:8])[H:9]>>[C:1]([C:2][C@@:4]([O:3][H:10])([C:5]#[N:6])[H:11])([H:7])([H:8])[H:9]"
C       -1.35944288      -0.37340888      -0.16240788
C       -0.46879457       0.79623589      -0.00973799
O        0.70935607       0.67106304       1.34474502
C        0.99538219       0.56505609      -0.04681615
C        1.52582585      -0.74543453      -0.39918793
N        1.95268901      -1.75738459      -0.72847384
H       -2.23853301      -0.27841788       0.47460096
H       -1.71185502      -0.32931064      -1.20071452
H       -0.89000492      -1.34842459      -0.00880227
H       -0.12515372       1.43350588       1.19227995
H        1.61053101       1.36652023      -0.45548536
11
Frame=3 idx=001462 GeodesicLength=0.13949666967943875 rxn_smarts="[C:1]([C@@:2]1([H:10])[O:3][C@:4]1([C:5]#[N:6])[H:11])([H:7])([H:8])[H:9]>>[C:1]([C:2][C@@:4]([O:3][H:10])([C:5]#[N:6])[H:11])([H:7])([H:8])[H:9]"
C       -1.36030000      -0.37394477      -0.17198208
C       -0.46603285       0.78916922      -0.00110456
O        0.71851262       0.67981784       1.34736809
C        0.99622314       0.55885949      -0.04259709
C        1.53083890      -0.75145668      -0.38781217
N        1.96682841      -1.76271999      -0.70703531
H       -2.22341104      -0.29254782       0.48945341
H       -1.73882828      -0.30290984      -1.19897021
H       -0.89294280      -1.35416188      -0.04970362
H       -0.12601025       1.44791454       1.19546943
H        1.59512214       1.36197990      -0.47308589
11
Frame=4 idx=001462 GeodesicLength=0.1859861584085386 rxn_smarts="[C:1]([C@@:2]1([H:10])[O:3][C@:4]1([C:5]#[N:6])[H:11])([H:7])([H:8])[H:9]>>[C:1]([C:2][C@@:4]([O:3][H:10])([C:5]#[N:6])[H:11])([H:7])([H:8])[H:9]"
C       -1.36110939      -0.37429778      -0.18169414
C       -0.46334118       0.78200062       0.00784199
O        0.72782602       0.68919183       1.34999632
C        0.99711631       0.55271877      -0.03826907
C        1.53587420      -0.75765592      -0.37589588
N        1.98032283      -1.76832124      -0.68557306
H       -2.20752907      -0.30835850       0.50370868
H       -1.76589042      -0.27615475      -1.19575323
H       -0.89574661      -1.35871631      -0.09191508
H       -0.12714341       1.46291601       1.19834701
H        1.57962072       1.35667725      -0.49079354
11
Frame=5 idx=001462 GeodesicLength=0.23186559936934764 rxn_smarts="[C:1]([C@@:2]1([H:10])[O:3][C@:4]1([C:5]#[N:6])[H:11])([H:7])([H:8])[H:9]>>[C:1]([C:2][C@@:4]([O:3][H:10])([C:5]#[N:6])[H:11])([H:7])([H:8])[H:9]"
C       -1.36177211      -0.37450800      -0.19180262
C       -0.46062736       0.77466961       0.01682780
O        0.73717668       0.69927785       1.35235161
C        0.99795238       0.54651448      -0.03377539
C        1.54055793      -0.76401942      -0.36315106
N        1.99294217      -1.77404010      -0.66303959
H       -2.18970546      -0.32655188       0.51820855
H       -1.79400359      -0.24823945      -1.19082405
H       -0.89813525      -1.36217791      -0.13682086
H       -0.12812794       1.47858275       1.20023538
H        1.56374254       1.35049206      -0.50820979
11
Frame=6 idx=001462 GeodesicLength=0.2773897751403065 rxn_smarts="[C:1]([C@@:2]1([H:10])[O:3][C@:4]1([C:5]#[N:6])[H:11])([H:7])([H:8])[H:9]>>[C:1]([C:2][C@@:4]([O:3][H:10])([C:5]#[N:6])[H:11])([H:7])([H:8])[H:9]"
C       -1.36220832      -0.37455557      -0.20181182
C       -0.45789422       0.76723951       0.02644587
O        0.74688753       0.70999739       1.35468419
C        0.99880656       0.54052585      -0.02907971
C        1.54495759      -0.77030177      -0.34999068
N        2.00384952      -1.77977207      -0.64173403
H       -2.17194841      -0.34585374       0.53076568
H       -1.82054653      -0.22143943      -1.18457137
H       -0.90038850      -1.36409138      -0.18126363
H       -0.12933610       1.49464046       1.20211971
H        1.54782088       1.34361074      -0.52556421
11
Frame=7 idx=001462 GeodesicLength=0.32269125581882746 rxn_smarts="[C:1]([C@@:2]1([H:10])[O:3][C@:4]1([C:5]#[N:6])[H:11])([H:7])([H:8])[H:9]>>[C:1]([C:2][C@@:4]([O:3][H:10])([C:5]#[N:6])[H:11])([H:7])([H:8])[H:9]"
C       -1.36259728      -0.37451452      -0.21192842
C       -0.45530936       0.75964421       0.03641035
O        0.75670778       0.72118191       1.35696705
C        0.99963967       0.53457070      -0.02421201
C        1.54920921      -0.77668692      -0.33636409
N        2.01374994      -1.78557831      -0.62090021
H       -2.15339678      -0.36611890       0.54263578
H       -1.84651673      -0.19481138      -1.17736944
H       -0.90236432      -1.36490260      -0.22610044
H       -0.13074037       1.51112918       1.20354567
H        1.53161824       1.33608664      -0.54268425
11
Frame=8 idx=001462 GeodesicLength=0.36786999509532575 rxn_smarts="[C:1]([C@@:2]1([H:10])[O:3][C@:4]1([C:5]#[N:6])[H:11])([H:7])([H:8])[H:9]>>[C:1]([C:2][C@@:4]([O:3][H:10])([C:5]#[N:6])[H:11])([H:7])([H:8])[H:9]"
C       -1.36284681      -0.37424093      -0.22213171
C       -0.45274561       0.75193777       0.04678293
O        0.76675082       0.73304549       1.35912502
C        1.00048760       0.52870882      -0.01919670
C        1.55325699      -0.78317770      -0.32219112
N        2.02258855      -1.79170485      -0.60010388
H       -2.13400645      -0.38819273       0.55346044
H       -1.87231413      -0.16829511      -1.16848953
H       -0.90406962      -1.36406300      -0.27204417
H       -0.13232267       1.52817379       1.20451863
H        1.51522133       1.32780845      -0.55972991
11
Frame=9 idx=001462 GeodesicLength=0.41280682880520014 rxn_smarts="[C:1]([C@@:2]1([H:10])[O:3][C@:4]1([C:5]#[N:6])[H:11])([H:7])([H:8])[H:9]>>[C:1]([C:2][C@@:4]([O:3][H:10])([C:5]#[N:6])[H:11])([H:7])([H:8])[H:9]"
C       -1.36296390      -0.37371718      -0.23243290
C       -0.45019924       0.74408207       0.05756958
O        0.77702113       0.74554644       1.36106120
C        1.00135016       0.52291714      -0.01400828
C        1.55702469      -0.78967833      -0.30742834
N        2.03026531      -1.79800631      -0.57923625
H       -2.11357313      -0.41202198       0.56324950
H       -1.89807687      -0.14194862      -1.15791961
H       -0.90544402      -1.36153732      -0.31915590
H       -0.13405115       1.54569288       1.20491283
H        1.49864700       1.31867120      -0.57661183
11
Frame=10 idx=001462 GeodesicLength=0.4577372578997866 rxn_smarts="[C:1]([C@@:2]1([H:10])[O:3][C@:4]1([C:5]#[N:6])[H:11])([H:7])([H:8])[H:9]>>[C:1]([C:2][C@@:4]([O:3][H:10])([C:5]#[N:6])[H:11])([H:7])([H:8])[H:9]"
C       -1.36292320      -0.37291791      -0.24285623
C       -0.44770308       0.73610552       0.06880096
O        0.78751932       0.75880705       1.36281769
C        1.00220074       0.51720722      -0.00867660
C        1.56052056      -0.79633610      -0.29205823
N        2.03680032      -1.80481070      -0.55803964
H       -2.09186682      -0.43800659       0.57194918
H       -1.92395300      -0.11563882      -1.14536521
H       -0.90640095      -1.35697004      -0.36783490
H       -0.13597613       1.56383208       1.20472660
H        1.48178223       1.30872829      -0.59346362
11
Frame=11 idx=001462 GeodesicLength=0.5025226073228128 rxn_smarts="[C:1]([C@@:2]1([H:10])[O:3][C@:4]1([C:5]#[N:6])[H:11])([H:7])([H:8])[H:9]>>[C:1]([C:2][C@@:4]([O:3][H:10])([C:5]#[N:6])[H:11])([H:7])([H:8])[H:9]"
C       -1.36272118      -0.37182608      -0.25340019
C       -0.44522753       0.72797916       0.08049384
O        0.79823850       0.77281659       1.36425647
C        1.00305672       0.51157163      -0.00318741
C        1.56367982      -0.80305596      -0.27601228
N        2.04202813      -1.81202094      -0.53630556
H       -2.06864180      -0.46624605       0.57953961
H       -1.95013655      -0.08940140      -1.13065714
H       -0.90688577      -1.35021583      -0.41830931
H       -0.13808179       1.58251463       1.20380753
H        1.46469144       1.29788424      -0.61022556
11
Frame=12 idx=001462 GeodesicLength=0.5473583816621962 rxn_smarts="[C:1]([C@@:2]1([H:10])[O:3][C@:4]1([C:5]#[N:6])[H:11])([H:7])([H:8])[H:9]>>[C:1]([C:2][C@@:4]([O:3][H:10])([C:5]#[N:6])[H:11])([H:7])([H:8])[H:9]"
C       -1.36234850      -0.37039918      -0.26410119
C       -0.44278689       0.71971236       0.09266235
O        0.80921476       0.78771197       1.36535818
C        1.00391578       0.50601497       0.00245541
C        1.56648671      -0.80989836      -0.25920687
N        2.04584929      -1.81984769      -0.51369382
H       -2.04351669      -0.49719010       0.58590992
H       -1.97690426      -0.06318493      -1.11338538
H       -0.90683884      -1.34085061      -0.47110077
H       -0.14038683       1.60185583       1.20207315
H        1.44731546       1.28607574      -0.62697098
11
Frame=13 idx=001462 GeodesicLength=0.5924487715050484 rxn_smarts="[C:1]([C@@:2]1([H:10])[O:3][C@:4]1([C:5]#[N:6])[H:11])([H:7])([H:8])[H:9]>>[C:1]([C:2][C@@:4]([O:3][H:10])([C:5]#[N:6])[H:11])([H:7])([H:8])[H:9]"
C       -1.36177626      -0.36857685      -0.27495195
C       -0.44040173       0.71132447       0.10532376
O        0.82042171       0.80352674       1.36611708
C        1.00475461       0.50054156       0.00822553
C        1.56894702      -0.81692282      -0.24164151
N        2.04813771      -1.82851626      -0.48996061
H       -2.01608868      -0.53108990       0.59083359
H       -2.00432435      -0.03709192      -1.09319566
H       -0.90623601      -1.32839243      -0.52643899
H       -0.14298009       1.62190076       1.19946878
H        1.42954607       1.27329666      -0.64378001
11
Frame=14 idx=001462 GeodesicLength=0.6376171513153708 rxn_smarts="[C:1]([C@@:2]1([H:10])[O:3][C@:4]1([C:5]#[N:6])[H:11])([H:7])([H:8])[H:9]>>[C:1]([C:2][C@@:4]([O:3][H:10])([C:5]#[N:6])[H:11])([H:7])([H:8])[H:9]"
C       -1.36103495      -0.36639700      -0.28570161
C       -0.43809522       0.70279480       0.11871308
O        0.83195769       0.82006463       1.36652770
C        1.00564498       0.49521541       0.01416333
C        1.57106895      -0.82398535      -0.22349059
N        2.04874025      -1.83770958      -0.46626114
H       -1.98749700      -0.56683490       0.59372441
H       -2.03133522      -0.01207126      -1.07097003
H       -0.90504460      -1.31312195      -0.58242180
H       -0.14588699       1.64237379       1.19624798
H        1.41148211       1.25967140      -0.66053133
11
Frame=15 idx=001462 GeodesicLength=0.6827786843678654 rxn_smarts="[C:1]([C@@:2]1([H:10])[O:3][C@:4]1([C:5]#[N:6])[H:11])([H:7])([H:8])[H:9]>>[C:1]([C:2][C@@:4]([O:3][H:10])([C:5]#[N:6])[H:11])([H:7])([H:8])[H:9]"
C       -1.35984303      -0.36383735      -0.29663313
C       -0.43566497       0.69412667       0.13252855
O        0.84369121       0.83761214       1.36631944
C        1.00645383       0.49004628       0.02029854
C        1.57241227      -0.83100077      -0.20459886
N        2.04663056      -1.84774968      -0.44098510
H       -1.95551667      -0.60591467       0.59433616
H       -2.05906793       0.01195125      -1.04497165
H       -0.90323545      -1.29376967      -0.64118790
H       -0.14884883       1.66350345       1.19179841
H        1.39298902       1.24503235      -0.67690446
11
Frame=16 idx=001462 GeodesicLength=0.7283006470995513 rxn_smarts="[C:1]([C@@:2]1([H:10])[O:3][C@:4]1([C:5]#[N:6])[H:11])([H:7])([H:8])[H:9]>>[C:1]([C:2][C@@:4]([O:3][H:10])([C:5]#[N:6])[H:11])([H:7])([H:8])[H:9]"
C       -1.35841697      -0.36086014      -0.30737931
C       -0.43330751       0.68540609       0.14698138
O        0.85565572       0.85574970       1.36574617
C        1.00732576       0.48507695       0.02655394
C        1.57343057      -0.83803332      -0.18538358
N        2.04245729      -1.85858012      -0.41563203
H       -1.92196650      -0.64664302       0.59234830
H       -2.08632115       0.03414343      -1.01670837
H       -0.90083419      -1.27099304      -0.70013694
H       -0.15222539       1.68501978       1.18664965
H        1.37420238       1.22971370      -0.69303922
