16
Frame=0 idx=003544 GeodesicLength=0.0 rxn_smarts="[C:1]([C:2]([C@@:3]1([H:12])[C:4]([H:13])([H:14])[C@:5]1([O:6][H:16])[H:15])([H:10])[H:11])([H:7])([H:8])[H:9]>>[C:1]([H:7])([H:8])([H:9])[H:16].[C:2](=[C:3]([C:4]([C:5](=[O:6])[H:15])([H:13])[H:14])[H:12])([H:10])[H:11]"
C       -1.63670481       1.13414282      -0.19506726
C       -0.76044434      -0.84536642      -0.23841692
C        0.41834943      -1.04235614       0.47727124
C        1.77720415      -0.90743916      -0.15601578
C        1.42878997       0.41310274       0.38245620
O        0.90050635       1.35106324      -0.32535012
H       -1.54485390       2.15904164      -0.57759505
H       -1.89558163       1.18555708       0.86061661
H       -2.44055163       0.66936860      -0.75782909
H       -1.68058669      -1.20260545       0.20142350
H       -0.73423609      -0.86302468      -1.32037478
H        0.35682253      -1.38750117       1.49984948
H        2.57013852      -1.45042013       0.34520768
H        1.79873622      -0.98393324      -1.23830226
H        1.74301578       0.64071967       1.40376643
H       -0.30060393       1.12965057      -0.36163985
16
Frame=1 idx=003544 GeodesicLength=0.08934951364346028 rxn_smarts="[C:1]([C:2]([C@@:3]1([H:12])[C:4]([H:13])([H:14])[C@:5]1([O:6][H:16])[H:15])([H:10])[H:11])([H:7])([H:8])[H:9]>>[C:1]([H:7])([H:8])([H:9])[H:16].[C:2](=[C:3]([C:4]([C:5](=[O:6])[H:15])([H:13])[H:14])[H:12])([H:10])[H:11]"
C       -1.63673044       1.13507479      -0.18942967
C       -0.76413293      -0.85519190      -0.24343066
C        0.41351872      -1.03828427       0.48051198
C        1.77483847      -0.91298918      -0.14828688
C        1.43552383       0.41861776       0.37291358
O        0.92243755       1.35458728      -0.34945230
H       -1.55022432       2.18124800      -0.51041864
H       -1.90133483       1.14508389       0.86659469
H       -2.44711261       0.70119981      -0.76808452
H       -1.68032537      -1.23325897       0.18814442
H       -0.72918259      -0.88503752      -1.32526155
H        0.34612885      -1.36536112       1.50900143
H        2.56564826      -1.45100109       0.36197696
H        1.79960259      -0.99795263      -1.22989984
H        1.74312778       0.65695860       1.39418485
H       -0.29178295       1.14630656      -0.40906386
16
Frame=2 idx=003544 GeodesicLength=0.1786247865369215 rxn_smarts="[C:1]([C:2]([C@@:3]1([H:12])[C:4]([H:13])([H:14])[C@:5]1([O:6][H:16])[H:15])([H:10])[H:11])([H:7])([H:8])[H:9]>>[C:1]([H:7])([H:8])([H:9])[H:16].[C:2](=[C:3]([C:4]([C:5](=[O:6])[H:15])([H:13])[H:14])[H:12])([H:10])[H:11]"
C       -1.63651876       1.13601146      -0.18375142
C       -0.76812763      -0.86518285      -0.24797518
C        0.40860340      -1.03409141       0.48365339
C        1.77215843      -0.91803816      -0.14092131
C        1.44218696       0.42423745       0.36321471
O        0.94387992       1.35784594      -0.37331151
H       -1.55174560       2.19926084      -0.44298034
H       -1.90993613       1.10513111       0.87033459
H       -2.45292467       0.73502722      -0.77849432
H       -1.67945207      -1.26442870       0.17579811
H       -0.72436212      -0.90745793      -1.32948890
H        0.33562987      -1.34304794       1.51771534
H        2.56100902      -1.45104738       0.37796200
H        1.79988691      -1.01131712      -1.22181397
H        1.74339229       0.67321850       1.38425454
H       -0.28367982       1.16387897      -0.45419574
16
Frame=3 idx=003544 GeodesicLength=0.267735799199215 rxn_smarts="[C:1]([C:2]([C@@:3]1([H:12])[C:4]([H:13])([H:14])[C@:5]1([O:6][H:16])[H:15])([H:10])[H:11])([H:7])([H:8])[H:9]>>[C:1]([H:7])([H:8])([H:9])[H:16].[C:2](=[C:3]([C:4]([C:5](=[O:6])[H:15])([H:13])[H:14])[H:12])([H:10])[H:11]"
C       -1.63620820       1.13689761      -0.17806276
C       -0.77241522      -0.87534780      -0.25199975
C        0.40363165      -1.02977303       0.48672275
C        1.76918628      -0.92264072      -0.13391793
C        1.44883376       0.42993349       0.35334321
O        0.96492911       1.36084827      -0.39696374
H       -1.54972336       2.21325880      -0.37534640
H       -1.92156512       1.06568484       0.87171192
H       -2.45787765       0.77090052      -0.78913170
H       -1.67788629      -1.29619216       0.16444596
H       -0.71977162      -0.93029658      -1.33299144
H        0.32537267      -1.32055045       1.52602008
H        2.55623659      -1.45064035       0.39316477
H        1.79959485      -1.02409965      -1.21404133
H        1.74388420       0.68947045       1.37395260
H       -0.27622166       1.18254676      -0.49690625
16
Frame=4 idx=003544 GeodesicLength=0.35670999399756187 rxn_smarts="[C:1]([C:2]([C@@:3]1([H:12])[C:4]([H:13])([H:14])[C@:5]1([O:6][H:16])[H:15])([H:10])[H:11])([H:7])([H:8])[H:9]>>[C:1]([H:7])([H:8])([H:9])[H:16].[C:2](=[C:3]([C:4]([C:5](=[O:6])[H:15])([H:13])[H:14])[H:12])([H:10])[H:11]"
C       -1.63590994       1.13767081      -0.17239887
C       -0.77698698      -0.88570835      -0.25548645
C        0.39860834      -1.02531659       0.48974078
C        1.76594259      -0.92684173      -0.12725238
C        1.45549417       0.43568783       0.34329138
O        0.98570387       1.36360791      -0.42046783
H       -1.54448299       2.22336149      -0.30746090
H       -1.93623555       1.02671983       0.87061201
H       -2.46190045       0.80890393      -0.79994885
H       -1.67555078      -1.32862501       0.15410953
H       -0.71539669      -0.95357130      -1.33573603
H        0.31535084      -1.29783992       1.53394145
H        2.55133695      -1.44984029       0.40763146
H        1.79875236      -1.03637677      -1.20655788
H        1.74462449       0.70571144       1.36327642
H       -0.26935023       1.20245672      -0.53729383
16
Frame=5 idx=003544 GeodesicLength=0.44547732163815673 rxn_smarts="[C:1]([C:2]([C@@:3]1([H:12])[C:4]([H:13])([H:14])[C@:5]1([O:6][H:16])[H:15])([H:10])[H:11])([H:7])([H:8])[H:9]>>[C:1]([H:7])([H:8])([H:9])[H:16].[C:2](=[C:3]([C:4]([C:5](=[O:6])[H:15])([H:13])[H:14])[H:12])([H:10])[H:11]"
C       -1.63565120       1.13842931      -0.16688406
C       -0.78184498      -0.89628947      -0.25833648
C        0.39356939      -1.02074216       0.49275221
C        1.76244222      -0.93067689      -0.12092219
C        1.46221888       0.44144899       0.33309640
O        1.00628198       1.36616001      -0.44375136
H       -1.53701591       2.22946118      -0.23928063
H       -1.95375963       0.98828319       0.86662941
H       -2.46470539       0.84929768      -0.81093296
H       -1.67240592      -1.36171513       0.14495237
H       -0.71130502      -0.97729827      -1.33761643
H        0.30563805      -1.27500052       1.54151970
H        2.54632937      -1.44872833       0.42133685
H        1.79732265      -1.04812885      -1.19936526
H        1.74570625       0.72183354       1.35226845
H       -0.26282074       1.22366571      -0.57546603
16
Frame=6 idx=003544 GeodesicLength=0.5341332105422092 rxn_smarts="[C:1]([C:2]([C@@:3]1([H:12])[C:4]([H:13])([H:14])[C@:5]1([O:6][H:16])[H:15])([H:10])[H:11])([H:7])([H:8])[H:9]>>[C:1]([H:7])([H:8])([H:9])[H:16].[C:2](=[C:3]([C:4]([C:5](=[O:6])[H:15])([H:13])[H:14])[H:12])([H:10])[H:11]"
C       -1.63555168       1.13901709      -0.16152411
C       -0.78699791      -0.90711635      -0.26059953
C        0.38847818      -1.01602226       0.49574572
C        1.75868755      -0.93415776      -0.11489925
C        1.46898813       0.44723695       0.32276620
O        1.02675947       1.36852619      -0.46687964
H       -1.52712275       2.23147661      -0.17096395
H       -1.97409352       0.95043858       0.85982066
H       -2.46640508       0.89206875      -0.82176742
H       -1.66837329      -1.39555121       0.13689973
H       -0.70745138      -1.00148046      -1.33867282
H        0.29616184      -1.25197945       1.54875415
H        2.54119970      -1.44731798       0.43434869
H        1.79535738      -1.05941141      -1.19244438
H        1.74706598       0.73788860       1.34095554
H       -0.25670262       1.24638412      -0.61153960
16
Frame=7 idx=003544 GeodesicLength=0.6226782964683186 rxn_smarts="[C:1]([C:2]([C@@:3]1([H:12])[C:4]([H:13])([H:14])[C@:5]1([O:6][H:16])[H:15])([H:10])[H:11])([H:7])([H:8])[H:9]>>[C:1]([H:7])([H:8])([H:9])[H:16].[C:2](=[C:3]([C:4]([C:5](=[O:6])[H:15])([H:13])[H:14])[H:12])([H:10])[H:11]"
C       -1.63570193       1.13937594      -0.15643801
C       -0.79245502      -0.91824351      -0.26226728
C        0.38332473      -1.01115490       0.49872607
C        1.75468327      -0.93729400      -0.10916259
C        1.47578247       0.45303870       0.31231459
O        1.04716010       1.37071135      -0.48985635
H       -1.51508904       2.22933888      -0.10255938
H       -1.99699088       0.91329848       0.85003521
H       -2.46696081       0.93729416      -0.83223352
H       -1.66339222      -1.43017796       0.12998728
H       -0.70383614      -1.02614911      -1.33888593
H        0.28690970      -1.22879002       1.55564630
H        2.53594743      -1.44562901       0.44670584
H        1.79287203      -1.07023326      -1.18576956
H        1.74867122       0.75385484       1.32935279
H       -0.25092493       1.27075941      -0.64559546
16
Frame=8 idx=003544 GeodesicLength=0.7112190390800902 rxn_smarts="[C:1]([C:2]([C@@:3]1([H:12])[C:4]([H:13])([H:14])[C@:5]1([O:6][H:16])[H:15])([H:10])[H:11])([H:7])([H:8])[H:9]>>[C:1]([H:7])([H:8])([H:9])[H:16].[C:2](=[C:3]([C:4]([C:5](=[O:6])[H:15])([H:13])[H:14])[H:12])([H:10])[H:11]"
C       -1.63614836       1.13946862      -0.15175368
C       -0.79822774      -0.92969388      -0.26334772
C        0.37807762      -1.00612119       0.50169355
C        1.75042518      -0.94009673      -0.10368643
C        1.48260014       0.45885303       0.30176322
O        1.06756564       1.37273817      -0.51268722
H       -1.50116073       2.22276058      -0.03414553
H       -2.02217308       0.87697899       0.83712352
H       -2.46643038       0.98501818      -0.84200397
H       -1.65742024      -1.46557006       0.12422926
H       -0.70044927      -1.05130579      -1.33825096
H        0.27782971      -1.20542403       1.56220306
H        2.53055516      -1.44368859       0.45845642
H        1.78988625      -1.08060769      -1.17932145
H        1.75049849       0.76973141       1.31750156
H       -0.24542839       1.29695896      -0.67777364
16
Frame=9 idx=003544 GeodesicLength=0.7994103683812659 rxn_smarts="[C:1]([C:2]([C@@:3]1([H:12])[C:4]([H:13])([H:14])[C@:5]1([O:6][H:16])[H:15])([H:10])[H:11])([H:7])([H:8])[H:9]>>[C:1]([H:7])([H:8])([H:9])[H:16].[C:2](=[C:3]([C:4]([C:5](=[O:6])[H:15])([H:13])[H:14])[H:12])([H:10])[H:11]"
C       -1.63686648       1.13939233      -0.14764212
C       -0.80429093      -0.94152406      -0.26371628
C        0.37279882      -1.00096510       0.50467910
C        1.74590525      -0.94258147      -0.09850275
C        1.48944341       0.46463030       0.29114880
O        1.08786813       1.37462280      -0.53523562
H       -1.48618532       2.21161163       0.03380096
H       -2.04931792       0.84156129       0.82078723
H       -2.46469690       1.03544704      -0.85094472
H       -1.65042183      -1.50164629       0.11981118
H       -0.69735108      -1.07702860      -1.33662986
H        0.26905324      -1.18202443       1.56843006
H        2.52503578      -1.44156111       0.46949823
H        1.78631319      -1.09046146      -1.17312759
H        1.75261830       0.78538530       1.30543234
H       -0.23990565       1.32514183      -0.70778896
16
Frame=10 idx=003544 GeodesicLength=0.8876832432308823 rxn_smarts="[C:1]([C:2]([C@@:3]1([H:12])[C:4]([H:13])([H:14])[C@:5]1([O:6][H:16])[H:15])([H:10])[H:11])([H:7])([H:8])[H:9]>>[C:1]([H:7])([H:8])([H:9])[H:16].[C:2](=[C:3]([C:4]([C:5](=[O:6])[H:15])([H:13])[H:14])[H:12])([H:10])[H:11]"
C       -1.63799975       1.13897153      -0.14430406
C       -0.81069602      -0.95377087      -0.26349599
C        0.36737703      -0.99561588       0.50766129
C        1.74111456      -0.94475184      -0.09354572
C        1.49629567       0.47041738       0.28046582
O        1.10823830       1.37637417      -0.55763807
H       -1.46986816       2.19543900       0.10128424
H       -2.07804721       0.80720978       0.80103230
H       -2.46197548       1.08850008      -0.85845084
H       -1.64237277      -1.53843484       0.11661256
H       -0.69448501      -1.10330462      -1.33415597
H        0.26037389      -1.15844273       1.57435228
H        2.51934132      -1.43922926       0.48000297
H        1.78224874      -1.09988972      -1.16713851
H        1.75493851       0.80093925       1.29316979
H       -0.23448362       1.35558855      -0.73585209
16
Frame=11 idx=003544 GeodesicLength=0.9760426141437591 rxn_smarts="[C:1]([C:2]([C@@:3]1([H:12])[C:4]([H:13])([H:14])[C@:5]1([O:6][H:16])[H:15])([H:10])[H:11])([H:7])([H:8])[H:9]>>[C:1]([H:7])([H:8])([H:9])[H:16].[C:2](=[C:3]([C:4]([C:5](=[O:6])[H:15])([H:13])[H:14])[H:12])([H:10])[H:11]"
C       -1.63957944       1.13821064      -0.14196090
C       -0.81743632      -0.96647144      -0.26268411
C        0.36179056      -0.99004884       0.51063762
C        1.73603580      -0.94661862      -0.08879380
C        1.50314811       0.47620840       0.26970621
O        1.12868047       1.37798899      -0.57990976
H       -1.45246548       2.17390460       0.16797561
H       -2.10804138       0.77401011       0.77781777
H       -2.45836597       1.14419715      -0.86415840
H       -1.63324721      -1.57585899       0.11466580
H       -0.69183254      -1.13017053      -1.33080592
H        0.25175845      -1.13464923       1.57996071
H        2.51343205      -1.43672276       0.49001131
H        1.77768588      -1.10891151      -1.16132603
H        1.75744823       0.81638395       1.28070230
H       -0.22901120       1.38854809      -0.76183841
16
Frame=12 idx=003544 GeodesicLength=1.0645440216258044 rxn_smarts="[C:1]([C:2]([C@@:3]1([H:12])[C:4]([H:13])([H:14])[C@:5]1([O:6][H:16])[H:15])([H:10])[H:11])([H:7])([H:8])[H:9]>>[C:1]([H:7])([H:8])([H:9])[H:16].[C:2](=[C:3]([C:4]([C:5](=[O:6])[H:15])([H:13])[H:14])[H:12])([H:10])[H:11]"
C       -1.64159051       1.13710675      -0.14081160
C       -0.82453078      -0.97964897      -0.26123488
C        0.35601166      -0.98423324       0.51361440
C        1.73064919      -0.94819432      -0.08425305
C        1.51001972       0.48199512       0.25887007
O        1.14922326       1.37946891      -0.60204035
H       -1.43429517       2.14668517       0.23354326
H       -2.13902766       0.74201422       0.75095392
H       -2.45387609       1.20247710      -0.86775376
H       -1.62305993      -1.61379832       0.11409056
H       -0.68942206      -1.15765905      -1.32652063
H        0.24318907      -1.11061965       1.58527100
H        2.50728616      -1.43407624       0.49951392
H        1.77259886      -1.11753415      -1.15570200
H        1.76019517       0.83170142       1.26803478
H       -0.22337090       1.42431526      -0.78557566
16
Frame=13 idx=003544 GeodesicLength=1.1529838702064688 rxn_smarts="[C:1]([C:2]([C@@:3]1([H:12])[C:4]([H:13])([H:14])[C@:5]1([O:6][H:16])[H:15])([H:10])[H:11])([H:7])([H:8])[H:9]>>[C:1]([H:7])([H:8])([H:9])[H:16].[C:2](=[C:3]([C:4]([C:5](=[O:6])[H:15])([H:13])[H:14])[H:12])([H:10])[H:11]"
C       -1.64408325       1.13568542      -0.14110767
C       -0.83192008      -0.99338692      -0.25901450
C        0.35011515      -0.97819466       0.51662450
C        1.72495108      -0.94951097      -0.07995312
C        1.51689807       0.48773831       0.24792626
O        1.16970186       1.38079351      -0.62400171
H       -1.41592735       2.11363735       0.29738523
H       -2.17087343       0.71117712       0.72011055
H       -2.44845786       1.26363787      -0.86891105
H       -1.61176644      -1.65213540       0.11508729
H       -0.68727002      -1.18592619      -1.32114472
H        0.23481116      -1.08641087       1.59029342
H        2.50092386      -1.43134479       0.50843258
H        1.76691094      -1.12576461      -1.15028566
H        1.76323540       0.84682653       1.25511273
H       -0.21724909       1.46317833      -0.80655412
16
Frame=14 idx=003544 GeodesicLength=1.2418755256361058 rxn_smarts="[C:1]([C:2]([C@@:3]1([H:12])[C:4]([H:13])([H:14])[C@:5]1([O:6][H:16])[H:15])([H:10])[H:11])([H:7])([H:8])[H:9]>>[C:1]([H:7])([H:8])([H:9])[H:16].[C:2](=[C:3]([C:4]([C:5](=[O:6])[H:15])([H:13])[H:14])[H:12])([H:10])[H:11]"
C       -1.64707308       1.13390417      -0.14315506
C       -0.83969003      -1.00768418      -0.25605606
C        0.34398170      -0.97181773       0.51966837
C        1.71890528      -0.95055989      -0.07586544
C        1.52383363       0.49348327       0.23683088
O        1.19028524       1.38196256      -0.64592781
H       -1.39728329       2.07405656       0.35940031
H       -2.20334852       0.68159907       0.68511394
H       -2.44209355       1.32743107      -0.86710799
H       -1.59943670      -1.69078256       0.11771755
H       -0.68541548      -1.21497137      -1.31471112
H        0.22645450      -1.06182437       1.59508054
H        2.49427842      -1.42851508       0.51686626
H        1.76063211      -1.13367517      -1.14506448
H        1.76663362       0.86186299       1.24190665
H       -0.21066385       1.50553067      -0.82469654
16
Frame=15 idx=003544 GeodesicLength=1.3313748436483335 rxn_smarts="[C:1]([C:2]([C@@:3]1([H:12])[C:4]([H:13])([H:14])[C@:5]1([O:6][H:16])[H:15])([H:10])[H:11])([H:7])([H:8])[H:9]>>[C:1]([H:7])([H:8])([H:9])[H:16].[C:2](=[C:3]([C:4]([C:5](=[O:6])[H:15])([H:13])[H:14])[H:12])([H:10])[H:11]"
C       -1.65057896       1.13178660      -0.14723135
C       -0.84782921      -1.02256466      -0.25224474
C        0.33761688      -0.96504542       0.52276849
C        1.71248398      -0.95135235      -0.07201310
C        1.53084239       0.49921856       0.22552035
O        1.21091503       1.38295396      -0.66786544
H       -1.37863683       2.02755909       0.41916215
H       -2.23645830       0.65322956       0.64564484
H       -2.43467896       1.39383470      -0.86199997
H       -1.58608603      -1.72958247       0.12219344
H       -0.68388900      -1.24489034      -1.30707625
H        0.21817322      -1.03678057       1.59964722
H        2.48732749      -1.42561717       0.52476755
H        1.75369062      -1.14129251      -1.14004916
H        1.77047887       0.87680018       1.22832765
H       -0.20337119       1.55174286      -0.83955166
16
Frame=16 idx=003544 GeodesicLength=1.4217828039206117 rxn_smarts="[C:1]([C:2]([C@@:3]1([H:12])[C:4]([H:13])([H:14])[C@:5]1([O:6][H:16])[H:15])([H:10])[H:11])([H:7])([H:8])[H:9]>>[C:1]([H:7])([H:8])([H:9])[H:16].[C:2](=[C:3]([C:4]([C:5](=[O:6])[H:15])([H:13])[H:14])[H:12])([H:10])[H:11]"
C       -1.65462201       1.12935530      -0.15374083
C       -0.85635826      -1.03808778      -0.24737702
C        0.33103953      -0.95781399       0.52599392
C        1.70564767      -0.95188438      -0.06845583
C        1.53797437       0.50496491       0.21390751
O        1.23149900       1.38378188      -0.68987983
H       -1.36039245       1.97344117       0.47619795
H       -2.27030017       0.62603847       0.60092930
H       -2.42587970       1.46303174      -0.85312324
H       -1.57173555      -1.76841636       0.12889694
H       -0.68281329      -1.27584961      -1.29802447
H        0.21009022      -1.01119267       1.60408486
H        2.48006685      -1.42266289       0.53202250
H        1.74593988      -1.14863335      -1.13530885
H        1.77497958       0.89166377       1.21426400
H       -0.19513568       1.60226378      -0.85038691
