16
Frame=0 idx=011333 GeodesicLength=0.0 rxn_smarts="[C:1]([c:2]1[c:3]([C:4]([H:11])([H:12])[H:13])[c:5]([H:14])[c:6]([H:15])[n:7]1[H:16])([H:8])([H:9])[H:10]>>[C:1](/[C:2]([C:3]([C:4]([H:11])([H:12])[H:13])=[C:5]=[C:6]([H:14])[H:15])=[N:7]\[H:16])([H:8])([H:9])[H:10]"
C       -1.27664863       1.42806518      -0.09735894
C       -0.06178952       0.56821342      -0.01264152
C        0.05537372      -0.78633967       0.17777377
C       -1.08644478      -1.74190480       0.36264828
C        1.44604999      -1.17169333       0.24152721
C        2.10387540       0.06599903      -0.07108367
N        1.18292015       1.10404228      -0.15555698
H       -2.17649237       0.81703358      -0.06041018
H       -1.29427288       2.00178296      -1.02694583
H       -1.31565692       2.13476602       0.73479868
H       -0.71532989      -2.76178762       0.27274871
H       -1.87228226      -1.60034714      -0.38424314
H       -1.54927356      -1.64576748       1.34879116
H        2.02706235      -0.75929211      -0.97453368
H        3.15642133       0.28840059       0.04379227
H        1.37648784       2.05882905      -0.39930612
16
Frame=1 idx=011333 GeodesicLength=0.11473877818888692 rxn_smarts="[C:1]([c:2]1[c:3]([C:4]([H:11])([H:12])[H:13])[c:5]([H:14])[c:6]([H:15])[n:7]1[H:16])([H:8])([H:9])[H:10]>>[C:1](/[C:2]([C:3]([C:4]([H:11])([H:12])[H:13])=[C:5]=[C:6]([H:14])[H:15])=[N:7]\[H:16])([H:8])([H:9])[H:10]"
C       -1.28396045       1.42835730      -0.10186585
C       -0.06428993       0.57398346      -0.03251724
C        0.05536678      -0.78303491       0.16604079
C       -1.08393778      -1.73706312       0.37125835
C        1.44171656      -1.16521309       0.23301256
C        2.11899657       0.05432289      -0.07801230
N        1.17752492       1.11169062      -0.17104106
H       -2.18213618       0.81364777      -0.10394487
H       -1.29240683       2.03747465      -1.00873525
H       -1.33996719       2.10187517       0.75646462
H       -0.71878862      -2.75835142       0.27223510
H       -1.88305015      -1.59204970      -0.36057523
H       -1.52844736      -1.64077384       1.36572727
H        2.05458928      -0.79149643      -0.98035140
H        3.16837868       0.27290674       0.06714549
H        1.36041169       2.07372390      -0.39484098
16
Frame=2 idx=011333 GeodesicLength=0.22955580316883112 rxn_smarts="[C:1]([c:2]1[c:3]([C:4]([H:11])([H:12])[H:13])[c:5]([H:14])[c:6]([H:15])[n:7]1[H:16])([H:8])([H:9])[H:10]>>[C:1](/[C:2]([C:3]([C:4]([H:11])([H:12])[H:13])=[C:5]=[C:6]([H:14])[H:15])=[N:7]\[H:16])([H:8])([H:9])[H:10]"
C       -1.29145206       1.42842535      -0.10636889
C       -0.06674931       0.58011257      -0.05194803
C        0.05546284      -0.77944090       0.15411227
C       -1.08121331      -1.73165275       0.37972316
C        1.43749693      -1.15852460       0.22365968
C        2.13451759       0.04232211      -0.08534249
N        1.17197068       1.11996754      -0.18679085
H       -2.18701536       0.81100291      -0.14733022
H       -1.29141081       2.07197889      -0.98911581
H       -1.36472928       2.06775195       0.77652901
H       -0.72245256      -2.75440514       0.27164912
H       -1.89338693      -1.58293849      -0.33667511
H       -1.50712149      -1.63519733       1.38224531
H        2.08247944      -0.82526389      -0.98525734
H        3.17983899       0.25687086       0.09047800
H        1.34376464       2.08899094      -0.38956784
16
Frame=3 idx=011333 GeodesicLength=0.3444266156640652 rxn_smarts="[C:1]([c:2]1[c:3]([C:4]([H:11])([H:12])[H:13])[c:5]([H:14])[c:6]([H:15])[n:7]1[H:16])([H:8])([H:9])[H:10]>>[C:1](/[C:2]([C:3]([C:4]([H:11])([H:12])[H:13])=[C:5]=[C:6]([H:14])[H:15])=[N:7]\[H:16])([H:8])([H:9])[H:10]"
C       -1.29914384       1.42830142      -0.11087893
C       -0.06916088       0.58668495      -0.07059374
C        0.05567823      -0.77551405       0.14212556
C       -1.07823872      -1.72568728       0.38801435
C        1.43339921      -1.15159766       0.21343309
C        2.15045040       0.02996467      -0.09312899
N        1.16624830       1.12893865      -0.20255975
H       -2.19110488       0.80913310      -0.19036366
H       -1.29128550       2.10502791      -0.96835930
H       -1.39000651       2.03268348       0.79476519
H       -0.72628795      -2.74993645       0.27081355
H       -1.90324970      -1.57292256      -0.31254289
H       -1.48525396      -1.62923361       1.39833295
H        2.11061030      -0.86064245      -0.98921449
H        3.19080223       0.24023685       0.11359915
H        1.32654329       2.10456305      -0.38344209
16
Frame=4 idx=011333 GeodesicLength=0.45933114201868047 rxn_smarts="[C:1]([c:2]1[c:3]([C:4]([H:11])([H:12])[H:13])[c:5]([H:14])[c:6]([H:15])[n:7]1[H:16])([H:8])([H:9])[H:10]>>[C:1](/[C:2]([C:3]([C:4]([H:11])([H:12])[H:13])=[C:5]=[C:6]([H:14])[H:15])=[N:7]\[H:16])([H:8])([H:9])[H:10]"
C       -1.30705137       1.42805122      -0.11534138
C       -0.07152032       0.59378604      -0.08812497
C        0.05602821      -0.77119975       0.13027459
C       -1.07498547      -1.71920503       0.39606534
C        1.42943795      -1.14438612       0.20239111
C        2.16680504       0.01722242      -0.10136869
N        1.16034226       1.13867472      -0.21808550
H       -2.19440850       0.80804261      -0.23277532
H       -1.29206001       2.13640569      -0.94672768
H       -1.41580928       1.99701500       0.81109578
H       -0.73023660      -2.74494011       0.26949363
H       -1.91256181      -1.56193412      -0.28826614
H       -1.46286977      -1.62314335       1.41391298
H        2.13886765      -0.89771780      -0.99209595
H        3.20127842       0.22296824       0.13635430
H        1.30874360       2.12036034      -0.37680209
16
Frame=5 idx=011333 GeodesicLength=0.5742711728981839 rxn_smarts="[C:1]([c:2]1[c:3]([C:4]([H:11])([H:12])[H:13])[c:5]([H:14])[c:6]([H:15])[n:7]1[H:16])([H:8])([H:9])[H:10]>>[C:1](/[C:2]([C:3]([C:4]([H:11])([H:12])[H:13])=[C:5]=[C:6]([H:14])[H:15])=[N:7]\[H:16])([H:8])([H:9])[H:10]"
C       -1.31519327       1.42773361      -0.11973623
C       -0.07384243       0.60147641      -0.10433249
C        0.05651702      -0.76645935       0.11867468
C       -1.07142456      -1.71226098       0.40383778
C        1.42562347      -1.13686012       0.19050952
C        2.18358003       0.00405621      -0.11005156
N        1.15423604       1.14925919      -0.23307878
H       -2.19694043       0.80768638      -0.27439617
H       -1.29374242       2.16606806      -0.92440265
H       -1.44216519       1.96105794       0.82544827
H       -0.73424307      -2.73941478       0.26750391
H       -1.92128516      -1.54996856      -0.26385009
H       -1.43993924      -1.61716683       1.42895495
H        2.16716661      -0.93659231      -0.99376637
H        3.21127236       0.20501625       0.15863602
H        1.29038025       2.13636888      -0.36995077
16
Frame=6 idx=011333 GeodesicLength=0.6892456338340548 rxn_smarts="[C:1]([c:2]1[c:3]([C:4]([H:11])([H:12])[H:13])[c:5]([H:14])[c:6]([H:15])[n:7]1[H:16])([H:8])([H:9])[H:10]>>[C:1](/[C:2]([C:3]([C:4]([H:11])([H:12])[H:13])=[C:5]=[C:6]([H:14])[H:15])=[N:7]\[H:16])([H:8])([H:9])[H:10]"
C       -1.32358579       1.42740069      -0.12403325
C       -0.07614314       0.60979523      -0.11914664
C        0.05715356      -0.76125712       0.10737359
C       -1.06752807      -1.70489427       0.41130591
C        1.42196811      -1.12900344       0.17771743
C        2.20079005      -0.00956843      -0.11919839
N        1.14790879       1.16075778      -0.24734730
H       -2.19875651       0.80802249      -0.31514057
H       -1.29638190       2.19405325      -0.90151997
H       -1.46906727       1.92500076       0.83786505
H       -0.73827038      -2.73336023       0.26474468
H       -1.92938371      -1.53704938      -0.23930132
H       -1.41642460      -1.61145065       1.44342908
H        2.19547493      -0.97744859      -0.99401819
H        3.22078600       0.18636539       0.18037692
H        1.27145993       2.15263654      -0.36310703
16
Frame=7 idx=011333 GeodesicLength=0.8042425222960946 rxn_smarts="[C:1]([c:2]1[c:3]([C:4]([H:11])([H:12])[H:13])[c:5]([H:14])[c:6]([H:15])[n:7]1[H:16])([H:8])([H:9])[H:10]>>[C:1](/[C:2]([C:3]([C:4]([H:11])([H:12])[H:13])=[C:5]=[C:6]([H:14])[H:15])=[N:7]\[H:16])([H:8])([H:9])[H:10]"
C       -1.33224557       1.42710168      -0.12819696
C       -0.07843682       0.61879125      -0.13250179
C        0.05793944      -0.75556234       0.09637969
C       -1.06326978      -1.69714362       0.41844052
C        1.41847901      -1.12080073       0.16387718
C        2.21842773      -0.02368252      -0.12880335
N        1.14133890       1.17325265      -0.26064263
H       -2.19989908       0.80900598      -0.35494070
H       -1.30000055       2.22043170      -0.87816370
H       -1.49651408       1.88900357       0.84840218
H       -0.74227885      -2.72678609       0.26109276
H       -1.93684278      -1.52320573      -0.21458700
H       -1.39225495      -1.60614916       1.45731662
H        2.22377484      -1.02045527      -0.99260531
H        3.22979630       0.16698751       0.20157261
H        1.25198625       2.16921111      -0.35664013
16
Frame=8 idx=011333 GeodesicLength=0.9192289799471738 rxn_smarts="[C:1]([c:2]1[c:3]([C:4]([H:11])([H:12])[H:13])[c:5]([H:14])[c:6]([H:15])[n:7]1[H:16])([H:8])([H:9])[H:10]>>[C:1](/[C:2]([C:3]([C:4]([H:11])([H:12])[H:13])=[C:5]=[C:6]([H:14])[H:15])=[N:7]\[H:16])([H:8])([H:9])[H:10]"
C       -1.34119913       1.42686579      -0.13224283
C       -0.08074071       0.62849570      -0.14438747
C        0.05888303      -0.74933613       0.08568363
C       -1.05861178      -1.68903309       0.42525029
C        1.41516310      -1.11224600       0.14878104
C        2.23649525      -0.03832952      -0.13896380
N        1.13450920       1.18680688      -0.27278836
H       -2.20038968       0.81058785      -0.39385393
H       -1.30464088       2.24530661      -0.85441638
H       -1.52453606       1.85314960       0.85706350
H       -0.74625445      -2.71965910       0.25652262
H       -1.94363600      -1.50848302      -0.18962640
H       -1.36732662      -1.60135070       1.47061560
H        2.25205050      -1.06586072      -0.98923277
H        3.23829199       0.14684882       0.22209511
H        1.23194226       2.18623703      -0.35049985
16
Frame=9 idx=011333 GeodesicLength=1.0341181693358519 rxn_smarts="[C:1]([c:2]1[c:3]([C:4]([H:11])([H:12])[H:13])[c:5]([H:14])[c:6]([H:15])[n:7]1[H:16])([H:8])([H:9])[H:10]>>[C:1](/[C:2]([C:3]([C:4]([H:11])([H:12])[H:13])=[C:5]=[C:6]([H:14])[H:15])=[N:7]\[H:16])([H:8])([H:9])[H:10]"
C       -1.35046326       1.42669109      -0.13608849
C       -0.08310663       0.63892300      -0.15487692
C        0.05995818      -0.74255116       0.07508044
C       -1.05355681      -1.68059046       0.43155065
C        1.41198749      -1.10321584       0.13282369
C        2.25511644      -0.05366094      -0.15016402
N        1.12734995       1.20166385      -0.28321026
H       -2.20041330       0.81265330      -0.43176161
H       -1.31027642       2.26883927      -0.83009211
H       -1.55295972       1.81751616       0.86411677
H       -0.75016858      -2.71201764       0.25087224
H       -1.94976317      -1.49297191      -0.16463762
H       -1.34169764      -1.59706375       1.48312107
H        2.28037638      -1.11411698      -0.98281446
H        3.24643154       0.12612943       0.24139780
H        1.21118556       2.20377257      -0.34531717
16
Frame=10 idx=011333 GeodesicLength=1.1489372919468397 rxn_smarts="[C:1]([c:2]1[c:3]([C:4]([H:11])([H:12])[H:13])[c:5]([H:14])[c:6]([H:15])[n:7]1[H:16])([H:8])([H:9])[H:10]>>[C:1](/[C:2]([C:3]([C:4]([H:11])([H:12])[H:13])=[C:5]=[C:6]([H:14])[H:15])=[N:7]\[H:16])([H:8])([H:9])[H:10]"
C       -1.36004656       1.42663662      -0.13976902
C       -0.08551669       0.65011682      -0.16395943
C        0.06120172      -0.73516429       0.06465749
C       -1.04804139      -1.67182625       0.43744969
C        1.40896606      -1.09374428       0.11539165
C        2.27420877      -0.06968446      -0.16219237
N        1.11986361       1.21768987      -0.29229793
H       -2.19984080       0.81527561      -0.46873230
H       -1.31701862       2.29107240      -0.80544976
H       -1.58188132       1.78206923       0.86951078
H       -0.75400542      -2.70379701       0.24413666
H       -1.95517828      -1.47666224      -0.13935711
H       -1.31515095      -1.59342805       1.49494364
H        2.30863497      -1.16526904      -0.97339593
H        3.25404609       0.10471089       0.25973684
H        1.18975881       2.22200418      -0.34067288
16
Frame=11 idx=011333 GeodesicLength=1.263640982390158 rxn_smarts="[C:1]([c:2]1[c:3]([C:4]([H:11])([H:12])[H:13])[c:5]([H:14])[c:6]([H:15])[n:7]1[H:16])([H:8])([H:9])[H:10]>>[C:1](/[C:2]([C:3]([C:4]([H:11])([H:12])[H:13])=[C:5]=[C:6]([H:14])[H:15])=[N:7]\[H:16])([H:8])([H:9])[H:10]"
C       -1.36994235       1.42672419      -0.14328839
C       -0.08797490       0.66211143      -0.17161227
C        0.06262300      -0.72713944       0.05439339
C       -1.04201528      -1.66276445       0.44294562
C        1.40608680      -1.08382953       0.09612877
C        2.29375452      -0.08646763      -0.17509653
N        1.11204010       1.23493013      -0.29994080
H       -2.19870918       0.81839999      -0.50476909
H       -1.32486691       2.31205649      -0.78058165
H       -1.61125992       1.74688443       0.87328630
H       -0.75776536      -2.69496735       0.23625286
H       -1.95984165      -1.45959031      -0.11367170
H       -1.28753353      -1.59053797       1.50605937
H        2.33672933      -1.21938629      -0.96059253
H        3.26105682       0.08255396       0.27711330
H        1.16761851       2.24102235      -0.33662666
16
Frame=12 idx=011333 GeodesicLength=1.3782558880077784 rxn_smarts="[C:1]([c:2]1[c:3]([C:4]([H:11])([H:12])[H:13])[c:5]([H:14])[c:6]([H:15])[n:7]1[H:16])([H:8])([H:9])[H:10]>>[C:1](/[C:2]([C:3]([C:4]([H:11])([H:12])[H:13])=[C:5]=[C:6]([H:14])[H:15])=[N:7]\[H:16])([H:8])([H:9])[H:10]"
C       -1.38017232       1.42696184      -0.14665469
C       -0.09048112       0.67493665      -0.17791153
C        0.06423397      -0.71842883       0.04417733
C       -1.03541481      -1.65339773       0.44802789
C        1.40332720      -1.07346572       0.07461484
C        2.31378680      -0.10412920      -0.18906692
N        1.10388077       1.25345852      -0.30613602
H       -2.19705531       0.82200251      -0.53989224
H       -1.33393034       2.33189880      -0.75552406
H       -1.64105873       1.71194173       0.87550682
H       -0.76144649      -2.68548259       0.22717399
H       -1.96370045      -1.44179786      -0.08744482
H       -1.25864534      -1.58842157       1.51641851
H        2.36457549      -1.27668179      -0.94371835
H        3.26739132       0.05962709       0.29346946
H        1.14470936       2.26097816      -0.33304019
16
Frame=13 idx=011333 GeodesicLength=1.492761821833184 rxn_smarts="[C:1]([c:2]1[c:3]([C:4]([H:11])([H:12])[H:13])[c:5]([H:14])[c:6]([H:15])[n:7]1[H:16])([H:8])([H:9])[H:10]>>[C:1](/[C:2]([C:3]([C:4]([H:11])([H:12])[H:13])=[C:5]=[C:6]([H:14])[H:15])=[N:7]\[H:16])([H:8])([H:9])[H:10]"
C       -1.39073178       1.42737475      -0.14974504
C       -0.09310331       0.68858643      -0.18309604
C        0.06598013      -0.70906020       0.03353033
C       -1.02820031      -1.64374340       0.45253419
C        1.40056751      -1.06261301       0.05038272
C        2.33444656      -0.12280862      -0.20441610
N        1.09528030       1.27337464      -0.31076397
H       -2.19504559       0.82610208      -0.57387115
H       -1.34423074       2.35073495      -0.73005869
H       -1.67096734       1.67723035       0.87647262
H       -0.76510359      -2.67539736       0.21658926
H       -1.96689380      -1.42324283      -0.06056551
H       -1.22811447      -1.58713420       1.52594316
H        2.39232483      -1.33736372      -0.92130221
H        3.27291435       0.03607862       0.30891813
H        1.12087726       2.28188150      -0.33055169
16
Frame=14 idx=011333 GeodesicLength=1.6072350010793242 rxn_smarts="[C:1]([c:2]1[c:3]([C:4]([H:11])([H:12])[H:13])[c:5]([H:14])[c:6]([H:15])[n:7]1[H:16])([H:8])([H:9])[H:10]>>[C:1](/[C:2]([C:3]([C:4]([H:11])([H:12])[H:13])=[C:5]=[C:6]([H:14])[H:15])=[N:7]\[H:16])([H:8])([H:9])[H:10]"
C       -1.40162591       1.42798974      -0.15260479
C       -0.09579977       0.70311738      -0.18720874
C        0.06790253      -0.69894499       0.02241797
C       -1.02019796      -1.63379441       0.45655622
C        1.39775746      -1.05134281       0.02218639
C        2.35566422      -0.14258447      -0.22091075
N        1.08629587       1.29463167      -0.31424085
H       -2.19268290       0.83068725      -0.60670038
H       -1.35591105       2.36857385      -0.70441727
H       -1.70095974       1.64278367       0.87614605
H       -0.76878585      -2.66455906       0.20448070
H       -1.96922741      -1.40393527      -0.03254619
H       -1.19541520      -1.58681725       1.53460274
H        2.41966526      -1.40127760      -0.89301214
H        3.27718130       0.01160144       0.32406973
H        1.09613913       2.30387083      -0.32881869
16
Frame=15 idx=011333 GeodesicLength=1.7216295539696573 rxn_smarts="[C:1]([c:2]1[c:3]([C:4]([H:11])([H:12])[H:13])[c:5]([H:14])[c:6]([H:15])[n:7]1[H:16])([H:8])([H:9])[H:10]>>[C:1](/[C:2]([C:3]([C:4]([H:11])([H:12])[H:13])=[C:5]=[C:6]([H:14])[H:15])=[N:7]\[H:16])([H:8])([H:9])[H:10]"
C       -1.41283025       1.42880101      -0.15528600
C       -0.09856442       0.71856993      -0.19034054
C        0.06999715      -0.68803820       0.01051154
C       -1.01119429      -1.62353890       0.46013943
C        1.39472386      -1.03967272      -0.01146942
C        2.37746319      -0.16358537      -0.23848640
N        1.07693617       1.31730357      -0.31648471
H       -2.19001665       0.83567387      -0.63836051
H       -1.36897053       2.38541091      -0.67875480
H       -1.73089282       1.60866018       0.87454639
H       -0.77252333      -2.65291265       0.19072365
H       -1.97060330      -1.38383845      -0.00279818
H       -1.15975764      -1.58756814       1.54240376
H        2.44616875      -1.46806615      -0.85812931
H        3.27961340      -0.01419986       0.33970965
H        1.07045071       2.32700095      -0.32792454
16
Frame=16 idx=011333 GeodesicLength=1.8361605038654116 rxn_smarts="[C:1]([c:2]1[c:3]([C:4]([H:11])([H:12])[H:13])[c:5]([H:14])[c:6]([H:15])[n:7]1[H:16])([H:8])([H:9])[H:10]>>[C:1](/[C:2]([C:3]([C:4]([H:11])([H:12])[H:13])=[C:5]=[C:6]([H:14])[H:15])=[N:7]\[H:16])([H:8])([H:9])[H:10]"
C       -1.42431478       1.42989613      -0.15742442
C       -0.10147367       0.73497184      -0.19322356
C        0.07223637      -0.67635740      -0.00324518
C       -1.00084791      -1.61299172       0.46303119
C        1.39118714      -1.02755265      -0.05285186
C        2.39999021      -0.18603231      -0.25664929
N        1.06707013       1.34141339      -0.31869671
H       -2.18747483       0.84119583      -0.66799190
H       -1.38367381       2.40140676      -0.65269668
H       -1.75988809       1.57488919       0.87235980
H       -0.77632323      -2.64044388       0.17474105
H       -1.97095421      -1.36283515       0.02932742
H       -1.11981374      -1.58955978       1.54911432
H        2.47168201      -1.53754438      -0.81462847
H        3.27891019      -0.04172347       0.35798819
H        1.04368821       2.35126758      -0.32915389
