12
Frame=0 idx=002801 GeodesicLength=0.0 rxn_smarts="[C:1]([C:2](=[O:3])[C@@:4]1([H:10])[C:5]([H:11])([H:12])[O:6]1)([H:7])([H:8])[H:9]>>[C:1](/[C:2]([O:3][H:10])=[C:4]1/[C:5]([H:11])([H:12])[O:6]1)([H:7])([H:8])[H:9]"
C       -1.52862744      -0.42367893      -0.52449385
C       -0.47451456      -0.36499297       0.50296820
O       -0.43172636      -1.15082679       1.49980563
C        0.62769139       0.54030436       0.69870886
C        1.68997302       0.59427140      -0.32886869
O        0.78923341       1.65937926      -0.16307204
H       -1.14865369      -0.06686382      -1.48199921
H       -1.94236915      -1.42764578      -0.60332248
H       -2.33059085       0.25459415      -0.22057973
H        0.44541986      -0.43670933       1.88066551
H        1.59725432       0.05710972      -1.27162884
H        2.70691000       0.76505872       0.01181660
12
Frame=1 idx=002801 GeodesicLength=0.04634319553788653 rxn_smarts="[C:1]([C:2](=[O:3])[C@@:4]1([H:10])[C:5]([H:11])([H:12])[O:6]1)([H:7])([H:8])[H:9]>>[C:1](/[C:2]([O:3][H:10])=[C:4]1/[C:5]([H:11])([H:12])[O:6]1)([H:7])([H:8])[H:9]"
C       -1.53668076      -0.42274052      -0.52381868
C       -0.47147316      -0.37986058       0.49361347
O       -0.44026062      -1.14799409       1.50622539
C        0.62374112       0.53216202       0.68446260
C        1.69854110       0.59530625      -0.32618672
O        0.78261594       1.65157372      -0.17401372
H       -1.16087013      -0.06276182      -1.48179135
H       -1.95532961      -1.42465893      -0.60374706
H       -2.33308485       0.25729748      -0.20969218
H        0.45965213      -0.43487126       1.87673663
H        1.62460198       0.05568584      -1.26901394
H        2.70854687       0.78086187       0.02722555
12
Frame=2 idx=002801 GeodesicLength=0.09262543507584489 rxn_smarts="[C:1]([C:2](=[O:3])[C@@:4]1([H:10])[C:5]([H:11])([H:12])[O:6]1)([H:7])([H:8])[H:9]>>[C:1](/[C:2]([O:3][H:10])=[C:4]1/[C:5]([H:11])([H:12])[O:6]1)([H:7])([H:8])[H:9]"
C       -1.54468262      -0.42181104      -0.52299012
C       -0.46837275      -0.39516257       0.48407118
O       -0.44857841      -1.14507943       1.51226301
C        0.61993874       0.52349529       0.66987882
C        1.70709271       0.59640649      -0.32346437
O        0.77606183       1.64345092      -0.18503566
H       -1.17314318      -0.05881284      -1.48149722
H       -1.96860748      -1.42150092      -0.60398119
H       -2.33519072       0.26017512      -0.19863004
H        0.47355392      -0.43256497       1.87280707
H        1.65222287       0.05466772      -1.26618944
H        2.70970511       0.79673622       0.04276796
12
Frame=3 idx=002801 GeodesicLength=0.1388123482170555 rxn_smarts="[C:1]([C:2](=[O:3])[C@@:4]1([H:10])[C:5]([H:11])([H:12])[O:6]1)([H:7])([H:8])[H:9]>>[C:1](/[C:2]([O:3][H:10])=[C:4]1/[C:5]([H:11])([H:12])[O:6]1)([H:7])([H:8])[H:9]"
C       -1.55260553      -0.42086532      -0.52200033
C       -0.46533902      -0.41070113       0.47447778
O       -0.45651204      -1.14224989       1.51777804
C        0.61630486       0.51434627       0.65498980
C        1.71558360       0.59752271      -0.32071931
O        0.76963739       1.63504364      -0.19610610
H       -1.18541953      -0.05492549      -1.48107330
H       -1.98201860      -1.41819916      -0.60409020
H       -2.33700006       0.26313089      -0.18744364
H        0.48703782      -0.42962725       1.86896860
H        1.67996072       0.05400399      -1.26315175
H        2.71037039       0.81252074       0.05837042
12
Frame=4 idx=002801 GeodesicLength=0.18488838115161754 rxn_smarts="[C:1]([C:2](=[O:3])[C@@:4]1([H:10])[C:5]([H:11])([H:12])[O:6]1)([H:7])([H:8])[H:9]>>[C:1](/[C:2]([O:3][H:10])=[C:4]1/[C:5]([H:11])([H:12])[O:6]1)([H:7])([H:8])[H:9]"
C       -1.56042476      -0.41988304      -0.52085042
C       -0.46248428      -0.42628215       0.46495814
O       -0.46394052      -1.13966280       1.52267750
C        0.61286332       0.50475761       0.63983425
C        1.72397163       0.59860971      -0.31797077
O        0.76340317       1.62639053      -0.20718049
H       -1.19763957      -0.05102303      -1.48048470
H       -1.99539161      -1.41478665      -0.60413859
H       -2.33860229       0.26607665      -0.17619037
H        0.50004662      -0.42591535       1.86530271
H        1.70765782       0.05365667      -1.25991119
H        2.71054047       0.82806185       0.07395394
12
Frame=5 idx=002801 GeodesicLength=0.2308304090310996 rxn_smarts="[C:1]([C:2](=[O:3])[C@@:4]1([H:10])[C:5]([H:11])([H:12])[O:6]1)([H:7])([H:8])[H:9]>>[C:1](/[C:2]([O:3][H:10])=[C:4]1/[C:5]([H:11])([H:12])[O:6]1)([H:7])([H:8])[H:9]"
C       -1.56811619      -0.41885042      -0.51954844
C       -0.45990591      -0.44174765       0.45561812
O       -0.47079577      -1.13743963       1.52691993
C        0.60963491       0.49476385       0.62445680
C        1.73221680       0.59963201      -0.31523905
O        0.75740166       1.61753334      -0.21819971
H       -1.20973412      -0.04705667      -1.47970749
H       -2.00858536      -1.41129233      -0.60417712
H       -2.34006173       0.26894955      -0.16493856
H        0.51255768      -0.42132849       1.86187288
H        1.73516545       0.05360505      -1.25649447
H        2.71022258       0.84323139       0.08943712
12
Frame=6 idx=002801 GeodesicLength=0.2766744371325462 rxn_smarts="[C:1]([C:2](=[O:3])[C@@:4]1([H:10])[C:5]([H:11])([H:12])[O:6]1)([H:7])([H:8])[H:9]>>[C:1](/[C:2]([O:3][H:10])=[C:4]1/[C:5]([H:11])([H:12])[O:6]1)([H:7])([H:8])[H:9]"
C       -1.57565490      -0.41776614      -0.51811481
C       -0.45766452      -0.45698414       0.44653222
O       -0.47710838      -1.13563504       1.53055456
C        0.60664622       0.48438433       0.60891079
C        1.74028169       0.60057003      -0.31254672
O        0.75165352       1.60851854      -0.22908079
H       -1.22162097      -0.04301884      -1.47873641
H       -2.02150186      -1.40774678      -0.60424553
H       -2.34141646       0.27171568      -0.15376798
H        0.52461062      -0.41583068       1.85871028
H        1.76234335       0.05387011      -1.25295721
H        2.70943169       0.85792292       0.10474161
12
Frame=7 idx=002801 GeodesicLength=0.32234766640321655 rxn_smarts="[C:1]([C:2](=[O:3])[C@@:4]1([H:10])[C:5]([H:11])([H:12])[O:6]1)([H:7])([H:8])[H:9]>>[C:1](/[C:2]([O:3][H:10])=[C:4]1/[C:5]([H:11])([H:12])[O:6]1)([H:7])([H:8])[H:9]"
C       -1.58301807      -0.41664155      -0.51658042
C       -0.45578043      -0.47196765       0.43776795
O       -0.48295127      -1.13422857       1.53367947
C        0.60394491       0.47363327       0.59324692
C        1.74813834       0.60142041      -0.30992091
O        0.74615631       1.59940836      -0.23972334
H       -1.23321449      -0.03892520      -1.47759628
H       -2.03408769      -1.40418107      -0.60437459
H       -2.34269043       0.27437436      -0.14275719
H        0.53624071      -0.40944552       1.85584265
H        1.78905517       0.05449450      -1.24937082
H        2.70820693       0.87205866       0.11978656
12
Frame=8 idx=002801 GeodesicLength=0.36735715298891375 rxn_smarts="[C:1]([C:2](=[O:3])[C@@:4]1([H:10])[C:5]([H:11])([H:12])[O:6]1)([H:7])([H:8])[H:9]>>[C:1](/[C:2]([O:3][H:10])=[C:4]1/[C:5]([H:11])([H:12])[O:6]1)([H:7])([H:8])[H:9]"
C       -1.59021503      -0.41546446      -0.51492690
C       -0.45428698      -0.48644481       0.42939332
O       -0.48816582      -1.13322681       1.53622550
C        0.60143652       0.46247277       0.57747360
C        1.75577696       0.60213428      -0.30735387
O        0.74097590       1.59019429      -0.25001448
H       -1.24452547      -0.03474680      -1.47622396
H       -2.04620838      -1.40064940      -0.60458392
H       -2.34398732       0.27683306      -0.13192303
H        0.54733304      -0.40207491       1.85314129
H        1.81527217       0.05544917      -1.24577822
H        2.70659442       0.88552360       0.13457066
12
Frame=9 idx=002801 GeodesicLength=0.41224033663787196 rxn_smarts="[C:1]([C:2](=[O:3])[C@@:4]1([H:10])[C:5]([H:11])([H:12])[O:6]1)([H:7])([H:8])[H:9]>>[C:1](/[C:2]([O:3][H:10])=[C:4]1/[C:5]([H:11])([H:12])[O:6]1)([H:7])([H:8])[H:9]"
C       -1.59722743      -0.41427897      -0.51321663
C       -0.45309405      -0.50077047       0.42131389
O       -0.49312016      -1.13251544       1.53846076
C        0.59924877       0.45089946       0.56158763
C        1.76320171       0.60278234      -0.30486763
O        0.73599635       1.58089250      -0.25992013
H       -1.25548299      -0.03059803      -1.47474062
H       -2.05806882      -1.39710108      -0.60483171
H       -2.34514125       0.27925918      -0.12130623
H        0.55811310      -0.39388987       1.85068473
H        1.84096683       0.05687387      -1.24220190
H        2.70460794       0.89844650       0.14903784
12
Frame=10 idx=002801 GeodesicLength=0.45712715232906337 rxn_smarts="[C:1]([C:2](=[O:3])[C@@:4]1([H:10])[C:5]([H:11])([H:12])[O:6]1)([H:7])([H:8])[H:9]>>[C:1](/[C:2]([O:3][H:10])=[C:4]1/[C:5]([H:11])([H:12])[O:6]1)([H:7])([H:8])[H:9]"
C       -1.60406913      -0.41308023      -0.51144627
C       -0.45217423      -0.51491628       0.41348026
O       -0.49785401      -1.13214296       1.54043467
C        0.59734986       0.43887303       0.54559611
C        1.77042663       0.60335885      -0.30244984
O        0.73119272       1.57149613      -0.26945756
H       -1.26611033      -0.02651846      -1.47314644
H       -2.06972925      -1.39351411      -0.60508035
H       -2.34613070       0.28167895      -0.11089372
H        0.56863930      -0.38486721       1.84837224
H        1.86622866       0.05876833      -1.23867814
H        2.70223048       0.91086396       0.16326905
12
Frame=11 idx=002801 GeodesicLength=0.5019727183158676 rxn_smarts="[C:1]([C:2](=[O:3])[C@@:4]1([H:10])[C:5]([H:11])([H:12])[O:6]1)([H:7])([H:8])[H:9]>>[C:1](/[C:2]([O:3][H:10])=[C:4]1/[C:5]([H:11])([H:12])[O:6]1)([H:7])([H:8])[H:9]"
C       -1.61075823      -0.41186827      -0.50961230
C       -0.45150822      -0.52892941       0.40587473
O       -0.50234244      -1.13213727       1.54211290
C        0.59574209       0.42636468       0.52947187
C        1.77747152       0.60386735      -0.30008784
O        0.72654281       1.56197498      -0.27863479
H       -1.27643922      -0.02253029      -1.47145892
H       -2.08125722      -1.38987363      -0.60529851
H       -2.34692867       0.28414164      -0.10066047
H        0.57888905      -0.37496855       1.84619256
H        1.89111646       0.06113442      -1.23519763
H        2.69947206       0.92282435       0.17729840
12
Frame=12 idx=002801 GeodesicLength=0.5467079840406183 rxn_smarts="[C:1]([C:2](=[O:3])[C@@:4]1([H:10])[C:5]([H:11])([H:12])[O:6]1)([H:7])([H:8])[H:9]>>[C:1](/[C:2]([O:3][H:10])=[C:4]1/[C:5]([H:11])([H:12])[O:6]1)([H:7])([H:8])[H:9]"
C       -1.61730006      -0.41065349      -0.50771126
C       -0.45106819      -0.54286943       0.39841289
O       -0.50658559      -1.13250028       1.54354721
C        0.59444458       0.41335492       0.51318685
C        1.78435637       0.60430061      -0.29777564
O        0.72202479       1.55233720      -0.28744131
H       -1.28648206      -0.01864382      -1.46967345
H       -2.09270428      -1.38615373      -0.60544558
H       -2.34750484       0.28663636      -0.09056665
H        0.58880251      -0.36412451       1.84406523
H        1.91566746       0.06401294      -1.23180386
H        2.69634932       0.93430322       0.19120558
12
Frame=13 idx=002801 GeodesicLength=0.5913316861036142 rxn_smarts="[C:1]([C:2](=[O:3])[C@@:4]1([H:10])[C:5]([H:11])([H:12])[O:6]1)([H:7])([H:8])[H:9]>>[C:1](/[C:2]([O:3][H:10])=[C:4]1/[C:5]([H:11])([H:12])[O:6]1)([H:7])([H:8])[H:9]"
C       -1.62366583      -0.40943445      -0.50575777
C       -0.45085192      -0.55670340       0.39119162
O       -0.51063975      -1.13316241       1.54472369
C        0.59343959       0.39980983       0.49675932
C        1.79104727       0.60464969      -0.29553675
O        0.71762642       1.54256595      -0.29573804
H       -1.29618310      -0.01485254      -1.46779083
H       -2.10397527      -1.38238824      -0.60558135
H       -2.34788336       0.28916618      -0.08065285
H        0.59840458      -0.35231729       1.84203089
H        1.93979059       0.06743235      -1.22850646
H        2.69289077       0.94523434       0.20485853
12
Frame=14 idx=002801 GeodesicLength=0.6358685596267463 rxn_smarts="[C:1]([C:2](=[O:3])[C@@:4]1([H:10])[C:5]([H:11])([H:12])[O:6]1)([H:7])([H:8])[H:9]>>[C:1](/[C:2]([O:3][H:10])=[C:4]1/[C:5]([H:11])([H:12])[O:6]1)([H:7])([H:8])[H:9]"
C       -1.62986965      -0.40822611      -0.50375960
C       -0.45083985      -0.57048037       0.38414194
O       -0.51450924      -1.13415080       1.54573386
C        0.59276178       0.38571974       0.48018583
C        1.79756403       0.60490430      -0.29336503
O        0.71334286       1.53269847      -0.30352975
H       -1.30556635      -0.01116230      -1.46583732
H       -2.11513428      -1.37857206      -0.60567918
H       -2.34803474       0.29172969      -0.07089953
H        0.60767046      -0.33948357       1.84003035
H        1.96349979       0.07142795      -1.22538423
H        2.68911519       0.95559508       0.21836265
12
Frame=15 idx=002801 GeodesicLength=0.6803417998200265 rxn_smarts="[C:1]([C:2](=[O:3])[C@@:4]1([H:10])[C:5]([H:11])([H:12])[O:6]1)([H:7])([H:8])[H:9]>>[C:1](/[C:2]([O:3][H:10])=[C:4]1/[C:5]([H:11])([H:12])[O:6]1)([H:7])([H:8])[H:9]"
C       -1.63592622      -0.40702410      -0.50170193
C       -0.45099466      -0.58426335       0.37721704
O       -0.51816247      -1.13551647       1.54651899
C        0.59240608       0.37104616       0.46342108
C        1.80393157       0.60505845      -0.29124376
O        0.70914929       1.52267838      -0.31083595
H       -1.31468138      -0.00757279      -1.46380569
H       -2.12624262      -1.37467813      -0.60570828
H       -2.34792401       0.29436281      -0.06124346
H        0.61653629      -0.32551968       1.83802711
H        1.98688745       0.07600447      -1.22240095
H        2.68502069       0.96542425       0.23175580
12
Frame=16 idx=002801 GeodesicLength=0.7247572847506075 rxn_smarts="[C:1]([C:2](=[O:3])[C@@:4]1([H:10])[C:5]([H:11])([H:12])[O:6]1)([H:7])([H:8])[H:9]>>[C:1](/[C:2]([O:3][H:10])=[C:4]1/[C:5]([H:11])([H:12])[O:6]1)([H:7])([H:8])[H:9]"
C       -1.64184931      -0.40582462      -0.49957021
C       -0.45128414      -0.59809326       0.37036644
O       -0.52155628      -1.13731694       1.54704140
C        0.59237919       0.35576109       0.44642404
C        1.81017195       0.60509888      -0.28915407
O        0.70503480       1.51246902      -0.31768542
H       -1.32357900      -0.00407292      -1.46169294
H       -2.13734705      -1.37068312      -0.60563888
H       -2.34752630       0.29707633      -0.05161899
H        0.62492732      -0.31031401       1.83596421
H        2.01002723       0.08116628      -1.21953380
H        2.68060159       0.97473329       0.24509821
