12
Frame=0 idx=003465 GeodesicLength=0.0 rxn_smarts="[N:1]([C@@:2]1([H:9])[C:3]([H:10])([H:11])[O:4]/[C:5]1=[N:6]\[H:12])([H:7])[H:8]>>[H:8][H:11].[N:1](=[C:2]1/[C:3]([H:9])([H:10])[O:4]/[C:5]1=[N:6]\[H:12])\[H:7]"
N        1.74317969      -0.31431155       0.05451366
C        0.57864721       0.17159335      -0.38534830
C       -0.56652116      -0.56629754      -0.93251979
O       -1.54289231       0.19167642      -0.43918292
C       -0.55971128       0.93672515       0.34026924
N       -0.74218938       1.74391694       1.24802387
H        2.23942425       0.38826199       0.59104121
H        0.71553534      -1.75900228       0.65290229
H        0.59009612       0.70067512      -1.41935741
H       -0.75433714      -1.28775384      -1.71654043
H        0.01924069      -2.10413682       0.52893486
H       -1.72047200       1.89865309       1.47726372
12
Frame=1 idx=003465 GeodesicLength=0.10851338043553345 rxn_smarts="[N:1]([C@@:2]1([H:9])[C:3]([H:10])([H:11])[O:4]/[C:5]1=[N:6]\[H:12])([H:7])[H:8]>>[H:8][H:11].[N:1](=[C:2]1/[C:3]([H:9])([H:10])[O:4]/[C:5]1=[N:6]\[H:12])\[H:7]"
N        1.73508819      -0.31505939       0.08021532
C        0.57733049       0.17816776      -0.37091263
C       -0.56280789      -0.57071559      -0.92290446
O       -1.54307309       0.19195874      -0.42422206
C       -0.56395860       0.94328532       0.34348734
N       -0.74232948       1.76219147       1.24300249
H        2.23405645       0.38804811       0.61354336
H        0.74280208      -1.76737808       0.63830034
H        0.57559722       0.66766414      -1.44015240
H       -0.76649068      -1.28488477      -1.70935244
H        0.03414191      -2.11445441       0.47833330
H       -1.72035661       1.92117669       1.47066184
12
Frame=2 idx=003465 GeodesicLength=0.21700308545097122 rxn_smarts="[N:1]([C@@:2]1([H:9])[C:3]([H:10])([H:11])[O:4]/[C:5]1=[N:6]\[H:12])([H:7])[H:8]>>[H:8][H:11].[N:1](=[C:2]1/[C:3]([H:9])([H:10])[O:4]/[C:5]1=[N:6]\[H:12])\[H:7]"
N        1.72682716      -0.31574166       0.10547818
C        0.57601223       0.18474111      -0.35713745
C       -0.55918885      -0.57519705      -0.91357416
O       -1.54323297       0.19239069      -0.40944498
C       -0.56807231       0.94936070       0.34689264
N       -0.74231822       1.77898307       1.23886220
H        2.22830714       0.38751458       0.63629006
H        0.77047907      -1.77528723       0.62304985
H        0.56128728       0.63456566      -1.45962199
H       -0.77920317      -1.28227559      -1.70177793
H        0.04930128      -2.12339952       0.42814957
H       -1.72019863       1.94434522       1.46283401
12
Frame=3 idx=003465 GeodesicLength=0.32573920396378886 rxn_smarts="[N:1]([C@@:2]1([H:9])[C:3]([H:10])([H:11])[O:4]/[C:5]1=[N:6]\[H:12])([H:7])[H:8]>>[H:8][H:11].[N:1](=[C:2]1/[C:3]([H:9])([H:10])[O:4]/[C:5]1=[N:6]\[H:12])\[H:7]"
N        1.71829937      -0.31638856       0.13046404
C        0.57474940       0.19129694      -0.34412281
C       -0.55561461      -0.57969422      -0.90464701
O       -1.54327187       0.19332270      -0.39535664
C       -0.57197243       0.95538969       0.34991492
N       -0.74210389       1.79513610       1.23469490
H        2.22209633       0.38676020       0.65924279
H        0.79841589      -1.78248328       0.60750235
H        0.54747697       0.60113809      -1.47813888
H       -0.79237174      -1.28004826      -1.69378398
H        0.06408848      -2.13066325       0.37881671
H       -1.71979191       1.96623384       1.45541362
12
Frame=4 idx=003465 GeodesicLength=0.4340354434466821 rxn_smarts="[N:1]([C@@:2]1([H:9])[C:3]([H:10])([H:11])[O:4]/[C:5]1=[N:6]\[H:12])([H:7])[H:8]>>[H:8][H:11].[N:1](=[C:2]1/[C:3]([H:9])([H:10])[O:4]/[C:5]1=[N:6]\[H:12])\[H:7]"
N        1.70958330      -0.31705363       0.15493098
C        0.57345219       0.19775890      -0.33159112
C       -0.55207964      -0.58427095      -0.89598057
O       -1.54323457       0.19431879      -0.38138778
C       -0.57575570       0.96080316       0.35331953
N       -0.74178560       1.80964217       1.23171064
H        2.21553722       0.38566012       0.68224171
H        0.82691546      -1.78918166       0.59125053
H        0.53368720       0.56789192      -1.49534381
H       -0.80589384      -1.27806738      -1.68539751
H        0.07894188      -2.13668728       0.32991388
H       -1.71936790       1.98918583       1.44633352
12
Frame=5 idx=003465 GeodesicLength=0.5423443187919474 rxn_smarts="[N:1]([C@@:2]1([H:9])[C:3]([H:10])([H:11])[O:4]/[C:5]1=[N:6]\[H:12])([H:7])[H:8]>>[H:8][H:11].[N:1](=[C:2]1/[C:3]([H:9])([H:10])[O:4]/[C:5]1=[N:6]\[H:12])\[H:7]"
N        1.70067718      -0.31776818       0.17906357
C        0.57221124       0.20413879      -0.31967848
C       -0.54858310      -0.58886080      -0.88773478
O       -1.54313628       0.19575011      -0.36810036
C       -0.57937715       0.96605360       0.35650058
N       -0.74133782       1.82333707       1.22898622
H        2.20870374       0.38430346       0.70526116
H        0.85582506      -1.79514651       0.57481682
H        0.52026788       0.53460447      -1.51171450
H       -0.81973067      -1.27642109      -1.67666364
H        0.09323902      -2.14124258       0.28193372
H       -1.71875910       2.01125167       1.43732969
12
Frame=6 idx=003465 GeodesicLength=0.650805908720867 rxn_smarts="[N:1]([C@@:2]1([H:9])[C:3]([H:10])([H:11])[O:4]/[C:5]1=[N:6]\[H:12])([H:7])[H:8]>>[H:8][H:11].[N:1](=[C:2]1/[C:3]([H:9])([H:10])[O:4]/[C:5]1=[N:6]\[H:12])\[H:7]"
N        1.69156703      -0.31854666       0.20281822
C        0.57098847       0.21039413      -0.30825507
C       -0.54511214      -0.59348371      -0.87985852
O       -1.54296489       0.19750469      -0.35536050
C       -0.58285469       0.97101640       0.35964957
N       -0.74078974       1.83608879       1.22674275
H        2.20157273       0.38268157       0.72823875
H        0.88539586      -1.80045742       0.55812385
H        0.50709298       0.50140537      -1.52719555
H       -0.83381158      -1.27505360      -1.66760547
H        0.10691535      -2.14450657       0.23474629
H       -1.71799938       2.03295698       1.42795567
12
Frame=7 idx=003465 GeodesicLength=0.7589826892330456 rxn_smarts="[N:1]([C@@:2]1([H:9])[C:3]([H:10])([H:11])[O:4]/[C:5]1=[N:6]\[H:12])([H:7])[H:8]>>[H:8][H:11].[N:1](=[C:2]1/[C:3]([H:9])([H:10])[O:4]/[C:5]1=[N:6]\[H:12])\[H:7]"
N        1.68221631      -0.31945650       0.22624694
C        0.56982509       0.21652810      -0.29737746
C       -0.54162354      -0.59810172      -0.87244147
O       -1.54267985       0.19976153      -0.34345436
C       -0.58616505       0.97588363       0.36248933
N       -0.74013147       1.84807738       1.22473825
H        2.19427062       0.38081259       0.75097390
H        0.91526468      -1.80481581       0.54160576
H        0.49425512       0.46823403      -1.54201540
H       -0.84800409      -1.27400497      -1.65825211
H        0.11981925      -2.14644539       0.18854771
H       -1.71704706       2.05352713       1.41893892
12
Frame=8 idx=003465 GeodesicLength=0.867128302568668 rxn_smarts="[N:1]([C@@:2]1([H:9])[C:3]([H:10])([H:11])[O:4]/[C:5]1=[N:6]\[H:12])([H:7])[H:8]>>[H:8][H:11].[N:1](=[C:2]1/[C:3]([H:9])([H:10])[O:4]/[C:5]1=[N:6]\[H:12])\[H:7]"
N        1.67261024      -0.32049051       0.24936780
C        0.56873937       0.22253738      -0.28704618
C       -0.53810224      -0.60269343      -0.86553025
O       -1.54227150       0.20262743      -0.33257070
C       -0.58928873       0.98076065       0.36487459
N       -0.73933985       1.85951723       1.22274453
H        2.18680486       0.37873510       0.77341283
H        0.94553235      -1.80821503       0.52543122
H        0.48181528       0.43506543      -1.55632228
H       -0.86223819      -1.27327981      -1.64865211
H        0.13163883      -2.14709043       0.14353405
H       -1.71590041       2.07252599       1.41075649
12
Frame=9 idx=003465 GeodesicLength=0.9752093710381867 rxn_smarts="[N:1]([C@@:2]1([H:9])[C:3]([H:10])([H:11])[O:4]/[C:5]1=[N:6]\[H:12])([H:7])[H:8]>>[H:8][H:11].[N:1](=[C:2]1/[C:3]([H:9])([H:10])[O:4]/[C:5]1=[N:6]\[H:12])\[H:7]"
N        1.66278085      -0.32167237       0.27213814
C        0.56770275       0.22839170      -0.27714708
C       -0.53454903      -0.60726821      -0.85908645
O       -1.54176837       0.20598527      -0.32256369
C       -0.59226666       0.98550724       0.36701380
N       -0.73846544       1.87021552       1.22104313
H        2.17924024       0.37641504       0.79549517
H        0.97636569      -1.81070788       0.50957997
H        0.46963448       0.40203970      -1.57009396
H       -0.87646800      -1.27280326      -1.63885070
H        0.14241368      -2.14665308       0.09956357
H       -1.71462019       2.09055032       1.40290809
12
Frame=10 idx=003465 GeodesicLength=1.0832281519168032 rxn_smarts="[N:1]([C@@:2]1([H:9])[C:3]([H:10])([H:11])[O:4]/[C:5]1=[N:6]\[H:12])([H:7])[H:8]>>[H:8][H:11].[N:1](=[C:2]1/[C:3]([H:9])([H:10])[O:4]/[C:5]1=[N:6]\[H:12])\[H:7]"
N        1.65273506      -0.32301181       0.29456728
C        0.56672046       0.23408470      -0.26765500
C       -0.53095510      -0.61181015      -0.85313532
O       -1.54117438       0.20987579      -0.31351795
C       -0.59510305       0.99015909       0.36886149
N       -0.73751264       1.88025551       1.21955896
H        2.17163611       0.37386452       0.81715672
H        1.00780141      -1.81226623       0.49422367
H        0.45770614       0.36917442      -1.58343595
H       -0.89064129      -1.27255094      -1.62889575
H        0.15200511      -2.14523543       0.05668773
H       -1.71321783       2.10746053       1.39558412
12
Frame=11 idx=003465 GeodesicLength=1.1914200842732374 rxn_smarts="[N:1]([C@@:2]1([H:9])[C:3]([H:10])([H:11])[O:4]/[C:5]1=[N:6]\[H:12])([H:7])[H:8]>>[H:8][H:11].[N:1](=[C:2]1/[C:3]([H:9])([H:10])[O:4]/[C:5]1=[N:6]\[H:12])\[H:7]"
N        1.64237399      -0.32450180       0.31673186
C        0.56583014       0.23961260      -0.25862718
C       -0.52728169      -0.61628764      -0.84775146
O       -1.54041260       0.21452976      -0.30576487
C       -0.59772532       0.99495497       0.37009332
N       -0.73639111       1.89007417       1.21778137
H        2.16392797       0.37114151       0.83832999
H        1.03983981      -1.81270045       0.47959094
H        0.44618636       0.33626889      -1.59654474
H       -0.90467115      -1.27254418      -1.61884596
H        0.16000416      -2.14284847       0.01522613
H       -1.71168056       2.12230062       1.38978059
12
Frame=12 idx=003465 GeodesicLength=1.2992893535657444 rxn_smarts="[N:1]([C@@:2]1([H:9])[C:3]([H:10])([H:11])[O:4]/[C:5]1=[N:6]\[H:12])([H:7])[H:8]>>[H:8][H:11].[N:1](=[C:2]1/[C:3]([H:9])([H:10])[O:4]/[C:5]1=[N:6]\[H:12])\[H:7]"
N        1.63199430      -0.32620734       0.33836854
C        0.56484562       0.24486999      -0.24957149
C       -0.52361082      -0.62080119      -0.84264143
O       -1.53971463       0.21908097      -0.29810287
C       -0.60040692       0.99896508       0.37205708
N       -0.73546204       1.89829230       1.21752816
H        2.15632739       0.36801354       0.85910878
H        1.07313451      -1.81254200       0.46502135
H        0.43433108       0.30408487      -1.60894856
H       -0.91865684      -1.27248168      -1.60870524
H        0.16734139      -2.14004701      -0.02598745
H       -1.71012303       2.13877246       1.38187313
12
Frame=13 idx=003465 GeodesicLength=1.4073684170392748 rxn_smarts="[N:1]([C@@:2]1([H:9])[C:3]([H:10])([H:11])[O:4]/[C:5]1=[N:6]\[H:12])([H:7])[H:8]>>[H:8][H:11].[N:1](=[C:2]1/[C:3]([H:9])([H:10])[O:4]/[C:5]1=[N:6]\[H:12])\[H:7]"
N        1.62133553      -0.32806004       0.35976303
C        0.56396262       0.24995152      -0.24093414
C       -0.51984902      -0.62520863      -0.83816150
O       -1.53885560       0.22449377      -0.29191622
C       -0.60288166       1.00318196       0.37331863
N       -0.73437855       1.90634941       1.21691933
H        2.14876828       0.36476626       0.87926680
H        1.10722191      -1.81122298       0.45148357
H        0.42288218       0.27187208      -1.62132615
H       -0.93243124      -1.27258955      -1.59858678
H        0.17269897      -2.13648097      -0.06561083
H       -1.70847343       2.15294717       1.37578426
12
Frame=14 idx=003465 GeodesicLength=1.5153267324005615 rxn_smarts="[N:1]([C@@:2]1([H:9])[C:3]([H:10])([H:11])[O:4]/[C:5]1=[N:6]\[H:12])([H:7])[H:8]>>[H:8][H:11].[N:1](=[C:2]1/[C:3]([H:9])([H:10])[O:4]/[C:5]1=[N:6]\[H:12])\[H:7]"
N        1.61053512      -0.33011111       0.38079118
C        0.56305775       0.25477362      -0.23239856
C       -0.51602978      -0.62957189      -0.83413072
O       -1.53794614       0.23026445      -0.28649130
C       -0.60530781       1.00706711       0.37468340
N       -0.73335697       1.91354527       1.21693617
H        2.14132726       0.36124299       0.89887722
H        1.14252561      -1.80897108       0.43855386
H        0.41140663       0.24002671      -1.63343115
H       -0.94603711      -1.27267752      -1.58849679
H        0.17660130      -2.13251102      -0.10435485
H       -1.70677586       2.16692249       1.36946153
12
Frame=15 idx=003465 GeodesicLength=1.623296161888581 rxn_smarts="[N:1]([C@@:2]1([H:9])[C:3]([H:10])([H:11])[O:4]/[C:5]1=[N:6]\[H:12])([H:7])[H:8]>>[H:8][H:11].[N:1](=[C:2]1/[C:3]([H:9])([H:10])[O:4]/[C:5]1=[N:6]\[H:12])\[H:7]"
N        1.59956184      -0.33234686       0.40155109
C        0.56216155       0.25933552      -0.22398751
C       -0.51214386      -0.63385682      -0.83061676
O       -1.53696262       0.23657773      -0.28209647
C       -0.60765372       1.01078739       0.37592638
N       -0.73235645       1.92017753       1.21722613
H        2.13402741       0.35750871       0.91791713
H        1.17925616      -1.80573324       0.42631009
H        0.40002347       0.20841545      -1.64542058
H       -0.95945410      -1.27272483      -1.57851017
H        0.17860136      -2.12819868      -0.14188377
H       -1.70506106       2.18005808       1.36358443
12
Frame=16 idx=003465 GeodesicLength=1.731263758047575 rxn_smarts="[N:1]([C@@:2]1([H:9])[C:3]([H:10])([H:11])[O:4]/[C:5]1=[N:6]\[H:12])([H:7])[H:8]>>[H:8][H:11].[N:1](=[C:2]1/[C:3]([H:9])([H:10])[O:4]/[C:5]1=[N:6]\[H:12])\[H:7]"
N        1.58831589      -0.33472388       0.42216318
C        0.56132988       0.26365109      -0.21582620
C       -0.50815822      -0.63799795      -0.82773208
O       -1.53580527       0.24377764      -0.27921429
C       -0.60982003       1.01466193       0.37657532
N       -0.73122778       1.92675531       1.21711107
H        2.12685716       0.35366582       0.93631567
H        1.21739179      -1.80134239       0.41505692
H        0.38894967       0.17674664      -1.65753475
H       -0.97263495      -1.27271854      -1.56869351
H        0.17817809      -2.12354709      -0.17771030
H       -1.70337624       2.19107142       1.35948896
