15
Frame=0 idx=010344 GeodesicLength=0.0 rxn_smarts="[C:1]([C@@:2]1([C:5](=[O:6])[N:7]([H:14])[H:15])[C:3]([H:11])([H:12])[N:4]1[H:13])([H:8])([H:9])[H:10]>>[C:1]([C:2]([N+:4](=[C:3]([H:11])[H:12])[H:13])=[C:5]([O-:6])[N:7]([H:14])[H:15])([H:8])([H:9])[H:10]"
C       -1.22869683      -1.32334503       0.65240472
C       -0.26883565      -0.25217347       0.27096917
C       -0.54839613       1.39590248      -0.96177391
N       -0.64133244       1.04947836       0.34779835
C        1.11749742      -0.62742613      -0.08593150
O        1.38822202      -1.77663085      -0.38685782
N        2.10421021       0.31554763       0.06335463
H       -1.99922807      -1.44647991      -0.11734790
H       -0.72455702      -2.27792841       0.78017250
H       -1.74831159      -1.04372545       1.57606377
H       -0.06048495       2.31669838      -1.27023619
H       -1.06807784       0.80261778      -1.69961383
H       -1.15843659       1.49442528       1.09594303
H        1.85827146       1.28658725       0.11068592
H        2.97815602       0.08645213      -0.37563089
15
Frame=1 idx=010344 GeodesicLength=0.033382191884370555 rxn_smarts="[C:1]([C@@:2]1([C:5](=[O:6])[N:7]([H:14])[H:15])[C:3]([H:11])([H:12])[N:4]1[H:13])([H:8])([H:9])[H:10]>>[C:1]([C:2]([N+:4](=[C:3]([H:11])[H:12])[H:13])=[C:5]([O-:6])[N:7]([H:14])[H:15])([H:8])([H:9])[H:10]"
C       -1.22705397      -1.31667363       0.65259828
C       -0.26522517      -0.24857844       0.26527879
C       -0.54593391       1.39240933      -0.95617788
N       -0.62834973       1.05639935       0.35768759
C        1.12216409      -0.63112979      -0.07954365
O        1.39010720      -1.78029610      -0.38307989
N        2.10821964       0.31407043       0.05142262
H       -2.00323373      -1.43706741      -0.11154531
H       -0.73118318      -2.27605302       0.77747488
H       -1.73772976      -1.04061006       1.58208727
H       -0.07429560       2.32214656      -1.26186995
H       -1.05667125       0.80605549      -1.70532101
H       -1.19868535       1.47544799       1.08117200
H        1.86343587       1.28484594       0.10936472
H        2.98443483       0.07903337      -0.37954846
15
Frame=2 idx=010344 GeodesicLength=0.0664314453629381 rxn_smarts="[C:1]([C@@:2]1([C:5](=[O:6])[N:7]([H:14])[H:15])[C:3]([H:11])([H:12])[N:4]1[H:13])([H:8])([H:9])[H:10]>>[C:1]([C:2]([N+:4](=[C:3]([H:11])[H:12])[H:13])=[C:5]([O-:6])[N:7]([H:14])[H:15])([H:8])([H:9])[H:10]"
C       -1.22562056      -1.31029187       0.65276689
C       -0.26214375      -0.24510976       0.25922466
C       -0.54413788       1.38887633      -0.95070663
N       -0.61662497       1.06289565       0.36728230
C        1.12639903      -0.63458544      -0.07315906
O        1.39185685      -1.78365499      -0.37925453
N        2.11133373       0.31302457       0.03935800
H       -2.00740521      -1.42821233      -0.10568323
H       -0.73781923      -2.27424429       0.77492830
H       -1.72737043      -1.03771308       1.58792953
H       -0.08845240       2.32712967      -1.25334807
H       -1.04465311       0.80952758      -1.71174115
H       -1.23321528       1.45678427       1.06616356
H        1.86764985       1.28334296       0.10889898
H        2.99020340       0.07223074      -0.38265955
15
Frame=3 idx=010344 GeodesicLength=0.09933397342660902 rxn_smarts="[C:1]([C@@:2]1([C:5](=[O:6])[N:7]([H:14])[H:15])[C:3]([H:11])([H:12])[N:4]1[H:13])([H:8])([H:9])[H:10]>>[C:1]([C:2]([N+:4](=[C:3]([H:11])[H:12])[H:13])=[C:5]([O-:6])[N:7]([H:14])[H:15])([H:8])([H:9])[H:10]"
C       -1.22436642      -1.30416263       0.65292442
C       -0.25949354      -0.24175947       0.25290735
C       -0.54291836       1.38530642      -0.94536790
N       -0.60598879       1.06899106       0.37658200
C        1.13026849      -0.63783422      -0.06674427
O        1.39347996      -1.78676494      -0.37536617
N        2.11365106       0.31235644       0.02697485
H       -2.01171324      -1.41980088      -0.09976092
H       -0.74448733      -2.27250884       0.77250603
H       -1.71719518      -1.03501646       1.59362143
H       -0.10302997       2.33176745      -1.24464172
H       -1.03177659       0.81298214      -1.71886206
H       -1.26305347       1.43853189       1.05119858
H        1.87107776       1.28200189       0.10912903
H        2.99554563       0.06591015      -0.38510065
15
Frame=4 idx=010344 GeodesicLength=0.13221670645812963 rxn_smarts="[C:1]([C@@:2]1([C:5](=[O:6])[N:7]([H:14])[H:15])[C:3]([H:11])([H:12])[N:4]1[H:13])([H:8])([H:9])[H:10]>>[C:1]([C:2]([N+:4](=[C:3]([H:11])[H:12])[H:13])=[C:5]([O-:6])[N:7]([H:14])[H:15])([H:8])([H:9])[H:10]"
C       -1.22322718      -1.29822985       0.65304271
C       -0.25719892      -0.23850241       0.24629730
C       -0.54236041       1.38173246      -0.94016201
N       -0.59627191       1.07471316       0.38557788
C        1.13379449      -0.64085807      -0.06050389
O        1.39499363      -1.78965114      -0.37141244
N        2.11521666       0.31202458       0.01403590
H       -2.01613910      -1.41173112      -0.09376462
H       -0.75115351      -2.27080172       0.77014507
H       -1.70708541      -1.03248071       1.59915411
H       -0.11818767       2.33611322      -1.23577695
H       -1.01817868       0.81648647      -1.72657857
H       -1.28884336       1.42065089       1.03659793
H        1.87384905       1.28080147       0.10947527
H        3.00079232       0.05973277      -0.38612769
15
Frame=5 idx=010344 GeodesicLength=0.16513509556103362 rxn_smarts="[C:1]([C@@:2]1([C:5](=[O:6])[N:7]([H:14])[H:15])[C:3]([H:11])([H:12])[N:4]1[H:13])([H:8])([H:9])[H:10]>>[C:1]([C:2]([N+:4](=[C:3]([H:11])[H:12])[H:13])=[C:5]([O-:6])[N:7]([H:14])[H:15])([H:8])([H:9])[H:10]"
C       -1.22219384      -1.29248043       0.65316545
C       -0.25520184      -0.23533093       0.23950899
C       -0.54238050       1.37815206      -0.93507543
N       -0.58737055       1.08009624       0.39430610
C        1.13702245      -0.64368909      -0.05438215
O        1.39637676      -1.79234401      -0.36746450
N        2.11608044       0.31200847       0.00035948
H       -2.02067928      -1.40391872      -0.08765416
H       -0.75784361      -2.26915128       0.76782701
H       -1.69701325      -1.03011978       1.60460237
H       -0.13397171       2.34024755      -1.22672725
H       -1.00351900       0.81997517      -1.73489560
H       -1.31132616       1.40322127       1.02239675
H        1.87607133       1.27966469       0.10999828
H        3.00594877       0.05366880      -0.38596534
15
Frame=6 idx=010344 GeodesicLength=0.19807745257663853 rxn_smarts="[C:1]([C@@:2]1([C:5](=[O:6])[N:7]([H:14])[H:15])[C:3]([H:11])([H:12])[N:4]1[H:13])([H:8])([H:9])[H:10]>>[C:1]([C:2]([N+:4](=[C:3]([H:11])[H:12])[H:13])=[C:5]([O-:6])[N:7]([H:14])[H:15])([H:8])([H:9])[H:10]"
C       -1.22117829      -1.28688722       0.65326909
C       -0.25345194      -0.23221230       0.23245556
C       -0.54316140       1.37459188      -0.93014308
N       -0.57912490       1.08519257       0.40274259
C        1.13995211      -0.64628657      -0.04871702
O        1.39758400      -1.79481373      -0.36384295
N        2.11625782       0.31228129      -0.01436568
H       -2.02523131      -1.39640767      -0.08145071
H       -0.76442319      -2.26749933       0.76559972
H       -1.68692476      -1.02786697       1.60990867
H       -0.15036456       2.34406006      -1.21768931
H       -0.98851775       0.82366569      -1.74356463
H       -1.33073387       1.38623116       1.00889645
H        1.87782880       1.27861401       0.11004354
H        3.01148925       0.04733712      -0.38314222
15
Frame=7 idx=010344 GeodesicLength=0.23108883286276527 rxn_smarts="[C:1]([C@@:2]1([C:5](=[O:6])[N:7]([H:14])[H:15])[C:3]([H:11])([H:12])[N:4]1[H:13])([H:8])([H:9])[H:10]>>[C:1]([C:2]([N+:4](=[C:3]([H:11])[H:12])[H:13])=[C:5]([O-:6])[N:7]([H:14])[H:15])([H:8])([H:9])[H:10]"
C       -1.22015775      -1.28142453       0.65338879
C       -0.25191005      -0.22913324       0.22520640
C       -0.54468480       1.37105126      -0.92534916
N       -0.57145136       1.09003295       0.41091811
C        1.14261259      -0.64867215      -0.04351017
O        1.39858898      -1.79707859      -0.36063640
N        2.11576149       0.31282193      -0.03044218
H       -2.02980142      -1.38910739      -0.07510325
H       -0.77089208      -2.26584978       0.76343852
H       -1.67674505      -1.02572296       1.61514738
H       -0.16743958       2.34760698      -1.20863255
H       -0.97291942       0.82751704      -1.75259497
H       -1.34755514       1.36969307       0.99609462
H        1.87918850       1.27755005       0.10962725
H        3.01740509       0.04071537      -0.37755239
15
Frame=8 idx=010344 GeodesicLength=0.26421103574918087 rxn_smarts="[C:1]([C@@:2]1([C:5](=[O:6])[N:7]([H:14])[H:15])[C:3]([H:11])([H:12])[N:4]1[H:13])([H:8])([H:9])[H:10]>>[C:1]([C:2]([N+:4](=[C:3]([H:11])[H:12])[H:13])=[C:5]([O-:6])[N:7]([H:14])[H:15])([H:8])([H:9])[H:10]"
C       -1.21906887      -1.27606374       0.65353558
C       -0.25054889      -0.22607725       0.21767245
C       -0.54709043       1.36756514      -0.92071304
N       -0.56422528       1.09464742       0.41880912
C        1.14499488      -0.65083441      -0.03906975
O        1.39936041      -1.79916160      -0.35803613
N        2.11457928       0.31358991      -0.04844406
H       -2.03444736      -1.38192811      -0.06846707
H       -0.77721320      -2.26419662       0.76124443
H       -1.66624526      -1.02368985       1.62040962
H       -0.18534963       2.35092312      -1.19959965
H       -0.95691220       0.83162214      -1.76192090
H       -1.36198843       1.35356871       0.98412851
H        1.88020524       1.27641515       0.10827355
H        3.02394975       0.03361998      -0.36782263
15
Frame=9 idx=010344 GeodesicLength=0.297466123478434 rxn_smarts="[C:1]([C@@:2]1([C:5](=[O:6])[N:7]([H:14])[H:15])[C:3]([H:11])([H:12])[N:4]1[H:13])([H:8])([H:9])[H:10]>>[C:1]([C:2]([N+:4](=[C:3]([H:11])[H:12])[H:13])=[C:5]([O-:6])[N:7]([H:14])[H:15])([H:8])([H:9])[H:10]"
C       -1.21789077      -1.27079301       0.65373456
C       -0.24934361      -0.22304614       0.20985741
C       -0.55038824       1.36414614      -0.91622663
N       -0.55734721       1.09905198       0.42642625
C        1.14712101      -0.65279742      -0.03548743
O        1.39990549      -1.80111864      -0.35605226
N        2.11272211       0.31452571      -0.06882243
H       -2.03919384      -1.37479765      -0.06146503
H       -0.78339604      -2.26255415       0.75899048
H       -1.65533091      -1.02177499       1.62575688
H       -0.20411450       2.35404013      -1.19057014
H       -0.94031533       0.83601594      -1.77153982
H       -1.37428862       1.33784179       0.97302896
H        1.88093978       1.27504254       0.10590527
H        3.03092068       0.02621777      -0.35353606
15
Frame=10 idx=010344 GeodesicLength=0.33092488289024413 rxn_smarts="[C:1]([C@@:2]1([C:5](=[O:6])[N:7]([H:14])[H:15])[C:3]([H:11])([H:12])[N:4]1[H:13])([H:8])([H:9])[H:10]>>[C:1]([C:2]([N+:4](=[C:3]([H:11])[H:12])[H:13])=[C:5]([O-:6])[N:7]([H:14])[H:15])([H:8])([H:9])[H:10]"
C       -1.21660074      -1.26559504       0.65397763
C       -0.24826554      -0.22005835       0.20174676
C       -0.55451911       1.36076751      -0.91186690
N       -0.55067468       1.10324212       0.43376964
C        1.14899780      -0.65459798      -0.03282756
O        1.40023755      -1.80303671      -0.35455101
N        2.11020179       0.31548674      -0.09178441
H       -2.04403927      -1.36765203      -0.05406305
H       -0.78947174      -2.26092136       0.75663471
H       -1.64390855      -1.01996001       1.63118737
H       -0.22374225       2.35696789      -1.18147900
H       -0.92295744       0.84074985      -1.78140794
H       -1.38458538       1.32249210       0.96280068
H        1.88144994       1.27321435       0.10237405
H        3.03787762       0.01890090      -0.33451097
15
Frame=11 idx=010344 GeodesicLength=0.3645582402951833 rxn_smarts="[C:1]([C@@:2]1([C:5](=[O:6])[N:7]([H:14])[H:15])[C:3]([H:11])([H:12])[N:4]1[H:13])([H:8])([H:9])[H:10]>>[C:1]([C:2]([N+:4](=[C:3]([H:11])[H:12])[H:13])=[C:5]([O-:6])[N:7]([H:14])[H:15])([H:8])([H:9])[H:10]"
C       -1.21539501      -1.26051988       0.65420510
C       -0.24729154      -0.21721020       0.19361746
C       -0.55888984       1.35731207      -0.90756511
N       -0.54420136       1.10716302       0.44093036
C        1.15076496      -0.65636309      -0.03025151
O        1.40065832      -1.80511748      -0.35233741
N        2.10730925       0.31619080      -0.11571939
H       -2.04893592      -1.36049141      -0.04661212
H       -0.79572305      -2.25938025       0.75428175
H       -1.63250604      -1.01826885       1.63649332
H       -0.24372155       2.35966615      -1.17210245
H       -0.90377653       0.84578032      -1.79155597
H       -1.39335068       1.30747803       0.95316613
H        1.88182911       1.27070136       0.09857971
H        3.04322990       0.01305941      -0.31512987
15
Frame=12 idx=010344 GeodesicLength=0.3983908357670354 rxn_smarts="[C:1]([C@@:2]1([C:5](=[O:6])[N:7]([H:14])[H:15])[C:3]([H:11])([H:12])[N:4]1[H:13])([H:8])([H:9])[H:10]>>[C:1]([C:2]([N+:4](=[C:3]([H:11])[H:12])[H:13])=[C:5]([O-:6])[N:7]([H:14])[H:15])([H:8])([H:9])[H:10]"
C       -1.21429172      -1.25557346       0.65440226
C       -0.24641589      -0.21452267       0.18550462
C       -0.56332979       1.35372579      -0.90336437
N       -0.53789728       1.11080485       0.44788204
C        1.15242457      -0.65811864      -0.02767475
O        1.40119154      -1.80735796      -0.34935549
N        2.10418449       0.31648743      -0.13948811
H       -2.05387404      -1.35330369      -0.03915762
H       -0.80217394      -2.25793242       0.75192033
H       -1.62117151      -1.01671254       1.64164255
H       -0.26397739       2.36207768      -1.16249947
H       -0.88283301       0.85121486      -1.80185341
H       -1.40075687       1.29279267       0.94403086
H        1.88205150       1.26756919       0.09437934
H        3.04686937       0.00884890      -0.29636877
15
Frame=13 idx=010344 GeodesicLength=0.4324560248185647 rxn_smarts="[C:1]([C@@:2]1([C:5](=[O:6])[N:7]([H:14])[H:15])[C:3]([H:11])([H:12])[N:4]1[H:13])([H:8])([H:9])[H:10]>>[C:1]([C:2]([N+:4](=[C:3]([H:11])[H:12])[H:13])=[C:5]([O-:6])[N:7]([H:14])[H:15])([H:8])([H:9])[H:10]"
C       -1.21339248      -1.25076547       0.65453615
C       -0.24562584      -0.21200739       0.17764755
C       -0.56747180       1.34987101      -0.89922906
N       -0.53184960       1.11416841       0.45469756
C        1.15402635      -0.65988416      -0.02450594
O        1.40188549      -1.80971075      -0.34523019
N        2.10098243       0.31632544      -0.16154869
H       -2.05870214      -1.34619894      -0.03201867
H       -0.80889898      -2.25654466       0.74972138
H       -1.61035166      -1.01524259       1.64645324
H       -0.28437408       2.36414156      -1.15258198
H       -0.85971286       0.85702319      -1.81216442
H       -1.40723310       1.27841320       0.93511170
H        1.88212525       1.26401877       0.09027551
H        3.04859302       0.00639236      -0.28116414
15
Frame=14 idx=010344 GeodesicLength=0.4666848982893008 rxn_smarts="[C:1]([C@@:2]1([C:5](=[O:6])[N:7]([H:14])[H:15])[C:3]([H:11])([H:12])[N:4]1[H:13])([H:8])([H:9])[H:10]>>[C:1]([C:2]([N+:4](=[C:3]([H:11])[H:12])[H:13])=[C:5]([O-:6])[N:7]([H:14])[H:15])([H:8])([H:9])[H:10]"
C       -1.21270281      -1.24611268       0.65463952
C       -0.24493135      -0.20964149       0.17007428
C       -0.57139984       1.34576410      -0.89519306
N       -0.52611162       1.11730061       0.46136251
C        1.15556348      -0.66163574      -0.02079006
O        1.40268773      -1.81210818      -0.34022816
N        2.09771806       0.31581789      -0.18175551
H       -2.06343466      -1.33922652      -0.02517275
H       -0.81585646      -2.25523143       0.74772291
H       -1.60008559      -1.01387653       1.65095784
H       -0.30484226       2.36577949      -1.14249302
H       -0.83456577       0.86325872      -1.82234595
H       -1.41294758       1.26434747       0.92639682
H        1.88200993       1.26026482       0.08627216
H        3.04889873       0.00529946      -0.26944753
15
Frame=15 idx=010344 GeodesicLength=0.5010842118317551 rxn_smarts="[C:1]([C@@:2]1([C:5](=[O:6])[N:7]([H:14])[H:15])[C:3]([H:11])([H:12])[N:4]1[H:13])([H:8])([H:9])[H:10]>>[C:1]([C:2]([N+:4](=[C:3]([H:11])[H:12])[H:13])=[C:5]([O-:6])[N:7]([H:14])[H:15])([H:8])([H:9])[H:10]"
C       -1.21218179      -1.24159988       0.65472562
C       -0.24432255      -0.20740116       0.16276014
C       -0.57520234       1.34140179      -0.89128148
N       -0.52067980       1.12023403       0.46786539
C        1.15702259      -0.66335315      -0.01664405
O        1.40353661      -1.81450247      -0.33459305
N        2.09436720       0.31502752      -0.20035062
H       -2.06803860      -1.33242109      -0.01860472
H       -0.82296793      -2.25396022       0.74596052
H       -1.59033733      -1.01257917       1.65517731
H       -0.32551149       2.36697529      -1.13230187
H       -0.80760090       0.87001302      -1.83226174
H       -1.41798636       1.25058602       0.91788257
H        1.88170019       1.25642357       0.08225035
H        3.04820250       0.00515590      -0.26058436
15
Frame=16 idx=010344 GeodesicLength=0.5356389013760062 rxn_smarts="[C:1]([C@@:2]1([C:5](=[O:6])[N:7]([H:14])[H:15])[C:3]([H:11])([H:12])[N:4]1[H:13])([H:8])([H:9])[H:10]>>[C:1]([C:2]([N+:4](=[C:3]([H:11])[H:12])[H:13])=[C:5]([O-:6])[N:7]([H:14])[H:15])([H:8])([H:9])[H:10]"
C       -1.21180341      -1.23722023       0.65480364
C       -0.24379518      -0.20527127       0.15568710
C       -0.57894912       1.33678392      -0.88751775
N       -0.51555750       1.12299093       0.47419134
C        1.15839553      -0.66501532      -0.01214556
O        1.40440245      -1.81685719      -0.32846175
N        2.09089486       0.31403010      -0.21757019
H       -2.07249077      -1.32581509      -0.01230812
H       -0.83017866      -2.25271162       0.74446432
H       -1.58109466      -1.01132958       1.65912531
H       -0.34634698       2.36767072      -1.12209237
H       -0.77899802       0.87736389      -1.84177594
H       -1.42242572       1.23711428       0.90956973
H        1.88118556       1.25256067       0.07822934
H        3.04676163       0.00570579      -0.25419908
