10
Frame=0 idx=010291 GeodesicLength=0.0 rxn_smarts="[N:1](=[C:2]=[C:7]([C:6](=[O:5])[H:9])[H:10])[H:8].[N:3]#[N:4]>>[N:1]1([H:8])[C:2](=[N+:3]=[N-:4])[C@@:7]1([C:6](=[O:5])[H:9])[H:10]"
N        1.23059827      -0.61367180       0.80836841
C        0.84801530       0.50654083       0.18626638
N        0.45311808       1.66139152       0.71616275
N        0.24876479       2.67930319       1.13297670
O       -1.57800649      -1.08577262       0.45278599
C       -1.06540836      -0.88002338      -0.62459654
C        0.18517758      -0.17531104      -0.89136505
H        0.72295723      -0.77747545       1.68883177
H       -1.59411698      -1.16862846      -1.55552622
H        0.54890058      -0.14635279      -1.91390419
10
Frame=1 idx=010291 GeodesicLength=0.09671211417623064 rxn_smarts="[N:1](=[C:2]=[C:7]([C:6](=[O:5])[H:9])[H:10])[H:8].[N:3]#[N:4]>>[N:1]1([H:8])[C:2](=[N+:3]=[N-:4])[C@@:7]1([C:6](=[O:5])[H:9])[H:10]"
N        1.24470298      -0.61885140       0.79816510
C        0.86030548       0.49853180       0.17544536
N        0.44815501       1.67031505       0.72182230
N        0.20239685       2.67467901       1.14628785
O       -1.58404170      -1.06396958       0.45452553
C       -1.07127858      -0.86852479      -0.62433121
C        0.19871299      -0.19723490      -0.89064274
H        0.74540978      -0.77417861       1.68412776
H       -1.61158966      -1.13899624      -1.55386221
H        0.56722685      -0.18177034      -1.91153773
10
Frame=2 idx=010291 GeodesicLength=0.19348479875428098 rxn_smarts="[N:1](=[C:2]=[C:7]([C:6](=[O:5])[H:9])[H:10])[H:8].[N:3]#[N:4]>>[N:1]1([H:8])[C:2](=[N+:3]=[N-:4])[C@@:7]1([C:6](=[O:5])[H:9])[H:10]"
N        1.25876578      -0.62402000       0.78804342
C        0.87268744       0.49032154       0.16426321
N        0.44277084       1.67943957       0.72800009
N        0.15635338       2.66897352       1.15908303
O       -1.58995815      -1.04174197       0.45606406
C       -1.07683701      -0.85690524      -0.62412974
C        0.21164503      -0.21931668      -0.88959993
H        0.76796388      -0.77043676       1.67946591
H       -1.62784033      -1.10906260      -1.55234846
H        0.58444914      -0.21725140      -1.90884161
10
Frame=3 idx=010291 GeodesicLength=0.29032180473039854 rxn_smarts="[N:1](=[C:2]=[C:7]([C:6](=[O:5])[H:9])[H:10])[H:8].[N:3]#[N:4]>>[N:1]1([H:8])[C:2](=[N+:3]=[N-:4])[C@@:7]1([C:6](=[O:5])[H:9])[H:10]"
N        1.27277100      -0.62912182       0.77795921
C        0.88515002       0.48193817       0.15263408
N        0.43688772       1.68881761       0.73461158
N        0.11072814       2.66214873       1.17172623
O       -1.59578728      -1.01895727       0.45739123
C       -1.08211312      -0.84515264      -0.62401079
C        0.22396396      -0.24156031      -0.88827729
H        0.79062806      -0.76613538       1.67480547
H       -1.64285148      -1.07901802      -1.55100096
H        0.60062299      -0.25295907      -1.90583875
10
Frame=4 idx=010291 GeodesicLength=0.3872227946520403 rxn_smarts="[N:1](=[C:2]=[C:7]([C:6](=[O:5])[H:9])[H:10])[H:8].[N:3]#[N:4]>>[N:1]1([H:8])[C:2](=[N+:3]=[N-:4])[C@@:7]1([C:6](=[O:5])[H:9])[H:10]"
N        1.28677085      -0.63413422       0.76794156
C        0.89759879       0.47336736       0.14061345
N        0.43014842       1.69832216       0.74186333
N        0.06576234       2.65459155       1.18392923
O       -1.60142301      -0.99592205       0.45847967
C       -1.08701892      -0.83352758      -0.62399420
C        0.23569831      -0.26403037      -0.88663775
H        0.81347760      -0.76135086       1.67015671
H       -1.65682302      -1.04841062      -1.54986374
H        0.61580866      -0.28890536      -1.90248827
10
Frame=5 idx=010291 GeodesicLength=0.4841418321610391 rxn_smarts="[N:1](=[C:2]=[C:7]([C:6](=[O:5])[H:9])[H:10])[H:8].[N:3]#[N:4]>>[N:1]1([H:8])[C:2](=[N+:3]=[N-:4])[C@@:7]1([C:6](=[O:5])[H:9])[H:10]"
N        1.30071066      -0.63902537       0.75794319
C        0.90993795       0.46463487       0.12820368
N        0.42234408       1.70791142       0.74987486
N        0.02191515       2.64664691       1.19583810
O       -1.60691085      -0.97268887       0.45926944
C       -1.09160975      -0.82206383      -0.62412416
C        0.24678259      -0.28666116      -0.88468641
H        0.83648342      -0.75609275       1.66545401
H       -1.66962450      -1.01764260      -1.54899395
H        0.62997125      -0.32501863      -1.89877876
10
Frame=6 idx=010291 GeodesicLength=0.5811049772783776 rxn_smarts="[N:1](=[C:2]=[C:7]([C:6](=[O:5])[H:9])[H:10])[H:8].[N:3]#[N:4]>>[N:1]1([H:8])[C:2](=[N+:3]=[N-:4])[C@@:7]1([C:6](=[O:5])[H:9])[H:10]"
N        1.31450751      -0.64390417       0.74786603
C        0.92227512       0.45572657       0.11533889
N        0.41384367       1.71764494       0.75875212
N       -0.02095207       2.63832181       1.20775601
O       -1.61240445      -0.94881224       0.45976473
C       -1.09606479      -0.81034611      -0.62440482
C        0.25716388      -0.30931027      -0.88247660
H        0.85958342      -0.75038767       1.66061281
H       -1.68096940      -0.98775166      -1.54841631
H        0.64301712      -0.36118120      -1.89479286
10
Frame=7 idx=010291 GeodesicLength=0.6780928394401534 rxn_smarts="[N:1](=[C:2]=[C:7]([C:6](=[O:5])[H:9])[H:10])[H:8].[N:3]#[N:4]>>[N:1]1([H:8])[C:2](=[N+:3]=[N-:4])[C@@:7]1([C:6](=[O:5])[H:9])[H:10]"
N        1.32823386      -0.64878445       0.73773967
C        0.93456686       0.44659797       0.10206039
N        0.40444456       1.72737787       0.76871675
N       -0.06279067       2.63004097       1.21940468
O       -1.61781643      -0.92457244       0.45995022
C       -1.10031197      -0.79859261      -0.62485170
C        0.26688787      -0.33204582      -0.87998323
H        0.88287165      -0.74431442       1.65565548
H       -1.69109360      -0.95831100      -1.54817330
H        0.65500787      -0.39739607      -1.89051896
10
Frame=8 idx=010291 GeodesicLength=0.7751033515921851 rxn_smarts="[N:1](=[C:2]=[C:7]([C:6](=[O:5])[H:9])[H:10])[H:8].[N:3]#[N:4]>>[N:1]1([H:8])[C:2](=[N+:3]=[N-:4])[C@@:7]1([C:6](=[O:5])[H:9])[H:10]"
N        1.34177821      -0.65360842       0.72747498
C        0.94688714       0.43728424       0.08821862
N        0.39430676       1.73728473       0.77951041
N       -0.10364238       2.62144349       1.23150210
O       -1.62320618      -0.89947644       0.45977562
C       -1.10440713      -0.78654779      -0.62548560
C        0.27593527      -0.35481423      -0.87724833
H        0.90624636      -0.73766874       1.65045009
H       -1.69985124      -0.93002923      -1.54827245
H        0.66595320      -0.43386761      -1.88592544
10
Frame=9 idx=010291 GeodesicLength=0.8722021790968697 rxn_smarts="[N:1](=[C:2]=[C:7]([C:6](=[O:5])[H:9])[H:10])[H:8].[N:3]#[N:4]>>[N:1]1([H:8])[C:2](=[N+:3]=[N-:4])[C@@:7]1([C:6](=[O:5])[H:9])[H:10]"
N        1.35537902      -0.65843276       0.71711982
C        0.95937318       0.42766057       0.07373473
N        0.38352015       1.74723633       0.79120578
N       -0.14445299       2.61233404       1.24362268
O       -1.62841292      -0.87356513       0.45934683
C       -1.10822337      -0.77438747      -0.62623756
C        0.28446989      -0.37785747      -0.87423926
H        0.92998851      -0.73042950       1.64507511
H       -1.70765658      -0.90156451      -1.54863336
H        0.67601511      -0.47099411      -1.88099478
10
Frame=10 idx=010291 GeodesicLength=0.9694523792956281 rxn_smarts="[N:1](=[C:2]=[C:7]([C:6](=[O:5])[H:9])[H:10])[H:8].[N:3]#[N:4]>>[N:1]1([H:8])[C:2](=[N+:3]=[N-:4])[C@@:7]1([C:6](=[O:5])[H:9])[H:10]"
N        1.36900331      -0.66317898       0.70663577
C        0.97207974       0.41775056       0.05846880
N        0.37213090       1.75738674       0.80362483
N       -0.18523847       2.60236715       1.25634970
O       -1.63348811      -0.84643892       0.45861715
C       -1.11180677      -0.76196417      -0.62715136
C        0.29247880      -0.40117482      -0.87099037
H        0.95407239      -0.72237541       1.63947161
H       -1.71443403      -0.87333805      -1.54931551
H        0.68520224      -0.50903410      -1.87571063
10
Frame=11 idx=010291 GeodesicLength=1.0668191098967783 rxn_smarts="[N:1](=[C:2]=[C:7]([C:6](=[O:5])[H:9])[H:10])[H:8].[N:3]#[N:4]>>[N:1]1([H:8])[C:2](=[N+:3]=[N-:4])[C@@:7]1([C:6](=[O:5])[H:9])[H:10]"
N        1.38268373      -0.66792538       0.69599234
C        0.98497475       0.40749273       0.04247219
N        0.36005242       1.76754884       0.81715413
N       -0.22604734       2.59193392       1.26918258
O       -1.63833113      -0.81829880       0.45757542
C       -1.11512191      -0.74932780      -0.62820763
C        0.29995408      -0.42475359      -0.86743846
H        0.97858983      -0.71367334       1.63358515
H       -1.72021639      -0.84512284      -1.55031143
H        0.69346197      -0.54787374      -1.87000430
10
Frame=12 idx=010291 GeodesicLength=1.1643896395395692 rxn_smarts="[N:1](=[C:2]=[C:7]([C:6](=[O:5])[H:9])[H:10])[H:8].[N:3]#[N:4]>>[N:1]1([H:8])[C:2](=[N+:3]=[N-:4])[C@@:7]1([C:6](=[O:5])[H:9])[H:10]"
N        1.39641550      -0.67263961       0.68516624
C        0.99810729       0.39688168       0.02562799
N        0.34732536       1.77782494       0.83175027
N       -0.26693596       2.58082121       1.28251749
O       -1.64297013      -0.78880427       0.45617304
C       -1.11819859      -0.73634718      -0.62944903
C        0.30688640      -0.44859789      -0.86360441
H        1.00355595      -0.70416745       1.62737929
H       -1.72496584      -0.81726323      -1.55169610
H        0.70078001      -0.58770820      -1.86386478
10
Frame=13 idx=010291 GeodesicLength=1.2621124854517511 rxn_smarts="[N:1](=[C:2]=[C:7]([C:6](=[O:5])[H:9])[H:10])[H:8].[N:3]#[N:4]>>[N:1]1([H:8])[C:2](=[N+:3]=[N-:4])[C@@:7]1([C:6](=[O:5])[H:9])[H:10]"
N        1.41012090      -0.67718928       0.67413833
C        1.01150602       0.38592445       0.00777261
N        0.33398171       1.78837195       0.84711367
N       -0.30785321       2.56855680       1.29700485
O       -1.64740321      -0.75758845       0.45428236
C       -1.12102674      -0.72295010      -0.63092870
C        0.31326037      -0.47273325      -0.85945993
H        1.02890743      -0.69353571       1.62075623
H       -1.72862940      -0.79005118      -1.55353102
H        0.70713611      -0.62880524      -1.85714840
10
Frame=14 idx=010291 GeodesicLength=1.360147642564629 rxn_smarts="[N:1](=[C:2]=[C:7]([C:6](=[O:5])[H:9])[H:10])[H:8].[N:3]#[N:4]>>[N:1]1([H:8])[C:2](=[N+:3]=[N-:4])[C@@:7]1([C:6](=[O:5])[H:9])[H:10]"
N        1.42399596      -0.68173898       0.66284251
C        1.02520889       0.37451274      -0.01104005
N        0.31992687       1.79885362       0.86398009
N       -0.34930242       2.55554552       1.31163971
O       -1.65148328      -0.72473894       0.45199300
C       -1.12355753      -0.70913938      -0.63257031
C        0.31910729      -0.49717280      -0.85494269
H        1.05493233      -0.68210564       1.61367115
H       -1.73132056      -0.76288280      -1.55575126
H        0.71249245      -0.67113335      -1.84982214
10
Frame=15 idx=010291 GeodesicLength=1.458466762163905 rxn_smarts="[N:1](=[C:2]=[C:7]([C:6](=[O:5])[H:9])[H:10])[H:8].[N:3]#[N:4]>>[N:1]1([H:8])[C:2](=[N+:3]=[N-:4])[C@@:7]1([C:6](=[O:5])[H:9])[H:10]"
N        1.43791797      -0.68623416       0.65125312
C        1.03920521       0.36265399      -0.03087831
N        0.30518563       1.80934334       0.88240711
N       -0.39095306       2.54178495       1.32689148
O       -1.65521722      -0.68996677       0.44911773
C       -1.12581419      -0.69475663      -0.63447759
C        0.32435399      -0.52181649      -0.85004364
H        1.08153462      -0.66971755       1.60602179
H       -1.73294643      -0.73662249      -1.55849209
H        0.71673347      -0.71466818      -1.84179959
10
Frame=16 idx=010291 GeodesicLength=1.5571887206387114 rxn_smarts="[N:1](=[C:2]=[C:7]([C:6](=[O:5])[H:9])[H:10])[H:8].[N:3]#[N:4]>>[N:1]1([H:8])[C:2](=[N+:3]=[N-:4])[C@@:7]1([C:6](=[O:5])[H:9])[H:10]"
N        1.45191394      -0.69066212       0.63934852
C        1.05354705       0.35029697      -0.05186600
N        0.28974090       1.81986163       0.90246577
N       -0.43295045       2.52707486       1.34292525
O       -1.65855153      -0.65295347       0.44557857
C       -1.12776789      -0.67971024      -0.63667997
C        0.32900521      -0.54667630      -0.84473304
H        1.10877539      -0.65625810       1.59774545
H       -1.73353879      -0.71138755      -1.56179919
H        0.71982617      -0.75958570      -1.83298536
