14
Frame=0 idx=007713 GeodesicLength=0.0 rxn_smarts="[C:1](/[N:2]=[C:3]1\[O:4][C@@:5]2([H:11])[C:6]([H:12])([H:13])[C@@:7]12[H:14])([H:8])([H:9])[H:10]>>[C:1]([N:2]([C:3]1=[C:7]2[C@@:5]([H:11])([O:4]1)[C:6]2([H:12])[H:13])[H:14])([H:8])([H:9])[H:10]"
C        2.44615817       0.20068984       0.53426162
N        1.05737080       0.59308662       0.51807214
C        0.03983516      -0.10259974       0.17174789
O       -0.20874783      -1.28898481      -0.40579898
C       -1.33423257      -0.52716978      -1.01628121
C       -2.32962281      -0.18891396       0.00851946
C       -1.11046566       0.71627189      -0.10143116
H        3.02239241       0.85284936      -0.12379924
H        2.85336802       0.28760052       1.54238607
H        2.56135240      -0.83099876       0.19526368
H       -1.40978765      -0.62245823      -2.09002727
H       -2.46548911      -0.86541849       0.84821763
H       -3.24499725       0.25146345      -0.36951820
H        0.12286592       1.52458209       0.28838763
14
Frame=1 idx=007713 GeodesicLength=0.04398393948987357 rxn_smarts="[C:1](/[N:2]=[C:3]1\[O:4][C@@:5]2([H:11])[C:6]([H:12])([H:13])[C@@:7]12[H:14])([H:8])([H:9])[H:10]>>[C:1]([N:2]([C:3]1=[C:7]2[C@@:5]([H:11])([O:4]1)[C:6]2([H:12])[H:13])[H:14])([H:8])([H:9])[H:10]"
C        2.44221423       0.19600219       0.53510714
N        1.05765425       0.60467109       0.51736520
C        0.04021978      -0.09719056       0.18069314
O       -0.19801373      -1.27849239      -0.41274936
C       -1.33120872      -0.52640188      -1.01730283
C       -2.32595183      -0.19395983       0.01006564
C       -1.11165923       0.71797754      -0.10734685
H        3.02753399       0.84237605      -0.12061788
H        2.84806089       0.27741731       1.54429994
H        2.54669145      -0.83635519       0.19481360
H       -1.41249194      -0.62309935      -2.09047173
H       -2.45380199      -0.86980310       0.85143812
H       -3.24535918       0.24186515      -0.36338341
H        0.11611203       1.54499297       0.27808928
14
Frame=2 idx=007713 GeodesicLength=0.08795668898713101 rxn_smarts="[C:1](/[N:2]=[C:3]1\[O:4][C@@:5]2([H:11])[C:6]([H:12])([H:13])[C@@:7]12[H:14])([H:8])([H:9])[H:10]>>[C:1]([N:2]([C:3]1=[C:7]2[C@@:5]([H:11])([O:4]1)[C:6]2([H:12])[H:13])[H:14])([H:8])([H:9])[H:10]"
C        2.43825466       0.19135273       0.53611237
N        1.05800646       0.61590271       0.51650703
C        0.04074304      -0.09188966       0.18908359
O       -0.18738658      -1.26789698      -0.42000698
C       -1.32836860      -0.52568859      -1.01841407
C       -2.32214398      -0.19891899       0.01174562
C       -1.11268610       0.71956635      -0.11335410
H        3.03261653       0.83204735      -0.11702519
H        2.84239152       0.26727713       1.54647805
H        2.53233023      -0.84149175       0.19440499
H       -1.41564827      -0.62392868      -2.09093803
H       -2.44188865      -0.87404856       0.85476673
H       -3.24555487       0.23247711      -0.35688707
H        0.10933461       1.56523982       0.26752705
14
Frame=3 idx=007713 GeodesicLength=0.13192803916568638 rxn_smarts="[C:1](/[N:2]=[C:3]1\[O:4][C@@:5]2([H:11])[C:6]([H:12])([H:13])[C@@:7]12[H:14])([H:8])([H:9])[H:10]>>[C:1]([N:2]([C:3]1=[C:7]2[C@@:5]([H:11])([O:4]1)[C:6]2([H:12])[H:13])[H:14])([H:8])([H:9])[H:10]"
C        2.43428138       0.18672149       0.53735294
N        1.05845423       0.62686623       0.51534125
C        0.04143970      -0.08665661       0.19678934
O       -0.17683019      -1.25713245      -0.42777042
C       -1.32576961      -0.52499357      -1.01965222
C       -2.31817071      -0.20384039       0.01363401
C       -1.11357463       0.72105692      -0.11946284
H        3.03778634       0.82176263      -0.11289347
H        2.83622214       0.25719419       1.54904839
H        2.51825066      -0.84646337       0.19418209
H       -1.41942164      -0.62487485      -2.09145347
H       -2.42960280      -0.87824613       0.85825850
H       -3.24561362       0.22321854      -0.34984099
H        0.10254874       1.58538737       0.25646687
14
Frame=4 idx=007713 GeodesicLength=0.17590038643485917 rxn_smarts="[C:1](/[N:2]=[C:3]1\[O:4][C@@:5]2([H:11])[C:6]([H:12])([H:13])[C@@:7]12[H:14])([H:8])([H:9])[H:10]>>[C:1]([N:2]([C:3]1=[C:7]2[C@@:5]([H:11])([O:4]1)[C:6]2([H:12])[H:13])[H:14])([H:8])([H:9])[H:10]"
C        2.43029542       0.18211209       0.53879108
N        1.05898831       0.63755810       0.51393653
C        0.04229112      -0.08151146       0.20390833
O       -0.16636167      -1.24621996      -0.43595670
C       -1.32337733      -0.52432639      -1.02099361
C       -2.31404780      -0.20871201       0.01569644
C       -1.11432905       0.72244937      -0.12564752
H        3.04299895       0.81155237      -0.10827019
H        2.82961580       0.24714580       1.55194740
H        2.50444341      -0.85126087       0.19406122
H       -1.42371472      -0.62595227      -2.09199263
H       -2.41701231      -0.88237658       0.86187315
H       -3.24552360       0.21410863      -0.34233047
H        0.09573348       1.60543318       0.24497696
14
Frame=5 idx=007713 GeodesicLength=0.2198715255742325 rxn_smarts="[C:1](/[N:2]=[C:3]1\[O:4][C@@:5]2([H:11])[C:6]([H:12])([H:13])[C@@:7]12[H:14])([H:8])([H:9])[H:10]>>[C:1]([N:2]([C:3]1=[C:7]2[C@@:5]([H:11])([O:4]1)[C:6]2([H:12])[H:13])[H:14])([H:8])([H:9])[H:10]"
C        2.42629852       0.17752836       0.54038797
N        1.05959916       0.64797277       0.51236197
C        0.04327859      -0.07647179       0.21053468
O       -0.15599778      -1.23518131      -0.44447728
C       -1.32115762      -0.52369771      -1.02241356
C       -2.30979150      -0.21352060       0.01789676
C       -1.11495150       0.72374213      -0.13188650
H        3.04820970       0.80144760      -0.10320546
H        2.82263751       0.23710871       1.55510880
H        2.49090018      -0.85587299       0.19395976
H       -1.42843088      -0.62717886      -2.09252861
H       -2.40418596      -0.88641577       0.86557135
H       -3.24527426       0.20516685      -0.33444510
H        0.08886583       1.62537259       0.23313521
14
Frame=6 idx=007713 GeodesicLength=0.26383660794417185 rxn_smarts="[C:1](/[N:2]=[C:3]1\[O:4][C@@:5]2([H:11])[C:6]([H:12])([H:13])[C@@:7]12[H:14])([H:8])([H:9])[H:10]>>[C:1]([N:2]([C:3]1=[C:7]2[C@@:5]([H:11])([O:4]1)[C:6]2([H:12])[H:13])[H:14])([H:8])([H:9])[H:10]"
C        2.42229787       0.17298986       0.54203707
N        1.06025112       0.65804922       0.51083683
C        0.04435057      -0.07159184       0.21688945
O       -0.14578836      -1.22410818      -0.45306618
C       -1.31902306      -0.52315472      -1.02385404
C       -2.30545188      -0.21821221       0.02013259
C       -1.11542357       0.72492167      -0.13814834
H        3.05326446       0.79157291      -0.09786277
H        2.81548618       0.22703481       1.55835243
H        2.47762658      -0.86024955       0.19365681
H       -1.43331937      -0.62864032      -2.09301237
H       -2.39133370      -0.89026340       0.86926981
H       -3.24483938       0.19648323      -0.32644523
H        0.08190254       1.64516851       0.22121393
14
Frame=7 idx=007713 GeodesicLength=0.3077990124121804 rxn_smarts="[C:1](/[N:2]=[C:3]1\[O:4][C@@:5]2([H:11])[C:6]([H:12])([H:13])[C@@:7]12[H:14])([H:8])([H:9])[H:10]>>[C:1]([N:2]([C:3]1=[C:7]2[C@@:5]([H:11])([O:4]1)[C:6]2([H:12])[H:13])[H:14])([H:8])([H:9])[H:10]"
C        2.41828995       0.16847654       0.54379997
N        1.06096422       0.66785231       0.50923647
C        0.04553472      -0.06683624       0.22286881
O       -0.13569692      -1.21292838      -0.46189213
C       -1.31701580      -0.52265330      -1.02534574
C       -2.30100128      -0.22283187       0.02246521
C       -1.11577149       0.72600589      -0.14442893
H        3.05826989       0.78182145      -0.09215657
H        2.80805187       0.21695480       1.56177346
H        2.46460134      -0.86444470       0.19330058
H       -1.43850978      -0.63025491      -2.09346413
H       -2.37832899      -0.89400916       0.87300243
H       -3.24424088       0.18798033      -0.31817364
H        0.07485317       1.66486723       0.20901422
14
Frame=8 idx=007713 GeodesicLength=0.35175540156110896 rxn_smarts="[C:1](/[N:2]=[C:3]1\[O:4][C@@:5]2([H:11])[C:6]([H:12])([H:13])[C@@:7]12[H:14])([H:8])([H:9])[H:10]>>[C:1]([N:2]([C:3]1=[C:7]2[C@@:5]([H:11])([O:4]1)[C:6]2([H:12])[H:13])[H:14])([H:8])([H:9])[H:10]"
C        2.41428262       0.16400647       0.54557953
N        1.06170353       0.67732705       0.50776583
C        0.04678239      -0.06225340       0.22867504
O       -0.12576906      -1.20173506      -0.47070541
C       -1.31505600      -0.52223860      -1.02683473
C       -2.29648856      -0.22733129       0.02480101
C       -1.11597751       0.72698027      -0.15069925
H        3.06308494       0.77230584      -0.08624984
H        2.80052296       0.20682926       1.56520717
H        2.45182828      -0.86841550       0.19269814
H       -1.44376666      -0.63209483      -2.09384288
H       -2.36536782      -0.89756390       0.87669786
H       -3.24345891       0.17974438      -0.30987109
H        0.06767981       1.68443931       0.19677862
14
Frame=9 idx=007713 GeodesicLength=0.3956947205234076 rxn_smarts="[C:1](/[N:2]=[C:3]1\[O:4][C@@:5]2([H:11])[C:6]([H:12])([H:13])[C@@:7]12[H:14])([H:8])([H:9])[H:10]>>[C:1]([N:2]([C:3]1=[C:7]2[C@@:5]([H:11])([O:4]1)[C:6]2([H:12])[H:13])[H:14])([H:8])([H:9])[H:10]"
C        2.41028442       0.15959082       0.54730444
N        1.06243985       0.68643417       0.50658220
C        0.04805679      -0.05787888       0.23445454
O       -0.11603373      -1.19059449      -0.47932126
C       -1.31308387      -0.52193849      -1.02828276
C       -2.29195367      -0.23167758       0.02707098
C       -1.11602809       0.72783404      -0.15693488
H        3.06760782       0.76309635      -0.08028062
H        2.79305131       0.19664360       1.56852631
H        2.43931067      -0.87213874       0.19173320
H       -1.44891624      -0.63420199      -2.09412166
H       -2.35259929      -0.90086801       0.88030215
H       -3.24248715       0.17183471      -0.30171591
H        0.06035116       1.70386450       0.18468328
14
Frame=10 idx=007713 GeodesicLength=0.4396066773233023 rxn_smarts="[C:1](/[N:2]=[C:3]1\[O:4][C@@:5]2([H:11])[C:6]([H:12])([H:13])[C@@:7]12[H:14])([H:8])([H:9])[H:10]>>[C:1]([N:2]([C:3]1=[C:7]2[C@@:5]([H:11])([O:4]1)[C:6]2([H:12])[H:13])[H:14])([H:8])([H:9])[H:10]"
C        2.40630558       0.15523907       0.54890595
N        1.06314247       0.69513458       0.50584300
C        0.04932082      -0.05374891       0.24034940
O       -0.10651571      -1.17957247      -0.48756965
C       -1.31103984      -0.52177052      -1.02965895
C       -2.28743795      -0.23584426       0.02920555
C       -1.11591106       0.72855552      -0.16310276
H        3.07173225       0.75422664      -0.07443538
H        2.78580890       0.18643397       1.57160014
H        2.42704341      -0.87561476       0.19035452
H       -1.45378500      -0.63659141      -2.09428570
H       -2.34017080      -0.90388016       0.88375659
H       -3.24132494       0.16430656      -0.29388279
H        0.05283187       1.72312613       0.17292008
14
Frame=11 idx=007713 GeodesicLength=0.4834920841307993 rxn_smarts="[C:1](/[N:2]=[C:3]1\[O:4][C@@:5]2([H:11])[C:6]([H:12])([H:13])[C@@:7]12[H:14])([H:8])([H:9])[H:10]>>[C:1]([N:2]([C:3]1=[C:7]2[C@@:5]([H:11])([O:4]1)[C:6]2([H:12])[H:13])[H:14])([H:8])([H:9])[H:10]"
C        2.40235563       0.15095464       0.55033846
N        1.06378837       0.70339512       0.50566440
C        0.05054795      -0.04988918       0.24645765
O       -0.09722737      -1.16871567      -0.49534379
C       -1.30888078      -0.52173463      -1.03094818
C       -2.28297319      -0.23982010       0.03115431
C       -1.11561971       0.72913551      -0.16916752
H        3.07537397       0.74568264      -0.06889756
H        2.77894737       0.17627795       1.57432989
H        2.41501197      -0.87886742       0.18859733
H       -1.45824818      -0.63924030      -2.09433651
H       -2.32818711      -0.90659202       0.88701230
H       -3.23997843       0.15719292      -0.28649296
H        0.04508951       1.74222053       0.16163219
14
Frame=12 idx=007713 GeodesicLength=0.5273484351567824 rxn_smarts="[C:1](/[N:2]=[C:3]1\[O:4][C@@:5]2([H:11])[C:6]([H:12])([H:13])[C@@:7]12[H:14])([H:8])([H:9])[H:10]>>[C:1]([N:2]([C:3]1=[C:7]2[C@@:5]([H:11])([O:4]1)[C:6]2([H:12])[H:13])[H:14])([H:8])([H:9])[H:10]"
C        2.39843226       0.14671737       0.55167893
N        1.06440402       0.71129577       0.50587952
C        0.05177283      -0.04625905       0.25264261
O       -0.08812727      -1.15794975      -0.50284175
C       -1.30666407      -0.52178738      -1.03218791
C       -2.27852646      -0.24365520       0.03299431
C       -1.11517899       0.72959383      -0.17513668
H        3.07867649       0.73736759      -0.06353425
H        2.77231722       0.16618389       1.57684947
H        2.40319872      -0.88194875       0.18660702
H       -1.46247314      -0.64206647      -2.09430427
H       -2.31649501      -0.90910470       0.89012302
H       -3.23847532       0.15041325      -0.27935138
H        0.03713872       1.76119961       0.15058137
14
Frame=13 idx=007713 GeodesicLength=0.5711894405796969 rxn_smarts="[C:1](/[N:2]=[C:3]1\[O:4][C@@:5]2([H:11])[C:6]([H:12])([H:13])[C@@:7]12[H:14])([H:8])([H:9])[H:10]>>[C:1]([N:2]([C:3]1=[C:7]2[C@@:5]([H:11])([O:4]1)[C:6]2([H:12])[H:13])[H:14])([H:8])([H:9])[H:10]"
C        2.39453144       0.14251066       0.55298290
N        1.06500957       0.71888830       0.50637306
C        0.05302048      -0.04282476       0.25881122
O       -0.07918536      -1.14721945      -0.51020357
C       -1.30442808      -0.52189525      -1.03340261
C       -2.27407311      -0.24738798       0.03478139
C       -1.11461048       0.72994543      -0.18101015
H        3.08173636       0.72921214      -0.05824291
H        2.76581195       0.15614649       1.57925306
H        2.39158748      -0.88489097       0.18448169
H       -1.46657427      -0.64500106      -2.09420812
H       -2.30498091      -0.91149067       0.89312825
H       -3.23683450       0.14390051      -0.27231864
H        0.02898943       1.78010662       0.13957443
14
Frame=14 idx=007713 GeodesicLength=0.6150220068960911 rxn_smarts="[C:1](/[N:2]=[C:3]1\[O:4][C@@:5]2([H:11])[C:6]([H:12])([H:13])[C@@:7]12[H:14])([H:8])([H:9])[H:10]>>[C:1]([N:2]([C:3]1=[C:7]2[C@@:5]([H:11])([O:4]1)[C:6]2([H:12])[H:13])[H:14])([H:8])([H:9])[H:10]"
C        2.39065113       0.13832492       0.55428346
N        1.06561766       0.72621246       0.50707750
C        0.05430525      -0.03956462       0.26491282
O       -0.07038220      -1.13649059      -0.51750272
C       -1.30219448      -0.52204349      -1.03460121
C       -2.26959717      -0.25103517       0.03655119
C       -1.11392532       0.73020473      -0.18679629
H        3.08462380       0.72120305      -0.05292396
H        2.75935125       0.14611325       1.58160416
H        2.38017406      -0.88769687       0.18222535
H       -1.47062595      -0.64803177      -2.09405010
H       -2.29357634      -0.91378282       0.89605760
H       -3.23506603       0.13761675      -0.26531420
H        0.02064435       1.79897017       0.12847641
14
Frame=15 idx=007713 GeodesicLength=0.6588393690964885 rxn_smarts="[C:1](/[N:2]=[C:3]1\[O:4][C@@:5]2([H:11])[C:6]([H:12])([H:13])[C@@:7]12[H:14])([H:8])([H:9])[H:10]>>[C:1]([N:2]([C:3]1=[C:7]2[C@@:5]([H:11])([O:4]1)[C:6]2([H:12])[H:13])[H:14])([H:8])([H:9])[H:10]"
C        2.38679950       0.13417222       0.55551091
N        1.06619421       0.73321945       0.50816729
C        0.05558735      -0.03651755       0.27109915
O       -0.06174523      -1.12583680      -0.52455039
C       -1.29990102      -0.52225190      -1.03574852
C       -2.26514115      -0.25456765       0.03823337
C       -1.11310725       0.73035899      -0.19245972
H        3.08721633       0.71338583      -0.04777553
H        2.75311765       0.13611338       1.58377083
H        2.36895121      -0.89035959       0.17977983
H       -1.47444308      -0.65117065      -2.09381572
H       -2.28243770      -0.91593277       0.89885587
H       -3.23316800       0.13161875      -0.25852365
H        0.01207718       1.81776830       0.11745627
14
Frame=16 idx=007713 GeodesicLength=0.702648975653262 rxn_smarts="[C:1](/[N:2]=[C:3]1\[O:4][C@@:5]2([H:11])[C:6]([H:12])([H:13])[C@@:7]12[H:14])([H:8])([H:9])[H:10]>>[C:1]([N:2]([C:3]1=[C:7]2[C@@:5]([H:11])([O:4]1)[C:6]2([H:12])[H:13])[H:14])([H:8])([H:9])[H:10]"
C        2.38297432       0.13004432       0.55670104
N        1.06675496       0.73995241       0.50955373
C        0.05688557      -0.03365689       0.27730087
O       -0.05325446      -1.11522679      -0.53142889
C       -1.29757632      -0.52251368      -1.03685450
C       -2.26068566      -0.25800134       0.03987003
C       -1.11216613       0.73042170      -0.19802339
H        3.08960507       0.70576715      -0.04265207
H        2.74699827       0.12605810       1.58582928
H        2.35792419      -0.89286723       0.17712019
H       -1.47811341      -0.65442109      -2.09350667
H       -2.27148318      -0.91795794       0.90157111
H       -3.23115076       0.12586948      -0.25184922
H        0.00328754       1.83653182       0.10636849
