16
Frame=0 idx=003954 GeodesicLength=0.0 rxn_smarts="[C:1]([C:2]#[C:3][C:4]([C:5]([H:11])([H:12])[H:13])([C:6]([H:14])([H:15])[H:16])[H:10])([H:7])([H:8])[H:9]>>[C+:1]([C:2](=[C-:3][C:4]([C:5]([H:11])([H:12])[H:13])([C:6]([H:14])([H:15])[H:16])[H:10])[H:9])([H:7])[H:8]"
C        2.83955719       0.66613259      -0.29909779
C        1.69768565      -0.00075300       0.11407448
C        0.69959805      -0.80086618       0.18174169
C       -0.76121557      -0.65207166       0.37967159
C       -1.45314690      -1.15351378      -0.89701475
C       -1.21968832       0.76488784       0.72957030
H        3.52431701       1.07215438       0.43283761
H        3.02138610       0.88362232      -1.34622638
H        1.60898716       0.99028733       0.71281271
H       -1.05621735      -1.33029414       1.18734660
H       -1.18415663      -0.52816731      -1.75135407
H       -2.53700776      -1.11156964      -0.77446913
H       -1.16650684      -2.18041601      -1.12308000
H       -0.96349861       1.46137839      -0.07312394
H       -2.30188289       0.80268265       0.87608621
H       -0.74821024       1.11650617       1.65022487
16
Frame=1 idx=003954 GeodesicLength=0.061053825534520656 rxn_smarts="[C:1]([C:2]#[C:3][C:4]([C:5]([H:11])([H:12])[H:13])([C:6]([H:14])([H:15])[H:16])[H:10])([H:7])([H:8])[H:9]>>[C+:1]([C:2](=[C-:3][C:4]([C:5]([H:11])([H:12])[H:13])([C:6]([H:14])([H:15])[H:16])[H:10])[H:9])([H:7])[H:8]"
C        2.82536367       0.66737107      -0.30564215
C        1.70287257      -0.00453507       0.15028058
C        0.69867290      -0.79884055       0.20524855
C       -0.76404834      -0.65179615       0.38496964
C       -1.43819814      -1.14545497      -0.90432418
C       -1.22954352       0.76173033       0.73912001
H        3.53861780       1.07350646       0.39872454
H        2.99340551       0.82976769      -1.36488097
H        1.62309516       1.02665894       0.70763962
H       -1.06839588      -1.33623215       1.18397010
H       -1.15990369      -0.51340156      -1.75068643
H       -2.52363337      -1.10667365      -0.79509512
H       -1.14708072      -2.17022835      -1.13428919
H       -0.97156432       1.46401134      -0.05782883
H       -2.31298967       0.79396446       0.87755011
H       -0.76666997       1.11015217       1.66524370
16
Frame=2 idx=003954 GeodesicLength=0.12190134098057563 rxn_smarts="[C:1]([C:2]#[C:3][C:4]([C:5]([H:11])([H:12])[H:13])([C:6]([H:14])([H:15])[H:16])[H:10])([H:7])([H:8])[H:9]>>[C+:1]([C:2](=[C-:3][C:4]([C:5]([H:11])([H:12])[H:13])([C:6]([H:14])([H:15])[H:16])[H:10])[H:9])([H:7])[H:8]"
C        2.81338570       0.66675339      -0.31141162
C        1.70643548      -0.00367171       0.18346397
C        0.69787637      -0.79428997       0.22627310
C       -0.76653638      -0.65113776       0.38978295
C       -1.42374294      -1.13719542      -0.91120208
C       -1.24070924       0.75803939       0.74940158
H        3.55235313       1.07173770       0.36692685
H        2.97238988       0.77195952      -1.37917374
H        1.63607027       1.06701039       0.69547583
H       -1.07804603      -1.34259108       1.18000941
H       -1.13825041      -0.49766817      -1.74948630
H       -2.51050296      -1.10307455      -0.81391564
H       -1.12692807      -2.15925731      -1.14587071
H       -0.98322989       1.46678200      -0.04186045
H       -2.32515907       0.78302293       0.88134237
H       -0.78540586       1.10358065       1.68024447
16
Frame=3 idx=003954 GeodesicLength=0.18263755961589745 rxn_smarts="[C:1]([C:2]#[C:3][C:4]([C:5]([H:11])([H:12])[H:13])([C:6]([H:14])([H:15])[H:16])[H:10])([H:7])([H:8])[H:9]>>[C+:1]([C:2](=[C-:3][C:4]([C:5]([H:11])([H:12])[H:13])([C:6]([H:14])([H:15])[H:16])[H:10])[H:9])([H:7])[H:8]"
C        2.80338296       0.66444167      -0.31659093
C        1.70855612       0.00104631       0.21415938
C        0.69720344      -0.78783777       0.24533357
C       -0.76873726      -0.65020595       0.39422700
C       -1.40974130      -1.12874663      -0.91769230
C       -1.25283652       0.75389156       0.76021424
H        3.56558627       1.06728991       0.33724273
H        2.95644824       0.71174425      -1.38932809
H        1.64834022       1.11014631       0.67692034
H       -1.08564951      -1.34927649       1.17563100
H       -1.11873643      -0.48117550      -1.74784142
H       -2.49761743      -1.10040229      -0.83126273
H       -1.10630193      -2.14762589      -1.15765508
H       -0.99761543       1.46956050      -0.02542332
H       -2.33807405       0.77034627       0.88689831
H       -0.80420738       1.09680374       1.69516729
16
Frame=4 idx=003954 GeodesicLength=0.24326379798091952 rxn_smarts="[C:1]([C:2]#[C:3][C:4]([C:5]([H:11])([H:12])[H:13])([C:6]([H:14])([H:15])[H:16])[H:10])([H:7])([H:8])[H:9]>>[C+:1]([C:2](=[C-:3][C:4]([C:5]([H:11])([H:12])[H:13])([C:6]([H:14])([H:15])[H:16])[H:10])[H:9])([H:7])[H:8]"
C        2.79520504       0.66064097      -0.32124034
C        1.70933526       0.00915669       0.24258138
C        0.69663759      -0.77983870       0.26267979
C       -0.77069262      -0.64906544       0.39835492
C       -1.39622064      -1.12009436      -0.92381542
C       -1.26570297       0.74929962       0.77145609
H        3.57827796       1.06071496       0.30969470
H        2.94474865       0.64980371      -1.39552284
H        1.66012810       1.15521847       0.65223221
H       -1.09148522      -1.35623174       1.17091066
H       -1.10115514      -0.46402450      -1.74578907
H       -2.48502480      -1.09842234      -0.84729532
H       -1.08542234      -2.13536394      -1.16955749
H       -1.01417334       1.47223862      -0.00859297
H       -2.35152180       0.75619145       0.89391056
H       -0.82293373       1.08977652       1.70999315
16
Frame=5 idx=003954 GeodesicLength=0.3038818398304327 rxn_smarts="[C:1]([C:2]#[C:3][C:4]([C:5]([H:11])([H:12])[H:13])([C:6]([H:14])([H:15])[H:16])[H:10])([H:7])([H:8])[H:9]>>[C+:1]([C:2](=[C-:3][C:4]([C:5]([H:11])([H:12])[H:13])([C:6]([H:14])([H:15])[H:16])[H:10])[H:9])([H:7])[H:8]"
C        2.78811049       0.65556885      -0.32557062
C        1.70896116       0.01978354       0.26921578
C        0.69619090      -0.77095329       0.27909099
C       -0.77242351      -0.64779595       0.40233184
C       -1.38290589      -1.11132553      -0.92958594
C       -1.27890066       0.74444782       0.78280005
H        3.59042290       1.05193913       0.28362875
H        2.93434850       0.58838147      -1.39825922
H        1.67218450       1.20065342       0.62298724
H       -1.09613200      -1.36324637       1.16606572
H       -1.08466479      -0.44657973      -1.74338143
H       -2.47247969      -1.09679260      -0.86245553
H       -1.06430242      -2.12271135      -1.18126698
H       -1.03173791       1.47474029       0.00831570
H       -2.36514203       0.74125317       0.90148248
H       -0.84152955       1.08263715       1.72460117
16
Frame=6 idx=003954 GeodesicLength=0.36440263760095726 rxn_smarts="[C:1]([C:2]#[C:3][C:4]([C:5]([H:11])([H:12])[H:13])([C:6]([H:14])([H:15])[H:16])[H:10])([H:7])([H:8])[H:9]>>[C+:1]([C:2](=[C-:3][C:4]([C:5]([H:11])([H:12])[H:13])([C:6]([H:14])([H:15])[H:16])[H:10])[H:9])([H:7])[H:8]"
C        2.78235817       0.64948632      -0.32943813
C        1.70740330       0.03304374       0.29372631
C        0.69582569      -0.76108024       0.29425361
C       -0.77395791      -0.64640387       0.40609079
C       -1.37005311      -1.10239170      -0.93501014
C       -1.29246831       0.73923759       0.79436263
H        3.60197361       1.04161240       0.25969334
H        2.92658409       0.52663757      -1.39752557
H        1.68428787       1.24646081       0.58849643
H       -1.09945262      -1.37038925       1.16103513
H       -1.06970010      -0.42872891      -1.74063027
H       -2.46023257      -1.09554300      -0.87656768
H       -1.04320102      -2.10956429      -1.19290899
H       -1.05050310       1.47702574       0.02545370
H       -2.37894542       0.72535207       0.90988848
H       -0.85991856       1.07524501       1.73908035
16
Frame=7 idx=003954 GeodesicLength=0.4248601221310806 rxn_smarts="[C:1]([C:2]#[C:3][C:4]([C:5]([H:11])([H:12])[H:13])([C:6]([H:14])([H:15])[H:16])[H:10])([H:7])([H:8])[H:9]>>[C+:1]([C:2](=[C-:3][C:4]([C:5]([H:11])([H:12])[H:13])([C:6]([H:14])([H:15])[H:16])[H:10])[H:9])([H:7])[H:8]"
C        2.77760745       0.64264308      -0.33292786
C        1.70474399       0.04858701       0.31618418
C        0.69554257      -0.75045842       0.30846424
C       -0.77530996      -0.64492044       0.40969737
C       -1.35758097      -1.09330451      -0.94010654
C       -1.30625689       0.73372133       0.80606053
H        3.61287241       1.02994578       0.23772497
H        2.92059658       0.46513190      -1.39355709
H        1.69671573       1.29192781       0.54929557
H       -1.10166611      -1.37759493       1.15589477
H       -1.05597580      -0.41057066      -1.73755730
H       -2.44821602      -1.09453649      -0.88980294
H       -1.02214094      -2.09597850      -1.20440879
H       -1.07001918       1.47906965       0.04277061
H       -2.39280030       0.70873432       0.91881525
H       -0.87811258       1.06760307       1.75345303
16
Frame=8 idx=003954 GeodesicLength=0.4852427235364412 rxn_smarts="[C:1]([C:2]#[C:3][C:4]([C:5]([H:11])([H:12])[H:13])([C:6]([H:14])([H:15])[H:16])[H:10])([H:7])([H:8])[H:9]>>[C+:1]([C:2](=[C-:3][C:4]([C:5]([H:11])([H:12])[H:13])([C:6]([H:14])([H:15])[H:16])[H:10])[H:9])([H:7])[H:8]"
C        2.77366750       0.63526952      -0.33607724
C        1.70104793       0.06617260       0.33655313
C        0.69531983      -0.73921170       0.32185354
C       -0.77649849      -0.64336091       0.41317691
C       -1.34548688      -1.08407768      -0.94487772
C       -1.32017471       0.72792218       0.81783977
H        3.62310914       1.01715318       0.21771260
H        2.91604602       0.40418569      -1.38654920
H        1.70963624       1.33654700       0.50575299
H       -1.10289657      -1.38481858       1.15067928
H       -1.04338919      -0.39217241      -1.73416897
H       -2.43643039      -1.09370864      -0.90222879
H       -1.00119283      -2.08198679      -1.21571676
H       -1.09001248       1.48085485       0.06024678
H       -2.40661973       0.69153944       0.92807347
H       -0.89612537       1.05969225       1.76773020
16
Frame=9 idx=003954 GeodesicLength=0.5456319535416542 rxn_smarts="[C:1]([C:2]#[C:3][C:4]([C:5]([H:11])([H:12])[H:13])([C:6]([H:14])([H:15])[H:16])[H:10])([H:7])([H:8])[H:9]>>[C+:1]([C:2](=[C-:3][C:4]([C:5]([H:11])([H:12])[H:13])([C:6]([H:14])([H:15])[H:16])[H:10])[H:9])([H:7])[H:8]"
C        2.76978190       0.62767712      -0.33915784
C        1.69654538       0.08509582       0.35520839
C        0.69516688      -0.72774567       0.33515213
C       -0.77754013      -0.64175299       0.41668907
C       -1.33342474      -1.07485497      -0.94931139
C       -1.33401892       0.72203231       0.82939958
H        3.63277476       1.00275724       0.19877469
H        2.91046966       0.34567204      -1.37744785
H        1.72379397       1.37927201       0.46008750
H       -1.10361007      -1.39185460       1.14559337
H       -1.03114082      -0.37390089      -1.73048564
H       -2.42455676      -1.09293857      -0.91421993
H       -0.98014208      -2.06785788      -1.22651760
H       -1.10965347       1.48239093       0.07758543
H       -2.42026973       0.67432692       0.93683118
H       -0.91417583       1.05168117       1.78181892
16
Frame=10 idx=003954 GeodesicLength=0.6059643941919975 rxn_smarts="[C:1]([C:2]#[C:3][C:4]([C:5]([H:11])([H:12])[H:13])([C:6]([H:14])([H:15])[H:16])[H:10])([H:7])([H:8])[H:9]>>[C+:1]([C:2](=[C-:3][C:4]([C:5]([H:11])([H:12])[H:13])([C:6]([H:14])([H:15])[H:16])[H:10])[H:9])([H:7])[H:8]"
C        2.76634252       0.61988125      -0.34199370
C        1.69118928       0.10555809       0.37181677
C        0.69504613      -0.71585122       0.34793506
C       -0.77844719      -0.64008243       0.42013626
C       -1.32165719      -1.06554316      -0.95343096
C       -1.34787937       0.71593500       0.84092580
H        3.64178496       0.98737481       0.18159589
H        2.90545475       0.28846255      -1.36593466
H        1.73885553       1.42041401       0.41115357
H       -1.10357770      -1.39881465       1.14051713
H       -1.01974896      -0.35553896      -1.72651371
H       -2.41284218      -1.09227390      -0.92556586
H       -0.95921067      -2.05342187      -1.23701913
H       -1.12934106       1.48368189       0.09500550
H       -2.43379928       0.65681168       0.94554058
H       -0.93216958       1.04340691       1.79583146
16
Frame=11 idx=003954 GeodesicLength=0.6662706501073794 rxn_smarts="[C:1]([C:2]#[C:3][C:4]([C:5]([H:11])([H:12])[H:13])([C:6]([H:14])([H:15])[H:16])[H:10])([H:7])([H:8])[H:9]>>[C+:1]([C:2](=[C-:3][C:4]([C:5]([H:11])([H:12])[H:13])([C:6]([H:14])([H:15])[H:16])[H:10])[H:9])([H:7])[H:8]"
C        2.76316722       0.61200334      -0.34464954
C        1.68506940       0.12733617       0.38643422
C        0.69495640      -0.70360238       0.36037023
C       -0.77922772      -0.63835093       0.42355489
C       -1.31011750      -1.05616326      -0.95724772
C       -1.36172029       0.70966708       0.85237278
H        3.65013429       0.97104412       0.16601830
H        2.90052124       0.23287626      -1.35229230
H        1.75503902       1.45967472       0.35946477
H       -1.10290602      -1.40565613       1.13549400
H       -1.00905461      -0.33714686      -1.72226868
H       -2.40122882      -1.09169213      -0.93636095
H       -0.93835235      -2.03871738      -1.24718126
H       -1.14890837       1.48473990       0.11247220
H       -2.44719016       0.63910886       0.95403462
H       -0.95018171       1.03487864       1.80978446
16
Frame=12 idx=003954 GeodesicLength=0.7265411732367041 rxn_smarts="[C:1]([C:2]#[C:3][C:4]([C:5]([H:11])([H:12])[H:13])([C:6]([H:14])([H:15])[H:16])[H:10])([H:7])([H:8])[H:9]>>[C+:1]([C:2](=[C-:3][C:4]([C:5]([H:11])([H:12])[H:13])([C:6]([H:14])([H:15])[H:16])[H:10])[H:9])([H:7])[H:8]"
C        2.76027699       0.60412208      -0.34709200
C        1.67822627       0.15033744       0.39898600
C        0.69488122      -0.69098046       0.37238478
C       -0.77988885      -0.63655328       0.42692312
C       -1.29887030      -1.04671684      -0.96077070
C       -1.37553190       0.70322119       0.86374629
H        3.65781511       0.95394356       0.15218716
H        2.89582843       0.17889427      -1.33658009
H        1.77241587       1.49692862       0.30504706
H       -1.10157737      -1.41237410       1.13051448
H       -0.99915798      -0.31872490      -1.71777174
H       -2.38977893      -1.09120919      -0.94657223
H       -0.91764415      -2.02373684      -1.25702864
H       -1.16837244       1.48556934       0.12999671
H       -2.46042665       0.62121176       0.96234614
H       -0.96819534       1.02606736       1.82368367
16
Frame=13 idx=003954 GeodesicLength=0.7868309984334227 rxn_smarts="[C:1]([C:2]#[C:3][C:4]([C:5]([H:11])([H:12])[H:13])([C:6]([H:14])([H:15])[H:16])[H:10])([H:7])([H:8])[H:9]>>[C+:1]([C:2](=[C-:3][C:4]([C:5]([H:11])([H:12])[H:13])([C:6]([H:14])([H:15])[H:16])[H:10])[H:9])([H:7])[H:8]"
C        2.75723363       0.59640602      -0.34950843
C        1.67084065       0.17413093       0.40979861
C        0.69481840      -0.67814844       0.38442593
C       -0.78043820      -0.63468889       0.43034140
C       -1.28766666      -1.03733661      -0.96397378
C       -1.38925477       0.69672434       0.87483938
H        3.66494376       0.93555377       0.13947734
H        2.88980979       0.12771509      -1.31974608
H        1.79152198       1.53182534       0.24964973
H       -1.09984538      -1.41883472       1.12571853
H       -0.98956801      -0.30053654      -1.71303081
H       -2.37825321      -1.09085495      -0.95640636
H       -0.89686806      -2.00868417      -1.26632935
H       -1.18737149       1.48619392       0.14734238
H       -2.47349022       0.60341326       0.96997684
H       -0.98641221       1.01712165       1.83742468
16
Frame=14 idx=003954 GeodesicLength=0.8470872408835821 rxn_smarts="[C:1]([C:2]#[C:3][C:4]([C:5]([H:11])([H:12])[H:13])([C:6]([H:14])([H:15])[H:16])[H:10])([H:7])([H:8])[H:9]>>[C+:1]([C:2](=[C-:3][C:4]([C:5]([H:11])([H:12])[H:13])([C:6]([H:14])([H:15])[H:16])[H:10])[H:9])([H:7])[H:8]"
C        2.75443491       0.58882721      -0.35168533
C        1.66284620       0.19889702       0.41854184
C        0.69475106      -0.66493245       0.39600275
C       -0.78087825      -0.63274403       0.43368867
C       -1.27680877      -1.02794729      -0.96689797
C       -1.40293192       0.69007838       0.88580587
H        3.67144091       0.91644291       0.12861838
H        2.88385948       0.07846790      -1.30128935
H        1.81215104       1.56453961       0.19215314
H       -1.09746823      -1.42512254       1.12099340
H       -0.98084959      -0.28241069      -1.70810062
H       -2.36694548      -1.09067155      -0.96564213
H       -0.87631132      -1.99341849      -1.27530298
H       -1.20627102       1.48660494       0.16466501
H       -2.48638418       0.58547082       0.97738545
H       -1.00463484       1.00791828       1.85106388
16
Frame=15 idx=003954 GeodesicLength=0.9073157080891466 rxn_smarts="[C:1]([C:2]#[C:3][C:4]([C:5]([H:11])([H:12])[H:13])([C:6]([H:14])([H:15])[H:16])[H:10])([H:7])([H:8])[H:9]>>[C+:1]([C:2](=[C-:3][C:4]([C:5]([H:11])([H:12])[H:13])([C:6]([H:14])([H:15])[H:16])[H:10])[H:9])([H:7])[H:8]"
C        2.75184772       0.58145816      -0.35361446
C        1.65429049       0.22451623       0.42522114
C        0.69467327      -0.65132905       0.40709825
C       -0.78121222      -0.63071133       0.43695570
C       -1.26631980      -1.01858910      -0.96955049
C       -1.41654920       0.68330209       0.89661031
H        3.67732265       0.89661124       0.11964422
H        2.87781780       0.03136660      -1.28144423
H        1.83451803       1.59498061       0.13293413
H       -1.09445381      -1.43120547       1.11635944
H       -0.97303509      -0.26441113      -1.70301740
H       -2.35587984      -1.09071028      -0.97427299
H       -0.85600370      -1.97798260      -1.28393916
H       -1.22507157       1.48680386       0.18190529
H       -2.49909441       0.56741186       0.98454922
H       -1.02285030       0.99848830       1.86456102
16
Frame=16 idx=003954 GeodesicLength=0.9674977688613594 rxn_smarts="[C:1]([C:2]#[C:3][C:4]([C:5]([H:11])([H:12])[H:13])([C:6]([H:14])([H:15])[H:16])[H:10])([H:7])([H:8])[H:9]>>[C+:1]([C:2](=[C-:3][C:4]([C:5]([H:11])([H:12])[H:13])([C:6]([H:14])([H:15])[H:16])[H:10])[H:9])([H:7])[H:8]"
C        2.74956765       0.57436686      -0.35520887
C        1.64518054       0.25094182       0.42972275
C        0.69457505      -0.63730097       0.41750884
C       -0.78144258      -0.62858419       0.44008598
C       -1.25633666      -1.00929094      -0.97194806
C       -1.43008507       0.67638671       0.90725099
H        3.68257939       0.87621166       0.11283569
H        2.87195731      -0.01358110      -1.26022559
H        1.85877214       1.62310464       0.07202518
H       -1.09073115      -1.43707271       1.11180205
H       -0.96635250      -0.24657217      -1.69784079
H       -2.34519112      -1.09103353      -0.98220576
H       -0.83610285      -1.96239570      -1.29228753
H       -1.24386339       1.48677943       0.19902859
H       -2.51158516       0.54920034       0.99158936
H       -1.04094162       0.98883983       1.87786717
