12
Frame=0 idx=006104 GeodesicLength=0.0 rxn_smarts="[C:1]1([H:7])([H:8])[O:2][C:3]([H:9])([H:10])[C@@:4]2([H:11])[O:5][C@@:6]12[H:12]>>[C:1]1([H:7])([H:8])[O:2][C:3]([H:9])([H:10])[C:4][C@:6]1([O:5][H:11])[H:12]"
C       -1.24257204      -0.23050869       0.02325914
O       -0.83545481       1.07648509      -0.32420099
C        0.53050465       1.03661340      -0.70348868
C        1.15358579      -0.22171773      -0.20012279
O        0.67905529      -0.32584902       1.49095020
C        0.02164832      -0.96625469       0.38818644
H       -1.95867397      -0.16294600       0.84382306
H       -1.71993489      -0.74298172      -0.82372191
H        0.64052606       0.98872070      -1.79967350
H        1.02133082       1.94557622      -0.35453121
H        1.71928745      -0.34615956       1.01607485
H       -0.00930269      -2.05097801       0.44344535
12
Frame=1 idx=006104 GeodesicLength=0.036965187130813426 rxn_smarts="[C:1]1([H:7])([H:8])[O:2][C:3]([H:9])([H:10])[C@@:4]2([H:11])[O:5][C@@:6]12[H:12]>>[C:1]1([H:7])([H:8])[O:2][C:3]([H:9])([H:10])[C:4][C@:6]1([O:5][H:11])[H:12]"
C       -1.24386989      -0.22989750       0.02285152
O       -0.83694144       1.07722302      -0.32498744
C        0.52916722       1.03776948      -0.70334404
C        1.15232725      -0.21756425      -0.19509341
O        0.67788084      -0.32700362       1.49096065
C        0.02025624      -0.96561040       0.38801428
H       -1.95958255      -0.16229895       0.84375226
H       -1.72107925      -0.74195910      -0.82444576
H        0.64097806       0.98380010      -1.79932864
H        1.01829160       1.94933216      -0.35876882
H        1.73083378      -0.35325135       1.02051351
H       -0.00826185      -2.05053957       0.43987588
12
Frame=2 idx=006104 GeodesicLength=0.0739281762183143 rxn_smarts="[C:1]1([H:7])([H:8])[O:2][C:3]([H:9])([H:10])[C@@:4]2([H:11])[O:5][C@@:6]12[H:12]>>[C:1]1([H:7])([H:8])[O:2][C:3]([H:9])([H:10])[C:4][C@:6]1([O:5][H:11])[H:12]"
C       -1.24517456      -0.22927935       0.02244820
O       -0.83843503       1.07796507      -0.32578069
C        0.52782400       1.03892326      -0.70320039
C        1.15106120      -0.21336337      -0.18998333
O        0.67668788      -0.32818954       1.49101048
C        0.01886070      -0.96495420       0.38784086
H       -1.96049664      -0.16164291       0.84368614
H       -1.72222633      -0.74093445      -0.82516442
H        0.64146076       0.97883778      -1.79894209
H        1.01523019       1.95308308      -0.36305986
H        1.74239967      -0.36036912       1.02488732
H       -0.00719184      -2.05007625       0.43625777
12
Frame=3 idx=006104 GeodesicLength=0.11088649852335575 rxn_smarts="[C:1]1([H:7])([H:8])[O:2][C:3]([H:9])([H:10])[C@@:4]2([H:11])[O:5][C@@:6]12[H:12]>>[C:1]1([H:7])([H:8])[O:2][C:3]([H:9])([H:10])[C:4][C@:6]1([O:5][H:11])[H:12]"
C       -1.24648657      -0.22865508       0.02204804
O       -0.83993602       1.07871027      -0.32658242
C        0.52647539       1.04007438      -0.70305661
C        1.14978450      -0.20911796      -0.18479612
O        0.67547468      -0.32940426       1.49109913
C        0.01746106      -0.96428637       0.38766725
H       -1.96141751      -0.16097838       0.84362292
H       -1.72337563      -0.73991002      -0.82587877
H        0.64197627       0.97383942      -1.79851198
H        1.01214841       1.95682538      -0.36739854
H        1.75399018      -0.36751001       1.02918810
H       -0.00609476      -2.04958737       0.43259900
12
Frame=4 idx=006104 GeodesicLength=0.14783780143026223 rxn_smarts="[C:1]1([H:7])([H:8])[O:2][C:3]([H:9])([H:10])[C@@:4]2([H:11])[O:5][C@@:6]12[H:12]>>[C:1]1([H:7])([H:8])[O:2][C:3]([H:9])([H:10])[C:4][C@:6]1([O:5][H:11])[H:12]"
C       -1.24780650      -0.22802553       0.02164983
O       -0.84144476       1.07945760      -0.32739426
C        0.52512178       1.04122246      -0.70291156
C        1.14849401      -0.20483104      -0.17953545
O        0.67423946      -0.33064518       1.49122590
C        0.01605657      -0.96360723       0.38749448
H       -1.96234649      -0.16030585       0.84356069
H       -1.72452663      -0.73888806      -0.82658977
H        0.64252655       0.96881071      -1.79803649
H        1.00904826       1.96055535      -0.37177877
H        1.76561059      -0.37467086       1.03340763
H       -0.00497285      -2.04907236       0.42890777
12
Frame=5 idx=006104 GeodesicLength=0.18477877628749284 rxn_smarts="[C:1]1([H:7])([H:8])[O:2][C:3]([H:9])([H:10])[C@@:4]2([H:11])[O:5][C@@:6]12[H:12]>>[C:1]1([H:7])([H:8])[O:2][C:3]([H:9])([H:10])[C:4][C@:6]1([O:5][H:11])[H:12]"
C       -1.24913491      -0.22739155       0.02125239
O       -0.84296159       1.08020607      -0.32821779
C        0.52376363       1.04236704      -0.70276408
C        1.14718673      -0.20050581      -0.17420493
O        0.67298050      -0.33190981       1.49139007
C        0.01464643      -0.96291723       0.38732359
H       -1.96328489      -0.15962582       0.84349762
H       -1.72567890      -0.73787069      -0.82729840
H        0.64311359       0.96375724      -1.79751401
H        1.00593190       1.96426927      -0.37619432
H        1.77726605      -0.38184783       1.03753772
H       -0.00382854      -2.04853089       0.42519214
12
Frame=6 idx=006104 GeodesicLength=0.22170608259234006 rxn_smarts="[C:1]1([H:7])([H:8])[O:2][C:3]([H:9])([H:10])[C@@:4]2([H:11])[O:5][C@@:6]12[H:12]>>[C:1]1([H:7])([H:8])[O:2][C:3]([H:9])([H:10])[C:4][C@:6]1([O:5][H:11])[H:12]"
C       -1.25047241      -0.22675400       0.02085445
O       -0.84448679       1.08095467      -0.32905454
C        0.52240142       1.04350762      -0.70261298
C        1.14585969      -0.19614573      -0.16880836
O        0.67169610      -0.33319561       1.49159076
C        0.01322974      -0.96221692       0.38715556
H       -1.96423406      -0.15893875       0.84343179
H       -1.72683204      -0.73686001      -0.82800576
H        0.64373926       0.95868468      -1.79694299
H        1.00280160       1.96796334      -0.38063854
H        1.78896198      -0.38903645       1.04157017
H       -0.00266447      -2.04796286       0.42146043
12
Frame=7 idx=006104 GeodesicLength=0.25861417358223493 rxn_smarts="[C:1]1([H:7])([H:8])[O:2][C:3]([H:9])([H:10])[C@@:4]2([H:11])[O:5][C@@:6]12[H:12]>>[C:1]1([H:7])([H:8])[O:2][C:3]([H:9])([H:10])[C:4][C@:6]1([O:5][H:11])[H:12]"
C       -1.25181971      -0.22611377       0.02045484
O       -0.84602065       1.08170240      -0.32990596
C        0.52103580       1.04464361      -0.70245717
C        1.14451015      -0.19175466      -0.16334942
O        0.67038481      -0.33450057       1.49182722
C        0.01180549      -0.96150711       0.38699138
H       -1.96519547      -0.15824526       0.84336153
H       -1.72798584      -0.73585793      -0.82871292
H        0.64440578       0.95359880      -1.79632234
H        0.99965991       1.97163365      -0.38510468
H        1.80070349      -0.39623082       1.04549677
H       -0.00148375      -2.04736834       0.41772073
12
Frame=8 idx=006104 GeodesicLength=0.29553980882517034 rxn_smarts="[C:1]1([H:7])([H:8])[O:2][C:3]([H:9])([H:10])[C@@:4]2([H:11])[O:5][C@@:6]12[H:12]>>[C:1]1([H:7])([H:8])[O:2][C:3]([H:9])([H:10])[C:4][C@:6]1([O:5][H:11])[H:12]"
C       -1.25317734      -0.22547208       0.02005055
O       -0.84756430       1.08244757      -0.33077644
C        0.51966669       1.04577590      -0.70229393
C        1.14313292      -0.18733263      -0.15783003
O        0.66903915      -0.33581395       1.49210076
C        0.01037290      -0.96078570       0.38683559
H       -1.96617269      -0.15754553       0.84328058
H       -1.72913679      -0.73486955      -0.82942273
H        0.64511364       0.94850610      -1.79564820
H        0.99650750       1.97527795      -0.38958175
H        1.81250611      -0.40344354       1.04929606
H       -0.00028780      -2.04674456       0.41398954
12
Frame=9 idx=006104 GeodesicLength=0.33244166220526944 rxn_smarts="[C:1]1([H:7])([H:8])[O:2][C:3]([H:9])([H:10])[C@@:4]2([H:11])[O:5][C@@:6]12[H:12]>>[C:1]1([H:7])([H:8])[O:2][C:3]([H:9])([H:10])[C:4][C@:6]1([O:5][H:11])[H:12]"
C       -1.25454533      -0.22482814       0.01964320
O       -0.84911672       1.08319123      -0.33166346
C        0.51829497       1.04690303      -0.70212403
C        1.14172946      -0.18288109      -0.15224859
O        0.66766177      -0.33714452       1.49241139
C        0.00893172      -0.96005480       0.38668525
H       -1.96716398      -0.15683974       0.84319254
H       -1.73028840      -0.73389109      -0.83013342
H        0.64586449       0.94340124      -1.79492183
H        0.99334455       1.97889634      -0.39407563
H        1.82436564      -0.41065851       1.05297923
H        0.00092182      -2.04609395       0.41025535
12
Frame=10 idx=006104 GeodesicLength=0.3693331716477867 rxn_smarts="[C:1]1([H:7])([H:8])[O:2][C:3]([H:9])([H:10])[C@@:4]2([H:11])[O:5][C@@:6]12[H:12]>>[C:1]1([H:7])([H:8])[O:2][C:3]([H:9])([H:10])[C:4][C@:6]1([O:5][H:11])[H:12]"
C       -1.25592461      -0.22418184       0.01923226
O       -0.85067856       1.08393353      -0.33256745
C        0.51692064       1.04802506      -0.70194586
C        1.14029880      -0.17839750      -0.14659942
O        0.66624747      -0.33848910       1.49276360
C        0.00748119      -0.95931267       0.38654343
H       -1.96817252      -0.15612620       0.84309500
H       -1.73144023      -0.73292363      -0.83084578
H        0.64666067       0.93827959      -1.79414007
H        0.99016769       1.98249139      -0.39858747
H        1.83629159      -0.41788411       1.05653561
H        0.00214785      -2.04541452       0.40651614
12
Frame=11 idx=006104 GeodesicLength=0.40621385467764254 rxn_smarts="[C:1]1([H:7])([H:8])[O:2][C:3]([H:9])([H:10])[C@@:4]2([H:11])[O:5][C@@:6]12[H:12]>>[C:1]1([H:7])([H:8])[O:2][C:3]([H:9])([H:10])[C:4][C@:6]1([O:5][H:11])[H:12]"
C       -1.25731545      -0.22353275       0.01881769
O       -0.85225023       1.08467435      -0.33348974
C        0.51554358       1.04914205      -0.70175782
C        1.13883901      -0.17388009      -0.14088092
O        0.66479482      -0.33984514       1.49315928
C        0.00602084      -0.95855751       0.38641252
H       -1.96920098      -0.15540407       0.84298546
H       -1.73259100      -0.73196861      -0.83155960
H        0.64750140       0.93313978      -1.79330115
H        0.98697606       1.98606413      -0.40311881
H        1.84828970      -0.42512783       1.05996297
H        0.00339225      -2.04470431       0.40277013
12
Frame=12 idx=006104 GeodesicLength=0.44308681461214694 rxn_smarts="[C:1]1([H:7])([H:8])[O:2][C:3]([H:9])([H:10])[C@@:4]2([H:11])[O:5][C@@:6]12[H:12]>>[C:1]1([H:7])([H:8])[O:2][C:3]([H:9])([H:10])[C:4][C@:6]1([O:5][H:11])[H:12]"
C       -1.25871766      -0.22288031       0.01839935
O       -0.85383171       1.08541446      -0.33442997
C        0.51416433       1.05025412      -0.70155885
C        1.13734935      -0.16932653      -0.13508750
O        0.66329990      -0.34121279       1.49360200
C        0.00455058      -0.95778861       0.38629426
H       -1.97025154      -0.15467152       0.84286174
H       -1.73374097      -0.73102610      -0.83227425
H        0.64838609       0.92797653      -1.79240223
H        0.98376746       1.98961675      -0.40767404
H        1.86036651      -0.43239382       1.06325803
H        0.00465766      -2.04396218       0.39901145
12
Frame=13 idx=006104 GeodesicLength=0.47995613466495424 rxn_smarts="[C:1]1([H:7])([H:8])[O:2][C:3]([H:9])([H:10])[C@@:4]2([H:11])[O:5][C@@:6]12[H:12]>>[C:1]1([H:7])([H:8])[O:2][C:3]([H:9])([H:10])[C:4][C@:6]1([O:5][H:11])[H:12]"
C       -1.26013230      -0.22222477       0.01797736
O       -0.85542426       1.08615307      -0.33539033
C        0.51278243       1.05136131      -0.70134824
C        1.13582850      -0.16473368      -0.12921467
O        0.66175906      -0.34258866       1.49409496
C        0.00306999      -0.95700410       0.38619095
H       -1.97132628      -0.15392625       0.84272271
H       -1.73488906      -0.73009607      -0.83299086
H        0.64931799       0.92278631      -1.79144157
H        0.98053738       1.99315138      -0.41225255
H        1.87252845      -0.43969285       1.06641204
H        0.00594811      -2.04318568       0.39524020
12
Frame=14 idx=006104 GeodesicLength=0.5168277366138363 rxn_smarts="[C:1]1([H:7])([H:8])[O:2][C:3]([H:9])([H:10])[C@@:4]2([H:11])[O:5][C@@:6]12[H:12]>>[C:1]1([H:7])([H:8])[O:2][C:3]([H:9])([H:10])[C:4][C@:6]1([O:5][H:11])[H:12]"
C       -1.26156214      -0.22156551       0.01755068
O       -0.85702947       1.08689359      -0.33637163
C        0.51139847       1.05246507      -0.70112558
C        1.13427700      -0.16010021      -0.12325740
O        0.66017220      -0.34397282       1.49464343
C        0.00157864      -0.95620533       0.38610490
H       -1.97242903      -0.15316634       0.84256669
H       -1.73603843      -0.72917936      -0.83371305
H        0.65029665       0.91756535      -1.79041793
H        0.97728470       1.99667343      -0.41685742
H        1.88478585      -0.44702925       1.06942245
H        0.00726555      -2.04237864       0.39145487
12
Frame=15 idx=006104 GeodesicLength=0.5536889237371901 rxn_smarts="[C:1]1([H:7])([H:8])[O:2][C:3]([H:9])([H:10])[C@@:4]2([H:11])[O:5][C@@:6]12[H:12]>>[C:1]1([H:7])([H:8])[O:2][C:3]([H:9])([H:10])[C:4][C@:6]1([O:5][H:11])[H:12]"
C       -1.26300278      -0.22090244       0.01712060
O       -0.85864447       1.08763106      -0.33737255
C        0.51001159       1.05356216      -0.70088858
C        1.13269029      -0.15542290      -0.11721275
O        0.65852892      -0.34536518       1.49524670
C        0.00007572      -0.95538760       0.38603577
H       -1.97355652      -0.15239163       0.84239368
H       -1.73717998      -0.72827431      -0.83443649
H        0.65132504       0.91230740      -1.78932704
H        0.97400586       2.00017586      -0.42148704
H        1.89713526      -0.45440227       1.07227673
H        0.00861106      -2.04153016       0.38765098
12
Frame=16 idx=006104 GeodesicLength=0.5905441556656602 rxn_smarts="[C:1]1([H:7])([H:8])[O:2][C:3]([H:9])([H:10])[C@@:4]2([H:11])[O:5][C@@:6]12[H:12]>>[C:1]1([H:7])([H:8])[O:2][C:3]([H:9])([H:10])[C:4][C@:6]1([O:5][H:11])[H:12]"
C       -1.26445603      -0.22023695       0.01668748
O       -0.86027080       1.08836300      -0.33839293
C        0.50862122       1.05465175      -0.70063532
C        1.13106423      -0.15070053      -0.11108057
O        0.65682466      -0.34676128       1.49590559
C       -0.00144072      -0.95454933       0.38598623
H       -1.97471124      -0.15160889       0.84220398
H       -1.73831224      -0.72737895      -0.83516394
H        0.65241036       0.90701671      -1.78816392
H        0.97070460       2.00365376      -0.42614365
H        1.90958360      -0.46181159       1.07496345
H        0.00998235      -2.04063770       0.38383360
