18
Frame=0 idx=001913 GeodesicLength=0.0 rxn_smarts="[C:1]([C:2]([C@@:3]([C:4]([H:13])([H:14])[H:15])([C:5]([O:6][H:18])([H:16])[H:17])[H:12])([H:10])[H:11])([H:7])([H:8])[H:9]>>[C:1]([C:2]([C@@:3]([C:4]([H:13])([H:14])[H:15])([C:5](=[O:6])[H:16])[H:12])([H:10])[H:11])([H:7])([H:8])[H:9].[H:17][H:18]"
C       -1.71401973      -1.08452718       0.38475310
C       -0.79822678       0.05755891       0.80620100
C        0.13756905       0.57372645      -0.28469651
C        0.97297682       1.75470713       0.21710018
C        1.13884073      -0.46614496      -0.75962461
O        1.74724285      -1.24504333       0.12046632
H       -1.16195366      -2.01327802       0.22604081
H       -2.25865327      -0.84962323      -0.53393041
H       -2.45290566      -1.28883863       1.16090917
H       -1.40572610       0.90182982       1.14466340
H       -0.18935412      -0.25639120       1.65713126
H       -0.44780783       0.89772252      -1.15427481
H        1.61305489       1.44403141       1.04437856
H        1.60860529       2.16414734      -0.57079920
H        0.31881521       2.55313697       0.56975837
H        1.72416932      -0.11229418      -1.62715099
H        0.30778459      -1.31145940      -1.54081752
H        0.85958837      -1.71926036      -0.86010819
18
Frame=1 idx=001913 GeodesicLength=0.09443867963111217 rxn_smarts="[C:1]([C:2]([C@@:3]([C:4]([H:13])([H:14])[H:15])([C:5]([O:6][H:18])([H:16])[H:17])[H:12])([H:10])[H:11])([H:7])([H:8])[H:9]>>[C:1]([C:2]([C@@:3]([C:4]([H:13])([H:14])[H:15])([C:5](=[O:6])[H:16])[H:12])([H:10])[H:11])([H:7])([H:8])[H:9].[H:17][H:18]"
C       -1.71541221      -1.08090523       0.38678847
C       -0.79761695       0.05911843       0.80909968
C        0.13756444       0.57545351      -0.28220439
C        0.97045730       1.75881433       0.21820763
C        1.13590088      -0.46455537      -0.76106275
O        1.73975108      -1.24783208       0.11724630
H       -1.16361570      -2.00972474       0.22824291
H       -2.25947910      -0.84483910      -0.53189508
H       -2.45477551      -1.28490295       1.16262530
H       -1.40398153       0.90342464       1.14972418
H       -0.18882947      -0.25658440       1.65951904
H       -0.44910777       0.89842557      -1.15138144
H        1.61077385       1.45057300       1.04626901
H        1.60594976       2.16811370      -0.56991241
H        0.31546094       2.55754917       0.56869762
H        1.73125681      -0.10413465      -1.61921027
H        0.31410823      -1.32746438      -1.55587002
H        0.87159496      -1.75052945      -0.87488379
18
Frame=2 idx=001913 GeodesicLength=0.18872767507498933 rxn_smarts="[C:1]([C:2]([C@@:3]([C:4]([H:13])([H:14])[H:15])([C:5]([O:6][H:18])([H:16])[H:17])[H:12])([H:10])[H:11])([H:7])([H:8])[H:9]>>[C:1]([C:2]([C@@:3]([C:4]([H:13])([H:14])[H:15])([C:5](=[O:6])[H:16])[H:12])([H:10])[H:11])([H:7])([H:8])[H:9].[H:17][H:18]"
C       -1.71678326      -1.07719215       0.38878264
C       -0.79705602       0.06079599       0.81202951
C        0.13745781       0.57740436      -0.27968077
C        0.96793550       1.76302999       0.21940310
C        1.13277504      -0.46271334      -0.76265927
O        1.73190432      -1.25074412       0.11360235
H       -1.16523834      -2.00605695       0.23032038
H       -2.26027348      -0.83995030      -0.52990262
H       -2.45662405      -1.28095173       1.16427954
H       -1.40229672       0.90509680       1.15487535
H       -0.18829800      -0.25672295       1.66187188
H       -0.45054075       0.89938251      -1.14842111
H        1.60852973       1.45709788       1.04816428
H        1.60325352       2.17223526      -0.56894683
H        0.31216461       2.56205277       0.56786518
H        1.73798033      -0.09601430      -1.61139734
H        0.32086652      -1.34414117      -1.57067976
H        0.88424325      -1.78260855      -0.88950649
18
Frame=3 idx=001913 GeodesicLength=0.28293281641541146 rxn_smarts="[C:1]([C:2]([C@@:3]([C:4]([H:13])([H:14])[H:15])([C:5]([O:6][H:18])([H:16])[H:17])[H:12])([H:10])[H:11])([H:7])([H:8])[H:9]>>[C:1]([C:2]([C@@:3]([C:4]([H:13])([H:14])[H:15])([C:5](=[O:6])[H:16])[H:12])([H:10])[H:11])([H:7])([H:8])[H:9].[H:17][H:18]"
C       -1.71813899      -1.07337823       0.39072668
C       -0.79654093       0.06259099       0.81498828
C        0.13724207       0.57959378      -0.27712871
C        0.96540970       1.76736239       0.22069431
C        1.12945549      -0.46058785      -0.76443696
O        1.72369240      -1.25377586       0.10947962
H       -1.16683493      -2.00226792       0.23225930
H       -2.26103974      -0.83493988      -0.52796118
H       -2.45845748      -1.27697554       1.16586258
H       -1.40066251       0.90684131       1.16013423
H       -0.18774838      -0.25682251       1.66417531
H       -0.45212108       0.90062163      -1.14538651
H        1.60632633       1.46360338       1.05006508
H        1.60050972       2.17653041      -0.56789292
H        0.30892743       2.56665312       0.56728365
H        1.74432356      -0.08790382      -1.60375376
H        0.32810961      -1.36154905      -1.58520270
H        0.89754774      -1.81559637      -0.90390629
18
Frame=4 idx=001913 GeodesicLength=0.37713437140224493 rxn_smarts="[C:1]([C:2]([C@@:3]([C:4]([H:13])([H:14])[H:15])([C:5]([O:6][H:18])([H:16])[H:17])[H:12])([H:10])[H:11])([H:7])([H:8])[H:9]>>[C:1]([C:2]([C@@:3]([C:4]([H:13])([H:14])[H:15])([C:5](=[O:6])[H:16])[H:12])([H:10])[H:11])([H:7])([H:8])[H:9].[H:17][H:18]"
C       -1.71948513      -1.06945268       0.39260989
C       -0.79606690       0.06450197       0.81797317
C        0.13690992       0.58203868      -0.27455190
C        0.96287774       1.77182136       0.22209014
C        1.12593463      -0.45814280      -0.76642226
O        1.71510538      -1.25692183       0.10481511
H       -1.16842020      -1.99835015       0.23404316
H       -2.26178122      -0.82978855      -0.52608065
H       -2.46028263      -1.27296348       1.16736289
H       -1.39906698       0.90865154       1.16552123
H       -0.18716615      -0.25690209       1.66641201
H       -0.45386445       0.90217446      -1.14226980
H        1.60416803       1.47008703       1.05197216
H        1.59770919       2.18102177      -0.56673956
H        0.30575002       2.57135618       0.56697977
H        1.75026838      -0.07976755      -1.59632534
H        0.33589582      -1.37975496      -1.59938982
H        0.91151454      -1.84960890      -0.91800020
18
Frame=5 idx=001913 GeodesicLength=0.47136255282328243 rxn_smarts="[C:1]([C:2]([C@@:3]([C:4]([H:13])([H:14])[H:15])([C:5]([O:6][H:18])([H:16])[H:17])[H:12])([H:10])[H:11])([H:7])([H:8])[H:9]>>[C:1]([C:2]([C@@:3]([C:4]([H:13])([H:14])[H:15])([C:5](=[O:6])[H:16])[H:12])([H:10])[H:11])([H:7])([H:8])[H:9].[H:17][H:18]"
C       -1.72082840      -1.06540490       0.39442056
C       -0.79562960       0.06652716       0.82098212
C        0.13645215       0.58475699      -0.27195379
C        0.96033824       1.77641602       0.22359945
C        1.12219917      -0.45534439      -0.76864487
O        1.70613380      -1.26017280       0.09954286
H       -1.17000842      -1.99429570       0.23565169
H       -2.26250237      -0.82447610      -0.52427139
H       -2.46210624      -1.26890680       1.16876791
H       -1.39749843       0.91052015       1.17105904
H       -0.18653613      -0.25698252       1.66856434
H       -0.45578964       0.90407612      -1.13906131
H        1.60206085       1.47654425       1.05388462
H        1.59484411       2.18573019      -0.56547664
H        0.30263531       2.57616722       0.56698109
H        1.75579246      -0.07157262      -1.58915866
H        0.34429088      -1.39882275      -1.61318914
H        0.92615224      -1.88475951      -0.93169787
18
Frame=6 idx=001913 GeodesicLength=0.5656773009644006 rxn_smarts="[C:1]([C:2]([C@@:3]([C:4]([H:13])([H:14])[H:15])([C:5]([O:6][H:18])([H:16])[H:17])[H:12])([H:10])[H:11])([H:7])([H:8])[H:9]>>[C:1]([C:2]([C@@:3]([C:4]([H:13])([H:14])[H:15])([C:5](=[O:6])[H:16])[H:12])([H:10])[H:11])([H:7])([H:8])[H:9].[H:17][H:18]"
C       -1.72217544      -1.06122198       0.39614381
C       -0.79522294       0.06866354       0.82401080
C        0.13585876       0.58777007      -0.26933982
C        0.95778948       1.78115686       0.22523347
C        1.11823409      -0.45215098      -0.77114223
O        1.69676718      -1.26351858       0.09358024
H       -1.17161632      -1.99009526       0.23706102
H       -2.26320721      -0.81897817      -0.52254627
H       -2.46393523      -1.26479397       1.17006202
H       -1.39594150       0.91243652       1.17677330
H       -0.18583954      -0.25708961       1.67060802
H       -0.45791802       0.90636823      -1.13575067
H        1.60001286       1.48296768       1.05580081
H        1.59190320       2.19068318      -0.56409108
H        0.29958649       2.58109118       0.56732404
H        1.76087072      -0.06326936      -1.58230996
H        0.35336996      -1.41883366      -1.62653997
H        0.94146346      -1.92118570      -0.94487753
18
Frame=7 idx=001913 GeodesicLength=0.6600824429810441 rxn_smarts="[C:1]([C:2]([C@@:3]([C:4]([H:13])([H:14])[H:15])([C:5]([O:6][H:18])([H:16])[H:17])[H:12])([H:10])[H:11])([H:7])([H:8])[H:9]>>[C:1]([C:2]([C@@:3]([C:4]([H:13])([H:14])[H:15])([C:5](=[O:6])[H:16])[H:12])([H:10])[H:11])([H:7])([H:8])[H:9].[H:17][H:18]"
C       -1.72353417      -1.05689093       0.39776367
C       -0.79484042       0.07090661       0.82705456
C        0.13511848       0.59109929      -0.26671592
C        0.95523012       1.78605315       0.22700274
C        1.11401947      -0.44852251      -0.77395590
O        1.68699680      -1.26694411       0.08683974
H       -1.17326135      -1.98573934       0.23824206
H       -2.26390251      -0.81326708      -0.52091722
H       -2.46577676      -1.26061563       1.17122955
H       -1.39437850       0.91438728       1.18269260
H       -0.18505559      -0.25725331       1.67251637
H       -0.46027358       0.90909448      -1.13232646
H        1.59803329       1.48934757       1.05771725
H        1.58887511       2.19590637      -0.56257057
H        0.29660805       2.58613162       0.56804605
H        1.76547433      -0.05481209      -1.57583536
H        0.36321984      -1.43986376      -1.63937936
H        0.95744739      -1.95901762      -0.95740380
18
Frame=8 idx=001913 GeodesicLength=0.7546064027113096 rxn_smarts="[C:1]([C:2]([C@@:3]([C:4]([H:13])([H:14])[H:15])([C:5]([O:6][H:18])([H:16])[H:17])[H:12])([H:10])[H:11])([H:7])([H:8])[H:9]>>[C:1]([C:2]([C@@:3]([C:4]([H:13])([H:14])[H:15])([C:5](=[O:6])[H:16])[H:12])([H:10])[H:11])([H:7])([H:8])[H:9].[H:17][H:18]"
C       -1.72491202      -1.05239827       0.39926120
C       -0.79447346       0.07325101       0.83010864
C        0.13421936       0.59476886      -0.26408837
C        0.95265896       1.79111544       0.22892029
C        1.10953286      -0.44441401      -0.77713313
O        1.67681486      -1.27042937       0.07922418
H       -1.17496072      -1.98121757       0.23916121
H       -2.26459457      -0.80731387      -0.51939950
H       -2.46763684      -1.25636282       1.17225126
H       -1.39278961       0.91635765       1.18884867
H       -0.18416015      -0.25750659       1.67425975
H       -0.46288295       0.91230446      -1.12877469
H        1.59613351       1.49567341       1.05963020
H        1.58574695       2.20143005      -0.56090108
H        0.29370573       2.59129231       0.56919075
H        1.76957124      -0.04614356      -1.56979923
H        0.37393822      -1.46199931      -1.65163863
H        0.97408864      -1.99840781      -0.96912151
18
Frame=9 idx=001913 GeodesicLength=0.8492395956025633 rxn_smarts="[C:1]([C:2]([C@@:3]([C:4]([H:13])([H:14])[H:15])([C:5]([O:6][H:18])([H:16])[H:17])[H:12])([H:10])[H:11])([H:7])([H:8])[H:9]>>[C:1]([C:2]([C@@:3]([C:4]([H:13])([H:14])[H:15])([C:5](=[O:6])[H:16])[H:12])([H:10])[H:11])([H:7])([H:8])[H:9].[H:17][H:18]"
C       -1.72631583      -1.04773182       0.40061616
C       -0.79411410       0.07569062       0.83317063
C        0.13314812       0.59880347      -0.26146190
C        0.95007670       1.79635355       0.23099787
C        1.10474472      -0.43978503      -0.78072372
O        1.66621407      -1.27394751       0.07063870
H       -1.17672971      -1.97651899       0.23977716
H       -2.26529114      -0.80108827      -0.51800792
H       -2.46951973      -1.25203206       1.17310652
H       -1.39115642       0.91833167       1.19527583
H       -0.18312831      -0.25788465       1.67581050
H       -0.46577538       0.91605119      -1.12507972
H        1.59432663       1.50193229       1.06153489
H        1.58250859       2.20728133      -0.55907216
H        0.29088747       2.59657779       0.57080181
H        1.77312221      -0.03722198      -1.56426365
H        0.38562006      -1.48531263      -1.66325214
H        0.99138205      -2.03949897      -0.97986885
18
Frame=10 idx=001913 GeodesicLength=0.9439459702227978 rxn_smarts="[C:1]([C:2]([C@@:3]([C:4]([H:13])([H:14])[H:15])([C:5]([O:6][H:18])([H:16])[H:17])[H:12])([H:10])[H:11])([H:7])([H:8])[H:9]>>[C:1]([C:2]([C@@:3]([C:4]([H:13])([H:14])[H:15])([C:5](=[O:6])[H:16])[H:12])([H:10])[H:11])([H:7])([H:8])[H:9].[H:17][H:18]"
C       -1.72775653      -1.04287627       0.40180501
C       -0.79375227       0.07821442       0.83623080
C        0.13189002       0.60322758      -0.25884695
C        0.94748401       1.80177297       0.23324918
C        1.09961974      -0.43458971      -0.78479196
O        1.65518960      -1.27746933       0.06096217
H       -1.17859184      -1.97163100       0.24004262
H       -2.26600529      -0.79455145      -0.51675704
H       -2.47143065      -1.24761519       1.17377524
H       -1.38945056       0.92028510       1.20201154
H       -0.18193099      -0.25843355       1.67712552
H       -0.46898478       0.92039329      -1.12122334
H        1.59262941       1.50810128       1.06342231
H        1.57914560       2.21348893      -0.55706707
H        0.28816488       2.60198425       0.57293305
H        1.77607918      -0.02797376      -1.55930831
H        0.39839157      -1.50989733      -1.67414795
H        1.00930889      -2.08243025      -0.98941481
18
Frame=11 idx=001913 GeodesicLength=1.0386894583753121 rxn_smarts="[C:1]([C:2]([C@@:3]([C:4]([H:13])([H:14])[H:15])([C:5]([O:6][H:18])([H:16])[H:17])[H:12])([H:10])[H:11])([H:7])([H:8])[H:9]>>[C:1]([C:2]([C@@:3]([C:4]([H:13])([H:14])[H:15])([C:5](=[O:6])[H:16])[H:12])([H:10])[H:11])([H:7])([H:8])[H:9].[H:17][H:18]"
C       -1.72924392      -1.03781823       0.40280246
C       -0.79337652       0.08080946       0.83928134
C        0.13042934       0.60806637      -0.25625327
C        0.94488312       1.80737815       0.23568740
C        1.09411564      -0.42878465      -0.78940750
O        1.64373855      -1.28095779       0.05007252
H       -1.18056857      -1.96654097       0.23990298
H       -2.26675065      -0.78766450      -0.51566209
H       -2.47337375      -1.24310905       1.17423478
H       -1.38764350       0.92219114       1.20909630
H       -0.18053598      -0.25920286       1.67816208
H       -0.47254789       0.92539275      -1.11718569
H        1.59106211       1.51415447       1.06528073
H        1.57564394       2.22008098      -0.55487236
H        0.28555152       2.60750774       0.57564117
H        1.77839657      -0.01832948      -1.55501101
H        0.41237676      -1.53583896      -1.68425879
H        1.02784321      -2.12733457      -0.99751104
18
Frame=12 idx=001913 GeodesicLength=1.1334318773768073 rxn_smarts="[C:1]([C:2]([C@@:3]([C:4]([H:13])([H:14])[H:15])([C:5]([O:6][H:18])([H:16])[H:17])[H:12])([H:10])[H:11])([H:7])([H:8])[H:9]>>[C:1]([C:2]([C@@:3]([C:4]([H:13])([H:14])[H:15])([C:5](=[O:6])[H:16])[H:12])([H:10])[H:11])([H:7])([H:8])[H:9].[H:17][H:18]"
C       -1.73078852      -1.03254459       0.40357929
C       -0.79297338       0.08345989       0.84231281
C        0.12874955       0.61334524      -0.25369181
C        0.94227777       1.81317170       0.23832660
C        1.08818444      -0.42232435      -0.79464816
O        1.63186049      -1.28436906       0.03783668
H       -1.18268115      -1.96123605       0.23929328
H       -2.26754398      -0.78038410      -0.51473933
H       -2.47535079      -1.23851542       1.17446023
H       -1.38570184       0.92401820       1.21657371
H       -0.17890737      -0.26024872       1.67887115
H       -0.47650470       0.93111621      -1.11294369
H        1.58964823       1.52006093       1.06709637
H        1.57198924       2.22708531      -0.55247333
H        0.28306539       2.61314078       0.57898840
H        1.78001394      -0.00821707      -1.55146085
H        0.42772123      -1.56322150      -1.69351309
H        1.04694144      -2.17433739      -1.00386826
18
Frame=13 idx=001913 GeodesicLength=1.22812384190869 rxn_smarts="[C:1]([C:2]([C@@:3]([C:4]([H:13])([H:14])[H:15])([C:5]([O:6][H:18])([H:16])[H:17])[H:12])([H:10])[H:11])([H:7])([H:8])[H:9]>>[C:1]([C:2]([C@@:3]([C:4]([H:13])([H:14])[H:15])([C:5](=[O:6])[H:16])[H:12])([H:10])[H:11])([H:7])([H:8])[H:9].[H:17][H:18]"
C       -1.73240216      -1.02704418       0.40410746
C       -0.79253043       0.08614671       0.84531634
C        0.12683460       0.61908447      -0.25117247
C        0.93967492       1.81914972       0.24117902
C        1.08177057      -0.41517412      -0.80059190
O        1.61955771      -1.28765291       0.02413116
H       -1.18495241      -1.95570265       0.23814152
H       -2.26840730      -0.77266564      -0.51400026
H       -2.47736135      -1.23384062       1.17442988
H       -1.38359263       0.92573201       1.22448663
H       -0.17701130      -0.26162968       1.67920441
H       -0.48089565       0.93762843      -1.10847168
H        1.58841332       1.52578352       1.06885364
H        1.56817269       2.23452001      -0.54985918
H        0.28072820       2.61887163       0.58303339
H        1.78086324       0.00242689      -1.54874724
H        0.44456285      -1.59210983      -1.70186198
H        1.06657514      -2.22352376      -1.00817872
18
Frame=14 idx=001913 GeodesicLength=1.322712792739126 rxn_smarts="[C:1]([C:2]([C@@:3]([C:4]([H:13])([H:14])[H:15])([C:5]([O:6][H:18])([H:16])[H:17])[H:12])([H:10])[H:11])([H:7])([H:8])[H:9]>>[C:1]([C:2]([C@@:3]([C:4]([H:13])([H:14])[H:15])([C:5](=[O:6])[H:16])[H:12])([H:10])[H:11])([H:7])([H:8])[H:9].[H:17][H:18]"
C       -1.73409952      -1.02130665       0.40435538
C       -0.79203397       0.08884560       0.84827910
C        0.12466525       0.62530289      -0.24870931
C        0.93708463       1.82530083       0.24425561
C        1.07480427      -0.40730163      -0.80733176
O        1.60683577      -1.29075175       0.00881794
H       -1.18740908      -1.94992656       0.23636259
H       -2.26937040      -0.76445864      -0.51345483
H       -2.47940323      -1.22909664       1.17412206
H       -1.38127590       0.92728957       1.23288018
H       -0.17481034      -0.26341430       1.67910226
H       -0.48576742       0.94499902      -1.10374010
H        1.58739030       1.53127102       1.07052887
H        1.56418400       2.24239824      -0.54702000
H        0.27857081       2.62467931       0.58784332
H        1.78086811       0.01367228      -1.54697003
H        0.46306079      -1.62255844      -1.70925726
H        1.08670591      -2.27494414      -1.01006403
18
Frame=15 idx=001913 GeodesicLength=1.4171742428031675 rxn_smarts="[C:1]([C:2]([C@@:3]([C:4]([H:13])([H:14])[H:15])([C:5]([O:6][H:18])([H:16])[H:17])[H:12])([H:10])[H:11])([H:7])([H:8])[H:9]>>[C:1]([C:2]([C@@:3]([C:4]([H:13])([H:14])[H:15])([C:5](=[O:6])[H:16])[H:12])([H:10])[H:11])([H:7])([H:8])[H:9].[H:17][H:18]"
C       -1.73589580      -1.01532529       0.40429399
C       -0.79147004       0.09152877       0.85118924
C        0.12222637       0.63201019      -0.24631419
C        0.93452001       1.83160692       0.24756458
C        1.06721589      -0.39868638      -0.81495328
O        1.59370306      -1.29360547      -0.00822110
H       -1.19007710      -1.94389496       0.23386787
H       -2.27046753      -0.75571390      -0.51310714
H       -2.48147143      -1.22430163       1.17351955
H       -1.37871174       0.92864652       1.24179547
H       -0.17227017      -0.26567054       1.67850884
H       -0.49116153       0.95328738      -1.09871853
H        1.58661258       1.53646919       1.07209800
H        1.56001910       2.25072145      -0.54394945
H        0.27662665       2.63053737       0.59347662
H        1.77994697       0.02557611      -1.54622469
H        0.48335500      -1.65459749      -1.71568741
H        1.10729970      -2.32858825      -1.00913837
18
Frame=16 idx=001913 GeodesicLength=1.5115030719728015 rxn_smarts="[C:1]([C:2]([C@@:3]([C:4]([H:13])([H:14])[H:15])([C:5]([O:6][H:18])([H:16])[H:17])[H:12])([H:10])[H:11])([H:7])([H:8])[H:9]>>[C:1]([C:2]([C@@:3]([C:4]([H:13])([H:14])[H:15])([C:5](=[O:6])[H:16])[H:12])([H:10])[H:11])([H:7])([H:8])[H:9].[H:17][H:18]"
C       -1.73780902      -1.00909662       0.40389491
C       -0.79082527       0.09416368       0.85403381
C        0.11950277       0.63920804      -0.24400073
C        0.93199837       1.83803933       0.25111030
C        1.05892585      -0.38932074      -0.82354493
O        1.58017240      -1.29615010      -0.02709417
H       -1.19298548      -1.93759496       0.23056001
H       -2.27174172      -0.74638030      -0.51295509
H       -2.48355877      -1.21948115       1.17260927
H       -1.37585788       0.92975372       1.25127138
H       -0.16935800      -0.26847143       1.67736568
H       -0.49711990       0.96254744      -1.09337488
H        1.58611829       1.54131182       1.07353153
H        1.55567741       2.25947825      -0.54064660
H        0.27493681       2.63641053       0.59998928
H        1.77801387       0.03818604      -1.54660969
H        0.50558564      -1.68822246      -1.72116126
H        1.12832463      -2.38438108      -1.00497882
