13
Frame=0 idx=005533 GeodesicLength=0.0 rxn_smarts="[O:1]=[C:2]([C:3]([C@@:4]1([H:10])[C:5]([H:11])([H:12])[N:6]1[H:13])([H:8])[H:9])[H:7]>>[C:3](=[C:4]1[C:5]([H:11])([H:12])[N:6]1[H:13])([H:8])[H:9].[O:1]=[C:2]([H:7])[H:10]"
O        1.37153164       1.95257328       0.06242597
C        1.17707399       0.82901019       0.55077937
C        1.11227003      -0.48950846      -0.53811357
C       -0.24569666      -0.41338902      -0.20560837
C       -1.57859466       0.05472439      -0.53741834
N       -1.29786060      -1.16462345       0.26107154
H        1.76059907       0.36507570       1.36506605
H        1.64716088      -1.37348270      -0.20951623
H        1.41960051      -0.08268212      -1.49270355
H        0.08306437       0.65389910       1.05375406
H       -1.99449508      -0.13644970      -1.51899840
H       -1.93054119       0.94957555      -0.03659673
H       -1.52411225      -1.14472273       1.24585821
13
Frame=1 idx=005533 GeodesicLength=0.09875010044652849 rxn_smarts="[O:1]=[C:2]([C:3]([C@@:4]1([H:10])[C:5]([H:11])([H:12])[N:6]1[H:13])([H:8])[H:9])[H:7]>>[C:3](=[C:4]1[C:5]([H:11])([H:12])[N:6]1[H:13])([H:8])[H:9].[O:1]=[C:2]([H:7])[H:10]"
O        1.33740525       1.97038783       0.07945391
C        1.19432709       0.83943796       0.56211456
C        1.10544974      -0.49429295      -0.53741757
C       -0.24913664      -0.41808176      -0.19211192
C       -1.57640955       0.05243597      -0.54522183
N       -1.31223316      -1.16744320       0.25704853
H        1.82544137       0.38874856       1.34792306
H        1.64023723      -1.37948399      -0.21074912
H        1.40196285      -0.09746460      -1.49977510
H        0.09424133       0.62812839       1.08396996
H       -1.97812399      -0.13664054      -1.53315840
H       -1.93383972       0.94903555      -0.05141567
H       -1.54932180      -1.13476721       1.23933958
13
Frame=2 idx=005533 GeodesicLength=0.1974208380575514 rxn_smarts="[O:1]=[C:2]([C:3]([C@@:4]1([H:10])[C:5]([H:11])([H:12])[N:6]1[H:13])([H:8])[H:9])[H:7]>>[C:3](=[C:4]1[C:5]([H:11])([H:12])[N:6]1[H:13])([H:8])[H:9].[O:1]=[C:2]([H:7])[H:10]"
O        1.30209774       1.98743115       0.09951477
C        1.21157066       0.85010855       0.57351039
C        1.09841664      -0.49930085      -0.53637555
C       -0.25288394      -0.42291303      -0.17886114
C       -1.57414342       0.05024955      -0.55320035
N       -1.32685862      -1.16993901       0.25289604
H        1.89096836       0.41444785       1.32697728
H        1.63307472      -1.38546649      -0.21094579
H        1.38443516      -0.11295745      -1.50631044
H        0.10630036       0.60073859       1.11420979
H       -1.96176402      -0.13694527      -1.54716479
H       -1.93666524       0.94881771      -0.06669948
H       -1.57454841      -1.12427131       1.23244928
13
Frame=3 idx=005533 GeodesicLength=0.29598325473061754 rxn_smarts="[O:1]=[C:2]([C:3]([C@@:4]1([H:10])[C:5]([H:11])([H:12])[N:6]1[H:13])([H:8])[H:9])[H:7]>>[C:3](=[C:4]1[C:5]([H:11])([H:12])[N:6]1[H:13])([H:8])[H:9].[O:1]=[C:2]([H:7])[H:10]"
O        1.26590864       2.00352681       0.12294865
C        1.22882886       0.86097787       0.58508180
C        1.09117711      -0.50450479      -0.53499671
C       -0.25694787      -0.42783932      -0.16588084
C       -1.57182329       0.04812122      -0.56138314
N       -1.34171759      -1.17206437       0.24867904
H        1.95688618       0.44226941       1.30197510
H        1.62567770      -1.39141262      -0.21014235
H        1.36704538      -0.12911850      -1.51230259
H        0.11921324       0.57176772       1.14433515
H       -1.94545617      -0.13750931      -1.56102941
H       -1.93907176       0.94889281      -0.08253948
H       -1.59972042      -1.11310694       1.22525478
13
Frame=4 idx=005533 GeodesicLength=0.39453946248813815 rxn_smarts="[O:1]=[C:2]([C:3]([C@@:4]1([H:10])[C:5]([H:11])([H:12])[N:6]1[H:13])([H:8])[H:9])[H:7]>>[C:3](=[C:4]1[C:5]([H:11])([H:12])[N:6]1[H:13])([H:8])[H:9].[O:1]=[C:2]([H:7])[H:10]"
O        1.22914516       2.01855612       0.15011550
C        1.24615035       0.87201544       0.59698597
C        1.08374247      -0.50989901      -0.53330814
C       -0.26133131      -0.43282734      -0.15318601
C       -1.56948656       0.04600982      -0.56982508
N       -1.35678242      -1.17379892       0.24447685
H        2.02290124       0.47232070       1.27269961
H        1.61807524      -1.39736312      -0.20839842
H        1.34979465      -0.14591924      -1.51779718
H        0.13295012       0.54127456       1.17426011
H       -1.92925722      -0.13849227      -1.57482432
H       -1.94113208       0.94927215      -0.09905657
H       -1.62476963      -1.10114889       1.21785768
13
Frame=5 idx=005533 GeodesicLength=0.4928155218375455 rxn_smarts="[O:1]=[C:2]([C:3]([C@@:4]1([H:10])[C:5]([H:11])([H:12])[N:6]1[H:13])([H:8])[H:9])[H:7]>>[C:3](=[C:4]1[C:5]([H:11])([H:12])[N:6]1[H:13])([H:8])[H:9].[O:1]=[C:2]([H:7])[H:10]"
O        1.19207323       2.03220366       0.18116977
C        1.26355180       0.88312501       0.60927739
C        1.07612724      -0.51544849      -0.53127084
C       -0.26603407      -0.43781972      -0.14079353
C       -1.56710053       0.04391364      -0.57849274
N       -1.37206170      -1.17506884       0.24028702
H        2.08855202       0.50484734       1.23882147
H        1.61023111      -1.40321981      -0.20566684
H        1.33278258      -0.16336554      -1.52270335
H        0.14745575       0.50920927       1.20383933
H       -1.91311369      -0.13988440      -1.58846985
H       -1.94281084       0.94987636      -0.11622093
H       -1.64965291      -1.08836847       1.21022312
13
Frame=6 idx=005533 GeodesicLength=0.5910272315189413 rxn_smarts="[O:1]=[C:2]([C:3]([C@@:4]1([H:10])[C:5]([H:11])([H:12])[N:6]1[H:13])([H:8])[H:9])[H:7]>>[C:3](=[C:4]1[C:5]([H:11])([H:12])[N:6]1[H:13])([H:8])[H:9].[O:1]=[C:2]([H:7])[H:10]"
O        1.15515968       2.04440127       0.21654100
C        1.28115444       0.89427966       0.62217554
C        1.06834620      -0.52114077      -0.52894245
C       -0.27104785      -0.44276497      -0.12870103
C       -1.56472599       0.04176174      -0.58747631
N       -1.38749934      -1.17586726       0.23622550
H        2.15344204       0.53990878       1.20019388
H        1.60219919      -1.40905956      -0.20207484
H        1.31595904      -0.18140241      -1.52712068
H        0.16266912       0.47571050       1.23300535
H       -1.89712795      -0.14194892      -1.60208247
H       -1.94423624       0.95072173      -0.13423406
H       -1.67429234      -1.07459979       1.20249056
13
Frame=7 idx=005533 GeodesicLength=0.689070111702393 rxn_smarts="[O:1]=[C:2]([C:3]([C@@:4]1([H:10])[C:5]([H:11])([H:12])[N:6]1[H:13])([H:8])[H:9])[H:7]>>[C:3](=[C:4]1[C:5]([H:11])([H:12])[N:6]1[H:13])([H:8])[H:9].[O:1]=[C:2]([H:7])[H:10]"
O        1.11875285       2.05489778       0.25645355
C        1.29904880       0.90539371       0.63579515
C        1.06041421      -0.52695188      -0.52631766
C       -0.27635934      -0.44760739      -0.11690176
C       -1.56234144       0.03953339      -0.59678150
N       -1.40308547      -1.17613991       0.23232858
H        2.21701712       0.57774248       1.15655453
H        1.59396994      -1.41484733      -0.19764265
H        1.29935968      -0.20002773      -1.53102641
H        0.17854263       0.44076248       1.26167024
H       -1.88127211      -0.14475867      -1.61564744
H       -1.94539268       0.95176693      -0.15315363
H       -1.69865418      -1.05976385       1.19466898
13
Frame=8 idx=005533 GeodesicLength=0.7869274517758825 rxn_smarts="[O:1]=[C:2]([C:3]([C@@:4]1([H:10])[C:5]([H:11])([H:12])[N:6]1[H:13])([H:8])[H:9])[H:7]>>[C:3](=[C:4]1[C:5]([H:11])([H:12])[N:6]1[H:13])([H:8])[H:9].[O:1]=[C:2]([H:7])[H:10]"
O        1.08323459       2.06346842       0.30110425
C        1.31735851       0.91639257       0.65025441
C        1.05235631      -0.53288240      -0.52341696
C       -0.28194151      -0.45229376      -0.10539395
C       -1.55993149       0.03722071      -0.60642510
N       -1.41878556      -1.17584580       0.22863444
H        2.27860028       0.61859483       1.10776086
H        1.58555920      -1.42059868      -0.19241534
H        1.28300224      -0.21927291      -1.53445188
H        0.19503934       0.40438065       1.28977222
H       -1.86554522      -0.14838044      -1.62918336
H       -1.94627683       0.95300628      -0.17303125
H       -1.72266986      -1.04378947       1.18679167
13
Frame=9 idx=005533 GeodesicLength=0.8845911178863346 rxn_smarts="[O:1]=[C:2]([C:3]([C@@:4]1([H:10])[C:5]([H:11])([H:12])[N:6]1[H:13])([H:8])[H:9])[H:7]>>[C:3](=[C:4]1[C:5]([H:11])([H:12])[N:6]1[H:13])([H:8])[H:9].[O:1]=[C:2]([H:7])[H:10]"
O        1.04908874       2.06988476       0.35067653
C        1.33625685       0.92720114       0.66563605
C        1.04420195      -0.53890322      -0.52027490
C       -0.28776306      -0.45675121      -0.09416670
C       -1.55748089       0.03479284      -0.61641681
N       -1.43456754      -1.17493403       0.22521092
H        2.33740152       0.66266935       1.05376548
H        1.57697914      -1.42630379      -0.18647558
H        1.26689889      -0.23913423      -1.53743268
H        0.21211110       0.36658082       1.31721241
H       -1.84994006      -0.15292764      -1.64267435
H       -1.94688933       0.95440057      -0.19395443
H       -1.74629732      -1.02657535       1.17889406
13
Frame=10 idx=005533 GeodesicLength=0.9821149241787946 rxn_smarts="[O:1]=[C:2]([C:3]([C@@:4]1([H:10])[C:5]([H:11])([H:12])[N:6]1[H:13])([H:8])[H:9])[H:7]>>[C:3](=[C:4]1[C:5]([H:11])([H:12])[N:6]1[H:13])([H:8])[H:9].[O:1]=[C:2]([H:7])[H:10]"
O        1.01675473       2.07392116       0.40526025
C        1.35593894       0.93776529       0.68198735
C        1.03598618      -0.54502982      -0.51693804
C       -0.29377963      -0.46092613      -0.08322255
C       -1.55497181       0.03225460      -0.62676616
N       -1.45039301      -1.17336609       0.22209588
H        2.39251261       0.71023504       0.99467733
H        1.56825449      -1.43200667      -0.17989401
H        1.25104834      -0.25968131      -1.54003315
H        0.22977389       0.32736929       1.34392337
H       -1.83447755      -0.15844546      -1.65612883
H       -1.94719754       0.95596592      -0.21596600
H       -1.76944966      -1.00805582       1.17100457
13
Frame=11 idx=005533 GeodesicLength=1.079448446345653 rxn_smarts="[O:1]=[C:2]([C:3]([C@@:4]1([H:10])[C:5]([H:11])([H:12])[N:6]1[H:13])([H:8])[H:9])[H:7]>>[C:3](=[C:4]1[C:5]([H:11])([H:12])[N:6]1[H:13])([H:8])[H:9].[O:1]=[C:2]([H:7])[H:10]"
O        0.98668167       2.07527982       0.46483270
C        1.37658724       0.94801807       0.69927591
C        1.02774341      -0.55127244      -0.51348057
C       -0.29992725      -0.46474767      -0.07257110
C       -1.55235259       0.02961770      -0.63745769
N       -1.46618775      -1.17106276       0.21933449
H        2.44284837       0.76152934       0.93080633
H        1.55939619      -1.43772154      -0.17277597
H        1.23544509      -0.28100979      -1.54234236
H        0.24804092       0.28676489       1.36980687
H       -1.81914169      -0.16496048      -1.66951767
H       -1.94713149       0.95769782      -0.23906909
H       -1.79200213      -0.98813296       1.16315815
13
Frame=12 idx=005533 GeodesicLength=1.176534084814284 rxn_smarts="[O:1]=[C:2]([C:3]([C@@:4]1([H:10])[C:5]([H:11])([H:12])[N:6]1[H:13])([H:8])[H:9])[H:7]>>[C:3](=[C:4]1[C:5]([H:11])([H:12])[N:6]1[H:13])([H:8])[H:9].[O:1]=[C:2]([H:7])[H:10]"
O        0.95932655       2.07364241       0.52926376
C        1.39838636       0.95790592       0.71741139
C        1.01951241      -0.55764460      -0.51000912
C       -0.30612750      -0.46812928      -0.06223032
C       -1.54957070       0.02689665      -0.64847534
N       -1.48185177      -1.16791548       0.21697623
H        2.48724695       0.81672228       0.86270789
H        1.55042313      -1.44345536      -0.16526312
H        1.22007212      -0.30324461      -1.54448927
H        0.26694509       0.24482419       1.39476402
H       -1.80393509      -0.17251072      -1.68281546
H       -1.94663409       0.95958514      -0.26324942
H       -1.81379347      -0.96667654       1.15540875
13
Frame=13 idx=005533 GeodesicLength=1.273700073792376 rxn_smarts="[O:1]=[C:2]([C:3]([C@@:4]1([H:10])[C:5]([H:11])([H:12])[N:6]1[H:13])([H:8])[H:9])[H:7]>>[C:3](=[C:4]1[C:5]([H:11])([H:12])[N:6]1[H:13])([H:8])[H:9].[O:1]=[C:2]([H:7])[H:10]"
O        0.93545594       2.06897818       0.59868690
C        1.42169019       0.96750533       0.73624403
C        1.01129273      -0.56405237      -0.50662780
C       -0.31236009      -0.47094175      -0.05218373
C       -1.54668338       0.02397279      -0.65986810
N       -1.49738508      -1.16391520       0.21521816
H        2.52479992       0.87576328       0.79103708
H        1.54130061      -1.44923608      -0.15756779
H        1.20484545      -0.32624403      -1.54653167
H        0.28654613       0.20155659       1.41858424
H       -1.78893645      -0.18146443      -1.69596699
H       -1.94574509       0.96158316      -0.28884728
H       -1.83482087      -0.94350547       1.14782294
13
Frame=14 idx=005533 GeodesicLength=1.3706295127654107 rxn_smarts="[O:1]=[C:2]([C:3]([C@@:4]1([H:10])[C:5]([H:11])([H:12])[N:6]1[H:13])([H:8])[H:9])[H:7]>>[C:3](=[C:4]1[C:5]([H:11])([H:12])[N:6]1[H:13])([H:8])[H:9].[O:1]=[C:2]([H:7])[H:10]"
O        0.91544931       2.06079793       0.67230693
C        1.44656289       0.97675975       0.75550069
C        1.00312438      -0.57054505      -0.50347754
C       -0.31850405      -0.47309379      -0.04249475
C       -1.54359169       0.02094584      -0.67156036
N       -1.51259179      -1.15890686       0.21402780
H        2.55426429       0.93874038       0.71703789
H        1.53203549      -1.45501718      -0.14977763
H        1.18974162      -0.35028474      -1.54867941
H        0.30681824       0.15716697       1.44116466
H       -1.77417097      -0.19158561      -1.70893829
H       -1.94437572       0.96363677      -0.31557132
H       -1.85476201      -0.91861442       1.14046131
13
Frame=15 idx=005533 GeodesicLength=1.4682485027632663 rxn_smarts="[O:1]=[C:2]([C:3]([C@@:4]1([H:10])[C:5]([H:11])([H:12])[N:6]1[H:13])([H:8])[H:9])[H:7]>>[C:3](=[C:4]1[C:5]([H:11])([H:12])[N:6]1[H:13])([H:8])[H:9].[O:1]=[C:2]([H:7])[H:10]"
O        0.90005797       2.04926208       0.75054798
C        1.47348486       0.98591885       0.77503612
C        0.99508118      -0.57710278      -0.50073652
C       -0.32457357      -0.47445306      -0.03317578
C       -1.54056773       0.01762101      -0.68369278
N       -1.52760355      -1.15288282       0.21360716
H        2.57522321       1.00559620       0.64166049
H        1.52276588      -1.46097110      -0.14223919
H        1.17471388      -0.37530328      -1.55105982
H        0.32797359       0.11170115       1.46237825
H       -1.75995420      -0.20355161      -1.72178722
H       -1.94283016       0.96578465      -0.34392668
H       -1.87377136      -0.89161930       1.13338800
13
Frame=16 idx=005533 GeodesicLength=1.5652142489100829 rxn_smarts="[O:1]=[C:2]([C:3]([C@@:4]1([H:10])[C:5]([H:11])([H:12])[N:6]1[H:13])([H:8])[H:9])[H:7]>>[C:3](=[C:4]1[C:5]([H:11])([H:12])[N:6]1[H:13])([H:8])[H:9].[O:1]=[C:2]([H:7])[H:10]"
O        0.88947534       2.03349737       0.83195282
C        1.50215411       0.99477501       0.79429298
C        0.98696909      -0.58361307      -0.49841037
C       -0.33040418      -0.47488871      -0.02422426
C       -1.53712580       0.01415897      -0.69608087
N       -1.54199151      -1.14558503       0.21403984
H        2.58618751       1.07620662       0.56616343
H        1.51307225      -1.46677550      -0.13479503
H        1.15954037      -0.40131459      -1.55364950
H        0.34976527       0.06517535       1.48193373
H       -1.74586384      -0.21682833      -1.73423261
H       -1.94050037       0.96779975      -0.37363156
H       -1.89127823      -0.86260784       1.12664140
