15
Frame=0 idx=011906 GeodesicLength=0.0 rxn_smarts="[O:1]([C@@:2]1([H:9])[C:3]([H:10])([H:11])[C@:4]2([H:12])[C:5]([H:13])([H:14])[C@@:6]1([H:15])[O:7]2)[H:8]>>[O:1]([C@@:2]([C:3]([C:4][H:12])([H:10])[H:11])([C@@:6]1([H:15])[C:5]([H:13])([H:14])[O:7]1)[H:9])[H:8]"
O        2.05451843      -1.02598063       0.04568475
C        0.91854775      -0.28931090       0.43423382
C        0.74876549       1.06583421      -0.26999134
C       -0.74024048       1.24566288      -0.34630032
C       -1.61740664      -0.49882227       0.68447683
C       -0.38861224      -1.00158661       0.08829971
O       -1.07663558      -0.24873266      -0.93245217
H        2.20520257      -0.87700996      -0.89088471
H        0.99377060      -0.17468359       1.51731153
H        1.23262870       1.87863884       0.27287261
H        1.23240553       0.98459800      -1.26327239
H       -1.07150847       1.89101489      -1.16095797
H       -1.67579576       0.17456896       1.52070069
H       -2.51271460      -1.06879323       0.45963673
H       -0.30292530      -2.05539793      -0.15935771
15
Frame=1 idx=011906 GeodesicLength=0.036257299883309974 rxn_smarts="[O:1]([C@@:2]1([H:9])[C:3]([H:10])([H:11])[C@:4]2([H:12])[C:5]([H:13])([H:14])[C@@:6]1([H:15])[O:7]2)[H:8]>>[O:1]([C@@:2]([C:3]([C:4][H:12])([H:10])[H:11])([C@@:6]1([H:15])[C:5]([H:13])([H:14])[O:7]1)[H:9])[H:8]"
O        2.05566347      -1.02437262       0.04001751
C        0.92033702      -0.29024134       0.43471621
C        0.74689791       1.06656764      -0.26524542
C       -0.74351430       1.23481343      -0.35283860
C       -1.61519361      -0.48624992       0.67642929
C       -0.38594770      -1.00336955       0.08878092
O       -1.06767829      -0.25660986      -0.94086040
H        2.19333047      -0.88373887      -0.89997471
H        0.99830496      -0.17833541       1.51782243
H        1.21814893       1.88050252       0.28704476
H        1.23865824       0.99668953      -1.25475121
H       -1.07677530       1.88237868      -1.16486476
H       -1.66447863       0.17539043       1.52349095
H       -2.51418542      -1.05363581       0.45953724
H       -0.30356774      -2.05978886      -0.14930421
15
Frame=2 idx=011906 GeodesicLength=0.07253775657116612 rxn_smarts="[O:1]([C@@:2]1([H:9])[C:3]([H:10])([H:11])[C@:4]2([H:12])[C:5]([H:13])([H:14])[C@@:6]1([H:15])[O:7]2)[H:8]>>[O:1]([C@@:2]([C:3]([C:4][H:12])([H:10])[H:11])([C@@:6]1([H:15])[C:5]([H:13])([H:14])[O:7]1)[H:9])[H:8]"
O        2.05675364      -1.02275997       0.03425898
C        0.92213377      -0.29116923       0.43519417
C        0.74503881       1.06726782      -0.26053854
C       -0.74659063       1.22407336      -0.35936040
C       -1.61286110      -0.47386017       0.66852557
C       -0.38331325      -1.00511729       0.08932097
O       -1.05883871      -0.26436641      -0.94893658
H        2.18150479      -0.89029498      -0.90885495
H        1.00290769      -0.18196030       1.51830672
H        1.20367425       1.88214523       0.30101120
H        1.24471947       1.00868026      -1.24615655
H       -1.08193781       1.87373206      -1.16879478
H       -1.65339861       0.17612613       1.52596407
H       -2.51552670      -1.03849295       0.45944494
H       -0.30426561      -2.06400357      -0.13938484
15
Frame=3 idx=011906 GeodesicLength=0.10885663367554876 rxn_smarts="[O:1]([C@@:2]1([H:9])[C:3]([H:10])([H:11])[C@:4]2([H:12])[C:5]([H:13])([H:14])[C@@:6]1([H:15])[O:7]2)[H:8]>>[O:1]([C@@:2]([C:3]([C:4][H:12])([H:10])[H:11])([C@@:6]1([H:15])[C:5]([H:13])([H:14])[O:7]1)[H:9])[H:8]"
O        2.05779717      -1.02113806       0.02838868
C        0.92394458      -0.29209761       0.43566530
C        0.74318660       1.06793989      -0.25585431
C       -0.74947612       1.21343180      -0.36587840
C       -1.61041366      -0.46164656       0.66076348
C       -0.38070506      -1.00683531       0.08992557
O       -1.05011105      -0.27202213      -0.95669861
H        2.16970200      -0.89668723      -0.91756300
H        1.00759325      -0.18557134       1.51876404
H        1.18917848       1.88357171       0.31481725
H        1.25060571       1.02060179      -1.23747091
H       -1.08699087       1.86505314      -1.17277574
H       -1.64254451       0.17680430       1.52813161
H       -2.51675280      -1.02334496       0.45935257
H       -0.30501373      -2.06805943      -0.12956753
15
Frame=4 idx=011906 GeodesicLength=0.14523546698602108 rxn_smarts="[O:1]([C@@:2]1([H:9])[C:3]([H:10])([H:11])[C@:4]2([H:12])[C:5]([H:13])([H:14])[C@@:6]1([H:15])[O:7]2)[H:8]>>[O:1]([C@@:2]([C:3]([C:4][H:12])([H:10])[H:11])([C@@:6]1([H:15])[C:5]([H:13])([H:14])[O:7]1)[H:9])[H:8]"
O        2.05878419      -1.01949666       0.02239143
C        0.92576992      -0.29302771       0.43612451
C        0.74133699       1.06859009      -0.25118039
C       -0.75217492       1.20287968      -0.37240810
C       -1.60784959      -0.44960389       0.65313371
C       -0.37811776      -1.00852675       0.09059950
O       -1.04147644      -0.27959160      -0.96415581
H        2.15788569      -0.90293359      -0.92613179
H        1.01236644      -0.18918182       1.51918427
H        1.17463139       1.88478963       0.32849982
H        1.25633824       1.03247976      -1.22867079
H       -1.09192618       1.85632925      -1.17682952
H       -1.63189828       0.17744528       1.53000561
H       -2.51786222      -1.00818342       0.45925585
H       -0.30580746      -2.07196826      -0.11981830
15
Frame=5 idx=011906 GeodesicLength=0.1816319075415216 rxn_smarts="[O:1]([C@@:2]1([H:9])[C:3]([H:10])([H:11])[C@:4]2([H:12])[C:5]([H:13])([H:14])[C@@:6]1([H:15])[O:7]2)[H:8]>>[O:1]([C@@:2]([C:3]([C:4][H:12])([H:10])[H:11])([C@@:6]1([H:15])[C:5]([H:13])([H:14])[O:7]1)[H:9])[H:8]"
O        2.05971946      -1.01784930       0.01632728
C        0.92760004      -0.29395547       0.43657924
C        0.73949575       1.06920725      -0.24654648
C       -0.75468991       1.19243206      -0.37890657
C       -1.60518065      -0.43774300       0.64563748
C       -0.37555704      -1.01018685       0.09131913
O       -1.03296675      -0.28704720      -0.97131773
H        2.14612818      -0.90902154      -0.93449441
H        1.01719149      -0.19276147       1.51957798
H        1.16010611       1.88579446       0.34196912
H        1.26187556       1.04425278      -1.21981263
H       -1.09676071       1.84760989      -1.18088201
H       -1.62147657       0.17804873       1.53160030
H       -2.51884704      -0.99306085       0.45916622
H       -0.30663792      -2.07571948      -0.11021690
15
Frame=6 idx=011906 GeodesicLength=0.21806049529463728 rxn_smarts="[O:1]([C@@:2]1([H:9])[C:3]([H:10])([H:11])[C@:4]2([H:12])[C:5]([H:13])([H:14])[C@@:6]1([H:15])[O:7]2)[H:8]>>[O:1]([C@@:2]([C:3]([C:4][H:12])([H:10])[H:11])([C@@:6]1([H:15])[C:5]([H:13])([H:14])[O:7]1)[H:9])[H:8]"
O        2.06060680      -1.01618953       0.01018014
C        0.92944060      -0.29488217       0.43702645
C        0.73766178       1.06979697      -0.24194028
C       -0.75702900       1.18207977      -0.38538642
C       -1.60241204      -0.42605720       0.63826962
C       -0.37301897      -1.01181986       0.09208858
O       -1.02457183      -0.29440588      -0.97820054
H        2.13440807      -0.91496739      -0.94268424
H        1.02208114      -0.19631906       1.51994279
H        1.14557753       1.88659247       0.35526571
H        1.26723806       1.05594477      -1.21088121
H       -1.10149607       1.83888016      -1.18495423
H       -1.61126600       0.17863293       1.53293162
H       -2.51972064      -0.97795847       0.45907418
H       -0.30749943      -2.07932750      -0.10073216
15
Frame=7 idx=011906 GeodesicLength=0.25453790143934824 rxn_smarts="[O:1]([C@@:2]1([H:9])[C:3]([H:10])([H:11])[C@:4]2([H:12])[C:5]([H:13])([H:14])[C@@:6]1([H:15])[O:7]2)[H:8]>>[O:1]([C@@:2]([C:3]([C:4][H:12])([H:10])[H:11])([C@@:6]1([H:15])[C:5]([H:13])([H:14])[O:7]1)[H:9])[H:8]"
O        2.06144694      -1.01451381       0.00393415
C        0.93129499      -0.29581043       0.43746231
C        0.73583169       1.07036282      -0.23734946
C       -0.75919552       1.17181295      -0.39185973
C       -1.59954415      -0.41453854       0.63102451
C       -0.37050034      -1.01342896       0.09291150
O       -1.01628296      -0.30168213      -0.98481777
H        2.12270369      -0.92077605      -0.95072744
H        1.02704509      -0.19986701       1.52027404
H        1.13102028       1.88718520       0.36842387
H        1.27243699       1.06758101      -1.20185850
H       -1.10612633       1.83012212      -1.18906772
H       -1.60125198       0.17921653       1.53400989
H       -2.52048956      -0.96285854       0.45897504
H       -0.30838881      -2.08280516      -0.09133470
15
Frame=8 idx=011906 GeodesicLength=0.2910759591672155 rxn_smarts="[O:1]([C@@:2]1([H:9])[C:3]([H:10])([H:11])[C@:4]2([H:12])[C:5]([H:13])([H:14])[C@@:6]1([H:15])[O:7]2)[H:8]>>[O:1]([C@@:2]([C:3]([C:4][H:12])([H:10])[H:11])([C@@:6]1([H:15])[C:5]([H:13])([H:14])[O:7]1)[H:9])[H:8]"
O        2.06224054      -1.01281502      -0.00242834
C        0.93316717      -0.29674306       0.43788318
C        0.73400291       1.07090868      -0.23276276
C       -0.76119267       1.16162371      -0.39833787
C       -1.59657773      -0.40318018       0.62389545
C       -0.36799763      -1.01501928       0.09379238
O       -1.00808945      -0.30889342      -0.99117947
H        2.11099943      -0.92645495      -0.95864890
H        1.03209317      -0.20341710       1.52056741
H        1.11640773       1.88757543       0.38147374
H        1.27748553       1.07918185      -1.19272614
H       -1.11064940       1.82132201      -1.19324309
H       -1.59142042       0.17981367       1.53485014
H       -2.52116405      -0.94773973       0.45886084
H       -0.30930514      -2.08616261      -0.08199658
15
Frame=9 idx=011906 GeodesicLength=0.3276875218119685 rxn_smarts="[O:1]([C@@:2]1([H:9])[C:3]([H:10])([H:11])[C@:4]2([H:12])[C:5]([H:13])([H:14])[C@@:6]1([H:15])[O:7]2)[H:8]>>[O:1]([C@@:2]([C:3]([C:4][H:12])([H:10])[H:11])([C@@:6]1([H:15])[C:5]([H:13])([H:14])[O:7]1)[H:9])[H:8]"
O        2.06298800      -1.01109085      -0.00892864
C        0.93506006      -0.29768219       0.43828797
C        0.73217263       1.07143896      -0.22816466
C       -0.76302342       1.15150225      -0.40483215
C       -1.59351685      -0.39197180       0.61687787
C       -0.36551171      -1.01659401       0.09473681
O       -0.99998888      -0.31605755      -0.99730280
H        2.09926716      -0.93200041      -0.96647344
H        1.03723663      -0.20698056       1.52082293
H        1.10171630       1.88775950       0.39445500
H        1.28239328       1.09077621      -1.18346500
H       -1.11505353       1.81245767      -1.19751069
H       -1.58174527       0.18044224       1.53545454
H       -2.52174914      -0.93258595       0.45872934
H       -0.31024527      -2.08941349      -0.07268708
15
Frame=10 idx=011906 GeodesicLength=0.3643995740734963 rxn_smarts="[O:1]([C@@:2]1([H:9])[C:3]([H:10])([H:11])[C@:4]2([H:12])[C:5]([H:13])([H:14])[C@@:6]1([H:15])[O:7]2)[H:8]>>[O:1]([C@@:2]([C:3]([C:4][H:12])([H:10])[H:11])([C@@:6]1([H:15])[C:5]([H:13])([H:14])[O:7]1)[H:9])[H:8]"
O        2.06368713      -1.00933211      -0.01558674
C        0.93697867      -0.29862975       0.43867122
C        0.73033504       1.07195864      -0.22354165
C       -0.76469329       1.14143419      -0.41137047
C       -1.59036043      -0.38090673       0.60996810
C       -0.36303391      -1.01815544       0.09575279
O       -0.99195827      -0.32318616      -1.00319034
H        2.08747756      -0.93743054      -0.97424276
H        1.04248974      -0.21057104       1.52102999
H        1.08690707       1.88773816       0.40740987
H        1.28718402       1.10238860      -1.17404497
H       -1.11933071       1.80351398      -1.20189699
H       -1.57222446       0.18112403       1.53583766
H       -2.52225136      -0.91738272       0.45857937
H       -0.31120681      -2.09256310      -0.06337508
15
Frame=11 idx=011906 GeodesicLength=0.4011892490614825 rxn_smarts="[O:1]([C@@:2]1([H:9])[C:3]([H:10])([H:11])[C@:4]2([H:12])[C:5]([H:13])([H:14])[C@@:6]1([H:15])[O:7]2)[H:8]>>[O:1]([C@@:2]([C:3]([C:4][H:12])([H:10])[H:11])([C@@:6]1([H:15])[C:5]([H:13])([H:14])[O:7]1)[H:9])[H:8]"
O        2.06434109      -1.00754267      -0.02237963
C        0.93891976      -0.29958490       0.43903525
C        0.72849442       1.07246248      -0.21890713
C       -0.76620088       1.13142760      -0.41792322
C       -1.58711589      -0.36998472       0.60315954
C       -0.36056994      -1.01970311       0.09682958
O       -0.98401544      -0.33027499      -1.00885504
H        2.07566346      -0.94273627      -0.98192170
H        1.04783952      -0.21417598       1.52119457
H        1.07201020       1.88750902       0.42029715
H        1.29183557       1.11399562      -1.16449368
H       -1.12348975       1.79451000      -1.20636872
H       -1.56285521       0.18185253       1.53601191
H       -2.52266994      -0.90214219       0.45840626
H       -0.31218697      -2.09561243      -0.05408514
15
Frame=12 idx=011906 GeodesicLength=0.4380437715730544 rxn_smarts="[O:1]([C@@:2]1([H:9])[C:3]([H:10])([H:11])[C@:4]2([H:12])[C:5]([H:13])([H:14])[C@@:6]1([H:15])[O:7]2)[H:8]>>[O:1]([C@@:2]([C:3]([C:4][H:12])([H:10])[H:11])([C@@:6]1([H:15])[C:5]([H:13])([H:14])[O:7]1)[H:9])[H:8]"
O        2.06494813      -1.00572561      -0.02927839
C        0.94087803      -0.30054505       0.43938110
C        0.72665174       1.07294668      -0.21427486
C       -0.76755066       1.12148800      -0.42447299
C       -1.58378784      -0.35920690       0.59644716
C       -0.35812069      -1.02123464       0.09795642
O       -0.97616662      -0.33731304      -1.01430486
H        2.06385608      -0.94791903      -0.98948367
H        1.05326872      -0.21778145       1.52131637
H        1.05705618       1.88707125       0.43307772
H        1.29633222       1.12557157      -1.15483490
H       -1.12754207       1.78546935      -1.21088814
H       -1.55363894       0.18262036       1.53599278
H       -2.52300131      -0.88688162       0.45820796
H       -0.31318297      -2.09855988      -0.04484170
15
Frame=13 idx=011906 GeodesicLength=0.4749823716085878 rxn_smarts="[O:1]([C@@:2]1([H:9])[C:3]([H:10])([H:11])[C@:4]2([H:12])[C:5]([H:13])([H:14])[C@@:6]1([H:15])[O:7]2)[H:8]>>[O:1]([C@@:2]([C:3]([C:4][H:12])([H:10])[H:11])([C@@:6]1([H:15])[C:5]([H:13])([H:14])[O:7]1)[H:9])[H:8]"
O        2.06550909      -1.00387210      -0.03630351
C        0.94285773      -0.30151158       0.43970537
C        0.72480355       1.07341629      -0.20963043
C       -0.76874554       1.11160302      -0.43103482
C       -1.58037895      -0.34856772       0.58982621
C       -0.35568291      -1.02275271       0.09913936
O       -0.96839949      -0.34431491      -1.01954636
H        2.05202162      -0.95299217      -0.99696031
H        1.05878884      -0.22139875       1.52139093
H        1.04201450       1.88642602       0.44579087
H        1.30069251       1.13714340      -1.14504454
H       -1.13147843       1.77637100      -1.21548335
H       -1.54455952       0.18344494       1.53578463
H       -2.52325298      -0.87158445       0.45798274
H       -0.31419001      -2.10141028      -0.03561679
15
Frame=14 idx=011906 GeodesicLength=0.511989449893907 rxn_smarts="[O:1]([C@@:2]1([H:9])[C:3]([H:10])([H:11])[C@:4]2([H:12])[C:5]([H:13])([H:14])[C@@:6]1([H:15])[O:7]2)[H:8]>>[O:1]([C@@:2]([C:3]([C:4][H:12])([H:10])[H:11])([C@@:6]1([H:15])[C:5]([H:13])([H:14])[O:7]1)[H:9])[H:8]"
O        2.06602303      -1.00198639      -0.04342684
C        0.94485393      -0.30248193       0.44001068
C        0.72295182       1.07386764      -0.20498718
C       -0.76978944       1.10177942      -0.43759007
C       -1.57689428      -0.33806674       0.58329219
C       -0.35325849      -1.02425527       0.10036855
O       -0.96072254      -0.35127034      -1.02458928
H        2.04019203      -0.95795319      -1.00432345
H        1.06438363      -0.22501340       1.52142089
H        1.02691944       1.88557287       0.45839631
H        1.30489798       1.14868523      -1.13514833
H       -1.13530899       1.76723801      -1.22011910
H       -1.53562025       0.18431534       1.53540338
H       -2.52342215      -0.85626726       0.45772953
H       -0.31520571      -2.10416399      -0.02643728
15
Frame=15 idx=011906 GeodesicLength=0.5490509742201092 rxn_smarts="[O:1]([C@@:2]1([H:9])[C:3]([H:10])([H:11])[C@:4]2([H:12])[C:5]([H:13])([H:14])[C@@:6]1([H:15])[O:7]2)[H:8]>>[O:1]([C@@:2]([C:3]([C:4][H:12])([H:10])[H:11])([C@@:6]1([H:15])[C:5]([H:13])([H:14])[O:7]1)[H:9])[H:8]"
O        2.06649037      -1.00007011      -0.05061876
C        0.94686099      -0.30345301       0.44029933
C        0.72109882       1.07429778      -0.20035825
C       -0.77068759       1.09202212      -0.44412044
C       -1.57334058      -0.32770677       0.57684075
C       -0.35084889      -1.02574017       0.10163261
O       -0.95314256      -0.35816784      -1.02944101
H        2.02839352      -0.96280779      -1.01154843
H        1.07003507      -0.22861124       1.52140880
H        1.01180377       1.88451659       0.47085828
H        1.30893684       1.16017225      -1.12517259
H       -1.13904516       1.75809261      -1.22475970
H       -1.52682155       0.18522320       1.53486110
H       -2.52350697      -0.84094911       0.45744956
H       -0.31622608      -2.10681852      -0.01733124
15
Frame=16 idx=011906 GeodesicLength=0.5861522425546013 rxn_smarts="[O:1]([C@@:2]1([H:9])[C:3]([H:10])([H:11])[C@:4]2([H:12])[C:5]([H:13])([H:14])[C@@:6]1([H:15])[O:7]2)[H:8]>>[O:1]([C@@:2]([C:3]([C:4][H:12])([H:10])[H:11])([C@@:6]1([H:15])[C:5]([H:13])([H:14])[O:7]1)[H:9])[H:8]"
O        2.06691223      -0.99812527      -0.05784884
C        0.94887317      -0.30442154       0.44057399
C        0.71924706       1.07470413      -0.19575693
C       -0.77144611       1.08233677      -0.45060814
C       -1.56972441      -0.31749020       0.57046799
C       -0.34845550      -1.02720533       0.10292001
O       -0.94566620      -0.36499549      -1.03410975
H        2.01665237      -0.96756298      -1.01861090
H        1.07572448      -0.23217798       1.52135792
H        0.99670165       1.88326374       0.48314192
H        1.31279802       1.17157978      -1.11514497
H       -1.14269982       1.74895739      -1.22936950
H       -1.51816382       0.18615851       1.53416997
H       -2.52350580      -0.82564901       0.45714433
H       -0.31724732      -2.10937250      -0.00832711
