13
Frame=0 idx=002460 GeodesicLength=0.0 rxn_smarts="[N:1]#[C:2][C:3]([C:4]1([H:9])[C:5]([H:10])([H:11])[C:6]1([H:12])[H:13])([H:7])[H:8]>>[N:1](=[C:2]1/[C:3]([H:7])([H:8])[C@:4]2([H:9])[C:5]([H:10])([H:11])[C@:6]12[H:13])\[H:12]"
N        1.37411626      -1.88968341      -0.89449781
C        0.97477920      -0.77941323      -0.64260510
C        1.09442069       0.69108967      -0.37969887
C       -0.36402905       0.87383009      -0.00574877
C       -0.83496830       0.06838196       1.16101990
C       -0.92411762      -0.51123443      -0.21717752
H        1.35955590       1.19375107      -1.31245816
H        1.84272426       0.92788069       0.37965806
H       -0.88750440       1.77521570      -0.29230601
H       -1.75551693       0.39943123       1.62774884
H       -0.10658164      -0.32798530       1.86267009
H        0.10941112      -1.72722984      -0.59382012
H       -1.88228944      -0.69403415      -0.69278451
13
Frame=1 idx=002460 GeodesicLength=0.10980160967091437 rxn_smarts="[N:1]#[C:2][C:3]([C:4]1([H:9])[C:5]([H:10])([H:11])[C:6]1([H:12])[H:13])([H:7])[H:8]>>[N:1](=[C:2]1/[C:3]([H:7])([H:8])[C@:4]2([H:9])[C:5]([H:10])([H:11])[C@:6]12[H:13])\[H:12]"
N        1.38789891      -1.89317453      -0.87432093
C        0.99760797      -0.78172708      -0.61486761
C        1.09505720       0.69392419      -0.38607785
C       -0.35897536       0.87394244       0.00307969
C       -0.83843385       0.06226180       1.16095503
C       -0.92408106      -0.50695171      -0.22245307
H        1.34309645       1.17351758      -1.33561942
H        1.84797132       0.96017701       0.35844527
H       -0.87770013       1.78306186      -0.26763003
H       -1.76001518       0.39128536       1.62674875
H       -0.11768859      -0.34669666       1.86291100
H        0.08811156      -1.73434364      -0.60915210
H       -1.88284924      -0.67527661      -0.70201875
13
Frame=2 idx=002460 GeodesicLength=0.21924939038215752 rxn_smarts="[N:1]#[C:2][C:3]([C:4]1([H:9])[C:5]([H:10])([H:11])[C:6]1([H:12])[H:13])([H:7])[H:8]>>[N:1](=[C:2]1/[C:3]([H:7])([H:8])[C@:4]2([H:9])[C:5]([H:10])([H:11])[C@:6]12[H:13])\[H:12]"
N        1.40180807      -1.89599910      -0.85382146
C        1.02046395      -0.78349661      -0.58663889
C        1.09560855       0.69642338      -0.39253168
C       -0.35377606       0.87398708       0.01216402
C       -0.84199488       0.05610790       1.16091194
C       -0.92391901      -0.50259598      -0.22766515
H        1.32628077       1.15209022      -1.35817814
H        1.85288101       0.99225860       0.33584841
H       -0.86750109       1.79061910      -0.24269367
H       -1.76465918       0.38319576       1.62560341
H       -0.12922318      -0.36564784       1.86308092
H        0.06716946      -1.74061185      -0.62501387
H       -1.88313844      -0.65633067      -0.71106582
13
Frame=3 idx=002460 GeodesicLength=0.32849990234713045 rxn_smarts="[N:1]#[C:2][C:3]([C:4]1([H:9])[C:5]([H:10])([H:11])[C:6]1([H:12])[H:13])([H:7])[H:8]>>[N:1](=[C:2]1/[C:3]([H:7])([H:8])[C@:4]2([H:9])[C:5]([H:10])([H:11])[C@:6]12[H:13])\[H:12]"
N        1.41586657      -1.89814071      -0.83277579
C        1.04335691      -0.78461234      -0.55813536
C        1.09607233       0.69862367      -0.39906817
C       -0.34843076       0.87396209       0.02148064
C       -0.84561607       0.04990592       1.16086316
C       -0.92363100      -0.49815694      -0.23283991
H        1.30914576       1.12959340      -1.38005862
H        1.85741178       1.02403452       0.31186202
H       -0.85692082       1.79788424      -0.21749926
H       -1.76939573       0.37514437       1.62432059
H       -0.14113704      -0.38490858       1.86308331
H        0.04644460      -1.74615460      -0.64130880
H       -1.88316653      -0.63717504      -0.71992382
13
Frame=4 idx=002460 GeodesicLength=0.43772795503840134 rxn_smarts="[N:1]#[C:2][C:3]([C:4]1([H:9])[C:5]([H:10])([H:11])[C:6]1([H:12])[H:13])([H:7])[H:8]>>[N:1](=[C:2]1/[C:3]([H:7])([H:8])[C@:4]2([H:9])[C:5]([H:10])([H:11])[C@:6]12[H:13])\[H:12]"
N        1.43005172      -1.89959635      -0.81105803
C        1.06633506      -0.78496291      -0.52951797
C        1.09645324       0.70057595      -0.40568434
C       -0.34293890       0.87386456       0.03099838
C       -0.84925924       0.04364337       1.16077982
C       -0.92320989      -0.49363387      -0.23800388
H        1.29175224       1.10615773      -1.40118447
H        1.86151421       1.05544951       0.28651423
H       -0.84597838       1.80484621      -0.19206632
H       -1.77417132       0.36711726       1.62290435
H       -0.15337750      -0.40452642       1.86282838
H        0.02576747      -1.75113328      -0.65791971
H       -1.88293870      -0.61780175      -0.72859043
13
Frame=5 idx=002460 GeodesicLength=0.5470926099804891 rxn_smarts="[N:1]#[C:2][C:3]([C:4]1([H:9])[C:5]([H:10])([H:11])[C:6]1([H:12])[H:13])([H:7])[H:8]>>[N:1](=[C:2]1/[C:3]([H:7])([H:8])[C@:4]2([H:9])[C:5]([H:10])([H:11])[C@:6]12[H:13])\[H:12]"
N        1.44431611      -1.90032581      -0.78859225
C        1.08947614      -0.78446039      -0.50088546
C        1.09676401       0.70232615      -0.41236473
C       -0.33729938       0.87368200       0.04068100
C       -0.85288702       0.03731241       1.16063625
C       -0.92264436      -0.48903184      -0.24317496
H        1.27417572       1.08190122      -1.42148113
H        1.86514241       1.08648453       0.25983935
H       -0.83468960       1.81147730      -0.16642152
H       -1.77893583       0.35910167       1.62135039
H       -0.16589246      -0.42452809       1.86223153
H        0.00492552      -1.75572590      -0.67476478
H       -1.88245126      -0.59821325      -0.73705369
13
Frame=6 idx=002460 GeodesicLength=0.6566409335080293 rxn_smarts="[N:1]#[C:2][C:3]([C:4]1([H:9])[C:5]([H:10])([H:11])[C:6]1([H:12])[H:13])([H:7])[H:8]>>[N:1](=[C:2]1/[C:3]([H:7])([H:8])[C@:4]2([H:9])[C:5]([H:10])([H:11])[C@:6]12[H:13])\[H:12]"
N        1.45859507      -1.90034289      -0.76539662
C        1.11287113      -0.78301358      -0.47226786
C        1.09701961       0.70393717      -0.41908310
C       -0.33151247       0.87341080       0.05049416
C       -0.85646031       0.03090650       1.16040889
C       -0.92191342      -0.48436054      -0.24837282
H        1.25650223       1.05689238      -1.44089113
H        1.86823036       1.11716273       0.23190037
H       -0.82307982       1.81776377      -0.14059896
H       -1.78364167       0.35108226       1.61965966
H       -0.17862726      -0.44492346       1.86122652
H       -0.01628580      -1.76009973      -0.69176737
H       -1.88169765      -0.57841542      -0.74531173
13
Frame=7 idx=002460 GeodesicLength=0.7664333240571791 rxn_smarts="[N:1]#[C:2][C:3]([C:4]1([H:9])[C:5]([H:10])([H:11])[C:6]1([H:12])[H:13])([H:7])[H:8]>>[N:1](=[C:2]1/[C:3]([H:7])([H:8])[C@:4]2([H:9])[C:5]([H:10])([H:11])[C@:6]12[H:13])\[H:12]"
N        1.47280164      -1.89960441      -0.74151534
C        1.13663280      -0.78054283      -0.44364232
C        1.09723936       0.70545391      -0.42581418
C       -0.32557907       0.87303612       0.06039489
C       -0.85993956       0.02442160       1.16007725
C       -0.92099300      -0.47964160      -0.25360863
H        1.23885086       1.03119979      -1.45933198
H        1.87071027       1.14751825       0.20274275
H       -0.81117522       1.82367547      -0.11464408
H       -1.78824200       0.34304552       1.61782727
H       -0.19152367      -0.46570227       1.85975323
H       -0.03811695      -1.76443243      -0.70889075
H       -1.88066545      -0.55842713      -0.75334812
13
Frame=8 idx=002460 GeodesicLength=0.8764584222980839 rxn_smarts="[N:1]#[C:2][C:3]([C:4]1([H:9])[C:5]([H:10])([H:11])[C:6]1([H:12])[H:13])([H:7])[H:8]>>[N:1](=[C:2]1/[C:3]([H:7])([H:8])[C@:4]2([H:9])[C:5]([H:10])([H:11])[C@:6]12[H:13])\[H:12]"
N        1.48689967      -1.89809731      -0.71693562
C        1.16085556      -0.77696929      -0.41497187
C        1.09743903       0.70691517      -0.43252811
C       -0.31950389       0.87254606       0.07034990
C       -0.86328561       0.01784961       1.15962389
C       -0.91986968      -0.47488802      -0.25889224
H        1.22133497       1.00486838      -1.47675589
H        1.87251167       1.17758542       0.17240520
H       -0.79900243       1.82918788      -0.08858776
H       -1.79268753       0.33497470       1.61585768
H       -0.20452060      -0.48685610       1.85775323
H       -0.06081369      -1.76886350      -0.72617463
H       -1.87935748      -0.53825298      -0.76114379
13
Frame=9 idx=002460 GeodesicLength=0.9865681839419336 rxn_smarts="[N:1]#[C:2][C:3]([C:4]1([H:9])[C:5]([H:10])([H:11])[C:6]1([H:12])[H:13])([H:7])[H:8]>>[N:1](=[C:2]1/[C:3]([H:7])([H:8])[C@:4]2([H:9])[C:5]([H:10])([H:11])[C@:6]12[H:13])\[H:12]"
N        1.50059519      -1.89567253      -0.69185192
C        1.18570147      -0.77224997      -0.38610423
C        1.09767547       0.70833906      -0.43917457
C       -0.31326053       0.87189943       0.08030056
C       -0.86646016       0.01117428       1.15903269
C       -0.91849244      -0.47015764      -0.26424545
H        1.20410511       0.97799367      -1.49304792
H        1.87357588       1.20753319       0.14090422
H       -0.78653454       1.83425408      -0.06251818
H       -1.79695010       0.32686211       1.61374707
H       -0.21758126      -0.50837145       1.85519898
H       -0.08465246      -1.77364433      -0.74354715
H       -1.87772162      -0.51795989      -0.76869410
13
Frame=10 idx=002460 GeodesicLength=1.0968863567252058 rxn_smarts="[N:1]#[C:2][C:3]([C:4]1([H:9])[C:5]([H:10])([H:11])[C:6]1([H:12])[H:13])([H:7])[H:8]>>[N:1](=[C:2]1/[C:3]([H:7])([H:8])[C@:4]2([H:9])[C:5]([H:10])([H:11])[C@:6]12[H:13])\[H:12]"
N        1.51403557      -1.89234423      -0.66598729
C        1.21125322      -0.76623568      -0.35708982
C        1.09793582       0.70976970      -0.44574951
C       -0.30687988       0.87111293       0.09022669
C       -0.86941133       0.00438672       1.15828750
C       -0.91686530      -0.46543691      -0.26967222
H        1.18726155       0.95051050      -1.50823814
H        1.87379418       1.23723555       0.10830985
H       -0.77384884       1.83887720      -0.03642006
H       -1.80095326       0.31865904       1.61151615
H       -0.23059178      -0.53025333       1.85199752
H       -0.10994099      -1.77876529      -0.76121396
H       -1.87578894      -0.49751619      -0.77596672
13
Frame=11 idx=002460 GeodesicLength=1.2073801442146594 rxn_smarts="[N:1]#[C:2][C:3]([C:4]1([H:9])[C:5]([H:10])([H:11])[C:6]1([H:12])[H:13])([H:7])[H:8]>>[N:1](=[C:2]1/[C:3]([H:7])([H:8])[C@:4]2([H:9])[C:5]([H:10])([H:11])[C@:6]12[H:13])\[H:12]"
N        1.52713102      -1.88801197      -0.63930359
C        1.23764789      -0.75883249      -0.32785613
C        1.09824824       0.71122280      -0.45222563
C       -0.30036276       0.87016930       0.10007771
C       -0.87209019      -0.00252870       1.15736992
C       -0.91495955      -0.46076218      -0.27518707
H        1.17092844       0.92240703      -1.52228544
H        1.87308274       1.26673508       0.07469064
H       -0.76095685       1.84302969      -0.01034127
H       -1.80464235       0.31033338       1.60917228
H       -0.24346409      -0.55249487       1.84808656
H       -0.13701874      -1.78431431      -0.77926069
H       -1.87354381      -0.47695276      -0.78293729
13
Frame=12 idx=002460 GeodesicLength=1.318001026951442 rxn_smarts="[N:1]#[C:2][C:3]([C:4]1([H:9])[C:5]([H:10])([H:11])[C:6]1([H:12])[H:13])([H:7])[H:8]>>[N:1](=[C:2]1/[C:3]([H:7])([H:8])[C@:4]2([H:9])[C:5]([H:10])([H:11])[C@:6]12[H:13])\[H:12]"
N        1.53983212      -1.88261372      -0.61166706
C        1.26500567      -0.74994691      -0.29832483
C        1.09863845       0.71272317      -0.45859461
C       -0.29370965       0.86905674       0.10981234
C       -0.87444303      -0.00960030       1.15625965
C       -0.91275127      -0.45615887      -0.28081121
H        1.15522874       0.89368095      -1.53517892
H        1.87136066       1.29605729       0.04009345
H       -0.74788583       1.84669365       0.01569451
H       -1.80795712       0.30183133       1.60672969
H       -0.25609604      -0.57509744       1.84339792
H       -0.16624241      -1.79034776      -0.79782189
H       -1.87098030      -0.45627813      -0.78958905
13
Frame=13 idx=002460 GeodesicLength=1.4286563180583638 rxn_smarts="[N:1]#[C:2][C:3]([C:4]1([H:9])[C:5]([H:10])([H:11])[C:6]1([H:12])[H:13])([H:7])[H:8]>>[N:1](=[C:2]1/[C:3]([H:7])([H:8])[C@:4]2([H:9])[C:5]([H:10])([H:11])[C@:6]12[H:13])\[H:12]"
N        1.55208955      -1.87608531      -0.58289254
C        1.29344384      -0.73948093      -0.26843509
C        1.09913263       0.71428731      -0.46484557
C       -0.28692164       0.86776029       0.11939102
C       -0.87641466      -0.01686489       1.15493268
C       -0.91022128      -0.45165128      -0.28657373
H        1.14029024       0.86434112      -1.54691017
H        1.86855273       1.32522381       0.00454892
H       -0.73465950       1.84984888       0.04166681
H       -1.81083411       0.29308605       1.60420411
H       -0.26837549      -0.59807100       1.83785207
H       -0.19798389      -1.79689907      -0.81703121
H       -1.86809842      -0.43549499      -0.79590729
13
Frame=14 idx=002460 GeodesicLength=1.5392878341942247 rxn_smarts="[N:1]#[C:2][C:3]([C:4]1([H:9])[C:5]([H:10])([H:11])[C:6]1([H:12])[H:13])([H:7])[H:8]>>[N:1](=[C:2]1/[C:3]([H:7])([H:8])[C@:4]2([H:9])[C:5]([H:10])([H:11])[C@:6]12[H:13])\[H:12]"
N        1.56387189      -1.86831064      -0.55277492
C        1.32307192      -0.72731441      -0.23812398
C        1.09976046       0.71592341      -0.47097006
C       -0.27999958       0.86626165       0.12876701
C       -0.87794886      -0.02436586       1.15336162
C       -0.90734725      -0.44727221      -0.29251028
H        1.12626213       0.83436970      -1.55745109
H        1.86457393       1.35423860      -0.03193361
H       -0.72128996       1.85246923       0.06756126
H       -1.81321007       0.28402148       1.60160993
H       -0.28017748      -0.62143210       1.83136387
H       -0.23267255      -1.80398094      -0.83702189
H       -1.86489459      -0.41460791      -0.80187786
13
Frame=15 idx=002460 GeodesicLength=1.6497622115658814 rxn_smarts="[N:1]#[C:2][C:3]([C:4]1([H:9])[C:5]([H:10])([H:11])[C:6]1([H:12])[H:13])([H:7])[H:8]>>[N:1](=[C:2]1/[C:3]([H:7])([H:8])[C@:4]2([H:9])[C:5]([H:10])([H:11])[C@:6]12[H:13])\[H:12]"
N        1.57517993      -1.85919293      -0.52106239
C        1.35398026      -0.71332757      -0.20735511
C        1.10055076       0.71764363      -0.47695902
C       -0.27294694       0.86454590       0.13789678
C       -0.87898971      -0.03215272       1.15151598
C       -0.90411380      -0.44304661      -0.29866312
H        1.11327934       0.80374928      -1.56678219
H        1.85934947       1.38307400      -0.06934795
H       -0.70779673       1.85453388       0.09336768
H       -1.81501973       0.27454673       1.59896302
H       -0.29136741      -0.64519894       1.82384177
H       -0.27073401      -1.81156252      -0.85792335
H       -1.86137142      -0.39361212      -0.80749209
13
Frame=16 idx=002460 GeodesicLength=1.7599848716394728 rxn_smarts="[N:1]#[C:2][C:3]([C:4]1([H:9])[C:5]([H:10])([H:11])[C:6]1([H:12])[H:13])([H:7])[H:8]>>[N:1](=[C:2]1/[C:3]([H:7])([H:8])[C@:4]2([H:9])[C:5]([H:10])([H:11])[C@:6]12[H:13])\[H:12]"
N        1.58605116      -1.84859720      -0.48745211
C        1.38624579      -0.69738182      -0.17610224
C        1.10153225       0.71944191      -0.48280774
C       -0.26576630       0.86259069       0.14673585
C       -0.87948137      -0.04028898       1.14935968
C       -0.90051028      -0.43900628      -0.30508291
H        1.10149746       0.77245608      -1.57486776
H        1.85280443       1.41169276      -0.10772511
H       -0.69418322       1.85601629       0.11908557
H       -1.81619864       0.26455815       1.59628095
H       -0.30180518      -0.66940544       1.81518389
H       -0.31264958      -1.81958162      -0.87986567
H       -1.85753651      -0.37249455      -0.81274241
