13
Frame=0 idx=006389 GeodesicLength=0.0 rxn_smarts="[C:1]1([H:8])([H:9])[C@:2]2([H:10])[O:3][C@@:4]1([H:11])[C@:5]1([H:12])[O:6][C@:7]21[H:13]>>[C:1]1([H:8])([H:9])[C@@:2]2([H:10])[O:3][C@:4]1([H:11])[C-:5]=[O+:6][C:7]2([H:12])[H:13]"
C       -0.74944296       0.24590505       1.01524954
C       -0.49583603      -0.82578022      -0.04644146
O       -1.06064476       0.07332131      -1.04350505
C       -0.44179145       1.10029867      -0.21733111
C        1.10310769       1.02293706      -0.55880924
O        1.69410294       0.20218232       0.40756258
C        1.00672039      -0.77061942      -0.36314591
H       -1.80458025       0.29299516       1.27081907
H       -0.10883917       0.29924441       1.88999015
H       -0.94794848      -1.81537910      -0.03389622
H       -0.84607327       2.09704691      -0.38118507
H        1.03911322      -0.26097663      -1.43472828
H        1.61211215      -1.66117548      -0.50457897
13
Frame=1 idx=006389 GeodesicLength=0.0568075178380066 rxn_smarts="[C:1]1([H:8])([H:9])[C@:2]2([H:10])[O:3][C@@:4]1([H:11])[C@:5]1([H:12])[O:6][C@:7]21[H:13]>>[C:1]1([H:8])([H:9])[C@@:2]2([H:10])[O:3][C@:4]1([H:11])[C-:5]=[O+:6][C:7]2([H:12])[H:13]"
C       -0.74934146       0.24556029       1.01568441
C       -0.49607570      -0.82588215      -0.04692426
O       -1.06196082       0.07381337      -1.04249881
C       -0.44391894       1.10171681      -0.21666200
C        1.09787288       1.02228191      -0.55502131
O        1.69678966       0.20208432       0.40216833
C        1.00520484      -0.77233420      -0.36584140
H       -1.80384227       0.29219939       1.27400335
H       -0.10787736       0.29971062       1.88984220
H       -0.95025982      -1.81456819      -0.03334993
H       -0.85074948       2.09745084      -0.37958884
H        1.05750613      -0.25450687      -1.44914720
H        1.60665235      -1.66752615      -0.49266453
13
Frame=2 idx=006389 GeodesicLength=0.11361916866358647 rxn_smarts="[C:1]1([H:8])([H:9])[C@:2]2([H:10])[O:3][C@@:4]1([H:11])[C@:5]1([H:12])[O:6][C@:7]21[H:13]>>[C:1]1([H:8])([H:9])[C@@:2]2([H:10])[O:3][C@:4]1([H:11])[C-:5]=[O+:6][C:7]2([H:12])[H:13]"
C       -0.74925965       0.24522568       1.01614669
C       -0.49638646      -0.82603326      -0.04732950
O       -1.06334637       0.07423123      -1.04144519
C       -0.44606962       1.10308603      -0.21600473
C        1.09261801       1.02147237      -0.55132241
O        1.69941130       0.20192057       0.39669549
C        1.00360797      -0.77413338      -0.36859439
H       -1.80311043       0.29145451       1.27723483
H       -0.10690847       0.30019327       1.88970123
H       -0.95264050      -1.81380123      -0.03268985
H       -0.85539926       2.09781049      -0.37805302
H        1.07643442      -0.24770211      -1.46345815
H        1.60104908      -1.67372416      -0.48088101
13
Frame=3 idx=006389 GeodesicLength=0.17040448487493187 rxn_smarts="[C:1]1([H:8])([H:9])[C@:2]2([H:10])[O:3][C@@:4]1([H:11])[C@:5]1([H:12])[O:6][C@:7]21[H:13]>>[C:1]1([H:8])([H:9])[C@@:2]2([H:10])[O:3][C@:4]1([H:11])[C-:5]=[O+:6][C:7]2([H:12])[H:13]"
C       -0.74919815       0.24490347       1.01663673
C       -0.49676995      -0.82623109      -0.04765495
O       -1.06480388       0.07457151      -1.04033771
C       -0.44824247       1.10439933      -0.21536003
C        1.08733771       1.02049908      -0.54771790
O        1.70195518       0.20168694       0.39114021
C        1.00192140      -0.77601719      -0.37140949
H       -1.80238125       0.29076686       1.28051615
H       -0.10593721       0.30069539       1.88956524
H       -0.95508873      -1.81307150      -0.03191062
H       -0.86001625       2.09811600      -0.37657762
H        1.09591577      -0.24055698      -1.47764331
H        1.59530782      -1.67976182      -0.46924671
13
Frame=4 idx=006389 GeodesicLength=0.22718920538137544 rxn_smarts="[C:1]1([H:8])([H:9])[C@:2]2([H:10])[O:3][C@@:4]1([H:11])[C@:5]1([H:12])[O:6][C@:7]21[H:13]>>[C:1]1([H:8])([H:9])[C@@:2]2([H:10])[O:3][C@:4]1([H:11])[C-:5]=[O+:6][C:7]2([H:12])[H:13]"
C       -0.74915625       0.24459341       1.01715477
C       -0.49722985      -0.82648163      -0.04789857
O       -1.06634667       0.07483242      -1.03917558
C       -0.45043872       1.10565980      -0.21473227
C        1.08203601       1.01936470      -0.54421244
O        1.70442575       0.20138121       0.38550359
C        1.00014535      -0.77799081      -0.37428735
H       -1.80165693       0.29013716       1.28384841
H       -0.10495712       0.30121779       1.88943541
H       -0.95761011      -1.81238978      -0.03100562
H       -0.86460265       2.09837596      -0.37516956
H        1.11596004      -0.23304703      -1.49169707
H        1.58943114      -1.68565320      -0.45776371
13
Frame=5 idx=006389 GeodesicLength=0.2839668806870806 rxn_smarts="[C:1]1([H:8])([H:9])[C@:2]2([H:10])[O:3][C@@:4]1([H:11])[C@:5]1([H:12])[O:6][C@:7]21[H:13]>>[C:1]1([H:8])([H:9])[C@@:2]2([H:10])[O:3][C@:4]1([H:11])[C-:5]=[O+:6][C:7]2([H:12])[H:13]"
C       -0.74913308       0.24429640       1.01770071
C       -0.49776823      -0.82678496      -0.04805968
O       -1.06798087       0.07501180      -1.03795472
C       -0.45265850       1.10686394      -0.21412343
C        1.07670954       1.01806371      -0.54081345
O        1.70681613       0.20100030       0.37978117
C        0.99827428      -0.78005630      -0.37723257
H       -1.80093431       0.28956882       1.28723510
H       -0.10396739       0.30176207       1.88930961
H       -0.96020615      -1.81175419      -0.02997062
H       -0.86915703       2.09858649      -0.37382934
H        1.13658493      -0.22515768      -1.50560619
H        1.58342067      -1.69140041      -0.44643661
13
Frame=6 idx=006389 GeodesicLength=0.34073864878735144 rxn_smarts="[C:1]1([H:8])([H:9])[C@:2]2([H:10])[O:3][C@@:4]1([H:11])[C@:5]1([H:12])[O:6][C@:7]21[H:13]>>[C:1]1([H:8])([H:9])[C@@:2]2([H:10])[O:3][C@:4]1([H:11])[C-:5]=[O+:6][C:7]2([H:12])[H:13]"
C       -0.74912818       0.24401309       1.01827480
C       -0.49838799      -0.82714296      -0.04813723
O       -1.06971520       0.07510708      -1.03667164
C       -0.45490249       1.10800973      -0.21353603
C        1.07135668       1.01659258      -0.53752819
O        1.70912259       0.20054185       0.37396984
C        0.99630391      -0.78221649      -0.38024906
H       -1.80021230       0.28906490       1.29067893
H       -0.10296571       0.30233130       1.88918662
H       -0.96288015      -1.81116644      -0.02880066
H       -0.87367824       2.09874712      -0.37255771
H        1.15780755      -0.21687289      -1.51935868
H        1.57727952      -1.69700886      -0.43527099
13
Frame=7 idx=006389 GeodesicLength=0.39748759123112687 rxn_smarts="[C:1]1([H:8])([H:9])[C@:2]2([H:10])[O:3][C@@:4]1([H:11])[C@:5]1([H:12])[O:6][C@:7]21[H:13]>>[C:1]1([H:8])([H:9])[C@@:2]2([H:10])[O:3][C@:4]1([H:11])[C-:5]=[O+:6][C:7]2([H:12])[H:13]"
C       -0.74913940       0.24374333       1.01887558
C       -0.49909047      -0.82755761      -0.04813001
O       -1.07155695       0.07511567      -1.03532288
C       -0.45717062       1.10909470      -0.21297396
C        1.06597579       1.01494793      -0.53436423
O        1.71133966       0.20000221       0.36806580
C        0.99422958      -0.78447401      -0.38334055
H       -1.79948677       0.28862758       1.29418055
H       -0.10194867       0.30292733       1.88906298
H       -0.96563265      -1.81062801      -0.02748958
H       -0.87816467       2.09885691      -0.37135749
H        1.17963912      -0.20817154      -1.53293420
H        1.57100604      -1.70248449      -0.42427203
13
Frame=8 idx=006389 GeodesicLength=0.45424085847848705 rxn_smarts="[C:1]1([H:8])([H:9])[C@:2]2([H:10])[O:3][C@@:4]1([H:11])[C@:5]1([H:12])[O:6][C@:7]21[H:13]>>[C:1]1([H:8])([H:9])[C@@:2]2([H:10])[O:3][C@:4]1([H:11])[C-:5]=[O+:6][C:7]2([H:12])[H:13]"
C       -0.74916578       0.24348865       1.01950384
C       -0.49987940      -0.82802983      -0.04803862
O       -1.07351588       0.07503570      -1.03390570
C       -0.45946419       1.11011749      -0.21243907
C        1.06056530       1.01312521      -0.53132981
O        1.71346563       0.19937824       0.36206394
C        0.99204770      -0.78683259      -0.38651296
H       -1.79875617       0.28825969       1.29774766
H       -0.10091229       0.30355109       1.88893782
H       -0.96846983      -1.81013889      -0.02603368
H       -0.88262068       2.09891376      -0.37023038
H        1.20210478      -0.19903243      -1.54632778
H        1.56460080      -1.70783609      -0.41343528
13
Frame=9 idx=006389 GeodesicLength=0.5109891038461615 rxn_smarts="[C:1]1([H:8])([H:9])[C@:2]2([H:10])[O:3][C@@:4]1([H:11])[C@:5]1([H:12])[O:6][C@:7]21[H:13]>>[C:1]1([H:8])([H:9])[C@@:2]2([H:10])[O:3][C@:4]1([H:11])[C-:5]=[O+:6][C:7]2([H:12])[H:13]"
C       -0.74920279       0.24324729       1.02015794
C       -0.50075642      -0.82856152      -0.04786273
O       -1.07559864       0.07486513      -1.03241704
C       -0.46178321       1.11107488      -0.21193610
C        1.05512076       1.01112078      -0.52843611
O        1.71549251       0.19866658       0.35595728
C        0.98975165      -0.78929518      -0.38977310
H       -1.79801205       0.28796277       1.30138359
H       -0.09985065       0.30420322       1.88880672
H       -0.97139558      -1.80969877      -0.02442851
H       -0.88704675       2.09891440      -0.36917773
H        1.22522383      -0.18942985      -1.55951861
H        1.55805734      -1.71306972      -0.40275562
13
Frame=10 idx=006389 GeodesicLength=0.5677359118299875 rxn_smarts="[C:1]1([H:8])([H:9])[C@:2]2([H:10])[O:3][C@@:4]1([H:11])[C@:5]1([H:12])[O:6][C@:7]21[H:13]>>[C:1]1([H:8])([H:9])[C@@:2]2([H:10])[O:3][C@:4]1([H:11])[C-:5]=[O+:6][C:7]2([H:12])[H:13]"
C       -0.74925012       0.24302172       1.02083821
C       -0.50172474      -0.82915509      -0.04760154
O       -1.07781593       0.07460021      -1.03085393
C       -0.46412878       1.11196539      -0.21146795
C        1.04964223       1.00893008      -0.52569055
O        1.71741905       0.19786287       0.34974291
C        0.98733813      -0.79186673      -0.39312517
H       -1.79725431       0.28774143       1.30509231
H       -0.09876027       0.30488759       1.88866874
H       -0.97441281      -1.80931065      -0.02266741
H       -0.89144414       2.09885897      -0.36820318
H        1.24901335      -0.17934174      -1.57249101
H        1.55137836      -1.71819406      -0.39224143
13
Frame=11 idx=006389 GeodesicLength=0.6244806346211196 rxn_smarts="[C:1]1([H:8])([H:9])[C@:2]2([H:10])[O:3][C@@:4]1([H:11])[C@:5]1([H:12])[O:6][C@:7]21[H:13]>>[C:1]1([H:8])([H:9])[C@@:2]2([H:10])[O:3][C@:4]1([H:11])[C-:5]=[O+:6][C:7]2([H:12])[H:13]"
C       -0.74930591       0.24281262       1.02154369
C       -0.50278715      -0.82981234      -0.04725356
O       -1.08017576       0.07423796      -1.02921239
C       -0.46650049       1.11278614      -0.21103885
C        1.04412761       1.00654747      -0.52310327
O        1.71923967       0.19696270       0.34341617
C        0.98480115      -0.79455173      -0.39657243
H       -1.79647885       0.28759807       1.30887686
H       -0.09763733       0.30560514       1.88852051
H       -0.97752409      -1.80897551      -0.02074201
H       -0.89581027       2.09874538      -0.36731164
H        1.27348844      -0.16874153      -1.58522519
H        1.54456299      -1.72321438      -0.38189788
13
Frame=12 idx=006389 GeodesicLength=0.681223209951171 rxn_smarts="[C:1]1([H:8])([H:9])[C@:2]2([H:10])[O:3][C@@:4]1([H:11])[C@:5]1([H:12])[O:6][C@:7]21[H:13]>>[C:1]1([H:8])([H:9])[C@@:2]2([H:10])[O:3][C@:4]1([H:11])[C-:5]=[O+:6][C:7]2([H:12])[H:13]"
C       -0.74936813       0.24262104       1.02227374
C       -0.50394641      -0.83053570      -0.04681707
O       -1.08268664       0.07377446      -1.02748867
C       -0.46889828       1.11353411      -0.21065304
C        1.03857529       1.00396713      -0.52068431
O        1.72094987       0.19596127       0.33697273
C        0.98213543      -0.79735549      -0.40011806
H       -1.79568201       0.28753680       1.31274017
H       -0.09647766       0.30635893       1.88835926
H       -0.98073258      -1.80869505      -0.01864478
H       -0.90014394       2.09857158      -0.36650760
H        1.29866405      -0.15760132      -1.59770067
H        1.53761102      -1.72813776      -0.37173171
13
Frame=13 idx=006389 GeodesicLength=0.7379637156759865 rxn_smarts="[C:1]1([H:8])([H:9])[C@:2]2([H:10])[O:3][C@@:4]1([H:11])[C@:5]1([H:12])[O:6][C@:7]21[H:13]>>[C:1]1([H:8])([H:9])[C@@:2]2([H:10])[O:3][C@:4]1([H:11])[C-:5]=[O+:6][C:7]2([H:12])[H:13]"
C       -0.74943456       0.24244814       1.02302761
C       -0.50520540      -0.83132781      -0.04629024
O       -1.08535706       0.07320547      -1.02567905
C       -0.47132195       1.11420604      -0.21031512
C        1.03298363       1.00118274      -0.51844429
O        1.72254514       0.19485335       0.33040787
C        0.97933537      -0.80028399      -0.40376486
H       -1.79485978       0.28756207       1.31668522
H       -0.09527672       0.30715232       1.88818193
H       -0.98404167      -1.80847097      -0.01636782
H       -0.90444376       2.09833526      -0.36579589
H        1.32455460      -0.14589078      -1.60989555
H        1.53052217      -1.73297184      -0.36174982
13
Frame=14 idx=006389 GeodesicLength=0.7947022878698694 rxn_smarts="[C:1]1([H:8])([H:9])[C@:2]2([H:10])[O:3][C@@:4]1([H:11])[C@:5]1([H:12])[O:6][C@:7]21[H:13]>>[C:1]1([H:8])([H:9])[C@@:2]2([H:10])[O:3][C@:4]1([H:11])[C-:5]=[O+:6][C:7]2([H:12])[H:13]"
C       -0.74950275       0.24229520       1.02380443
C       -0.50656704      -0.83219147      -0.04567098
O       -1.08819529       0.07252633      -1.02377983
C       -0.47377118       1.11479841      -0.21003005
C        1.02735103       0.99818752      -0.51639415
O        1.72402114       0.19363307       0.32371658
C        0.97639513      -0.80334378      -0.40751523
H       -1.79400785       0.28767873       1.32071483
H       -0.09402964       0.30798911       1.88798521
H       -0.98745491      -1.80830508      -0.01390255
H       -0.90870816       2.09803383      -0.36518205
H        1.35117362      -0.13357674      -1.62178662
H        1.52329590      -1.73772513      -0.35195959
13
Frame=15 idx=006389 GeodesicLength=0.8514390964197641 rxn_smarts="[C:1]1([H:8])([H:9])[C@:2]2([H:10])[O:3][C@@:4]1([H:11])[C@:5]1([H:12])[O:6][C@:7]21[H:13]>>[C:1]1([H:8])([H:9])[C@@:2]2([H:10])[O:3][C@:4]1([H:11])[C-:5]=[O+:6][C:7]2([H:12])[H:13]"
C       -0.74956994       0.24216361       1.02460319
C       -0.50803442      -0.83312972      -0.04495707
O       -1.09120948       0.07173203      -1.02178737
C       -0.47624546       1.11530741      -0.20980316
C        1.02167590       0.99497414      -0.51454549
O        1.72537368       0.19229405       0.31689325
C        0.97330857      -0.80654220      -0.41137119
H       -1.79312148       0.28789197       1.32483183
H       -0.09273105       0.30887333       1.88776538
H       -0.99097618      -1.80819917      -0.01124005
H       -0.91293539       2.09766439      -0.36467209
H        1.37853385      -0.12062286      -1.63334923
H        1.51593139      -1.74240699      -0.34236802
13
Frame=16 idx=006389 GeodesicLength=0.9081744335109548 rxn_smarts="[C:1]1([H:8])([H:9])[C@:2]2([H:10])[O:3][C@@:4]1([H:11])[C@:5]1([H:12])[O:6][C@:7]21[H:13]>>[C:1]1([H:8])([H:9])[C@@:2]2([H:10])[O:3][C@:4]1([H:11])[C-:5]=[O+:6][C:7]2([H:12])[H:13]"
C       -0.74963308       0.24205490       1.02542271
C       -0.50961072      -0.83414583      -0.04414601
O       -1.09440758       0.07081711      -1.01969805
C       -0.47874412       1.11572886      -0.20964027
C        1.01595668       0.99153468      -0.51291028
O        1.72659874       0.19082909       0.30993170
C        0.97006920      -0.80988743      -0.41533432
H       -1.79219548       0.28820750       1.32903900
H       -0.09137507       0.30980946       1.88751837
H       -0.99460968      -1.80815508      -0.00837064
H       -0.91712349       2.09722367      -0.36427277
H        1.40664711      -0.10698905      -1.64455728
H        1.50842748      -1.74702787      -0.33298216
