15
Frame=0 idx=009118 GeodesicLength=0.0 rxn_smarts="[C:1]([C:2](=[O:3])[C:4]1([O:5][H:11])[C:6]([H:12])([H:13])[C:7]1([H:14])[H:15])([H:8])([H:9])[H:10]>>[C:1]([C:2]1=[C:4]([O:5][H:11])[C:6]([H:12])([H:13])[C:7]([H:14])([H:15])[O:3]1)([H:8])([H:9])[H:10]"
C        1.83811258      -0.44828186      -1.09472940
C        0.76261905       0.21585963      -0.27701376
O        0.86906863       1.42809804       0.02320087
C       -0.38271909      -0.48885050       0.09446621
O       -0.50330772      -1.85374847       0.13775489
C       -1.66788129       0.30315359       0.21010965
C       -1.11430624       1.25731653       1.13502565
H        2.75355154      -0.53525861      -0.50594543
H        1.54023698      -1.43402346      -1.45127793
H        2.06248742       0.19706334      -1.94479632
H        0.20455066      -2.22645279       0.66586278
H       -2.39366865      -0.36869095       0.66849068
H       -2.05345436       0.71286953      -0.72299151
H       -1.01372050       2.30824324       0.91732716
H       -0.90156908       0.93270274       2.14451641
15
Frame=1 idx=009118 GeodesicLength=0.06303471707820087 rxn_smarts="[C:1]([C:2](=[O:3])[C:4]1([O:5][H:11])[C:6]([H:12])([H:13])[C:7]1([H:14])[H:15])([H:8])([H:9])[H:10]>>[C:1]([C:2]1=[C:4]([O:5][H:11])[C:6]([H:12])([H:13])[C:7]([H:14])([H:15])[O:3]1)([H:8])([H:9])[H:10]"
C        1.82416588      -0.44075551      -1.12022630
C        0.77803163       0.19878504      -0.24894466
O        0.91870270       1.39166965       0.11525685
C       -0.37826780      -0.49064313       0.11740587
O       -0.49427091      -1.85376710       0.20452329
C       -1.66427244       0.30091690       0.18654278
C       -1.10734143       1.24965033       1.12103017
H        2.75472624      -0.55552402      -0.56081282
H        1.50507934      -1.41082503      -1.50073307
H        2.03011387       0.23136902      -1.95411087
H        0.23350801      -2.20644732       0.71975943
H       -2.40913176      -0.35762189       0.63295703
H       -2.02149617       0.70721816      -0.75884195
H       -1.01439557       2.30129610       0.90148813
H       -0.95515157       0.93467881       2.14470611
15
Frame=2 idx=009118 GeodesicLength=0.12619205729410177 rxn_smarts="[C:1]([C:2](=[O:3])[C:4]1([O:5][H:11])[C:6]([H:12])([H:13])[C:7]1([H:14])[H:15])([H:8])([H:9])[H:10]>>[C:1]([C:2]1=[C:4]([O:5][H:11])[C:6]([H:12])([H:13])[C:7]([H:14])([H:15])[O:3]1)([H:8])([H:9])[H:10]"
C        1.81030836      -0.43137270      -1.14234626
C        0.79190450       0.18070529      -0.22223623
O        0.96375621       1.35142763       0.20188324
C       -0.37510905      -0.49352149       0.13892203
O       -0.48817180      -1.85359891       0.26662876
C       -1.66030795       0.29756260       0.16521135
C       -1.09769620       1.24234686       1.10647948
H        2.75394808      -0.57099723      -0.61139351
H        1.47163932      -1.38545206      -1.54580783
H        1.99941690       0.26683421      -1.95867960
H        0.25816571      -2.18944629       0.76699202
H       -2.42215741      -0.34722302       0.60241333
H       -1.99201564       0.69875947      -0.79120176
H       -1.01120199       2.29395393       0.88200981
H       -1.00247903       0.94002170       2.14112518
15
Frame=3 idx=009118 GeodesicLength=0.18955991668466843 rxn_smarts="[C:1]([C:2](=[O:3])[C:4]1([O:5][H:11])[C:6]([H:12])([H:13])[C:7]1([H:14])[H:15])([H:8])([H:9])[H:10]>>[C:1]([C:2]1=[C:4]([O:5][H:11])[C:6]([H:12])([H:13])[C:7]([H:14])([H:15])[O:3]1)([H:8])([H:9])[H:10]"
C        1.79675127      -0.42039976      -1.16153527
C        0.80449350       0.16148134      -0.19672486
O        1.00423686       1.30817023       0.28279630
C       -0.37322419      -0.49738954       0.15875558
O       -0.48480934      -1.85331432       0.32495653
C       -1.65617499       0.29339390       0.14562879
C       -1.08568142       1.23500309       1.09167156
H        2.75204775      -0.58122243      -0.65836440
H        1.44061587      -1.35864559      -1.58660182
H        1.96953452       0.30287457      -1.95954590
H        0.27860746      -2.17491099       0.80932018
H       -2.43353084      -0.33709707       0.57577332
H       -1.96459510       0.68840032      -0.82074042
H       -1.00448625       2.28598658       0.86015352
H       -1.04378510       0.94766967       2.13445691
15
Frame=4 idx=009118 GeodesicLength=0.2532621639362312 rxn_smarts="[C:1]([C:2](=[O:3])[C:4]1([O:5][H:11])[C:6]([H:12])([H:13])[C:7]1([H:14])[H:15])([H:8])([H:9])[H:10]>>[C:1]([C:2]1=[C:4]([O:5][H:11])[C:6]([H:12])([H:13])[C:7]([H:14])([H:15])[O:3]1)([H:8])([H:9])[H:10]"
C        1.78346234      -0.40794555      -1.17827475
C        0.81584668       0.14128707      -0.17251107
O        1.04077223       1.26240574       0.35862827
C       -0.37237785      -0.50215192       0.17722985
O       -0.48368690      -1.85290453       0.38062635
C       -1.65200570       0.28838450       0.12761873
C       -1.07168920       1.22764213       1.07651638
H        2.74894315      -0.58778687      -0.70193705
H        1.41117719      -1.32991147      -1.62466237
H        1.94124095       0.33978347      -1.95671349
H        0.29575123      -2.16263175       0.84758000
H       -2.44364527      -0.32717842       0.55273643
H       -1.93922573       0.67594362      -0.84791477
H       -0.99485314       2.27743444       0.83595226
H       -1.07970999       0.95762954       2.12512522
15
Frame=5 idx=009118 GeodesicLength=0.3173727476512603 rxn_smarts="[C:1]([C:2](=[O:3])[C:4]1([O:5][H:11])[C:6]([H:12])([H:13])[C:7]1([H:14])[H:15])([H:8])([H:9])[H:10]>>[C:1]([C:2]1=[C:4]([O:5][H:11])[C:6]([H:12])([H:13])[C:7]([H:14])([H:15])[O:3]1)([H:8])([H:9])[H:10]"
C        1.77044690      -0.39414810      -1.19290531
C        0.82629584       0.11989105      -0.14921637
O        1.07371528       1.21452991       0.42976526
C       -0.37243409      -0.50781797       0.19452002
O       -0.48469625      -1.85240683       0.43434345
C       -1.64778715       0.28269882       0.11081877
C       -1.05596844       1.22011942       1.06109937
H        2.74522755      -0.59032514      -0.74293029
H        1.38353521      -1.29969574      -1.66006510
H        1.91350684       0.37734232      -1.95084846
H        0.30970428      -2.15249160       0.88273767
H       -2.45290567      -0.31718552       0.53246515
H       -1.91535751       0.66179965      -0.87326673
H       -0.98254754       2.26822745       0.80994613
H       -1.11073524       0.96946231       2.11353645
15
Frame=6 idx=009118 GeodesicLength=0.3821600597913909 rxn_smarts="[C:1]([C:2](=[O:3])[C:4]1([O:5][H:11])[C:6]([H:12])([H:13])[C:7]1([H:14])[H:15])([H:8])([H:9])[H:10]>>[C:1]([C:2]1=[C:4]([O:5][H:11])[C:6]([H:12])([H:13])[C:7]([H:14])([H:15])[O:3]1)([H:8])([H:9])[H:10]"
C        1.75748913      -0.37897166      -1.20575137
C        0.83608034       0.09708637      -0.12652205
O        1.10360770       1.16454756       0.49705771
C       -0.37317928      -0.51443687       0.21103346
O       -0.48759648      -1.85183094       0.48691250
C       -1.64338985       0.27632427       0.09497012
C       -1.03865820       1.21242509       1.04525565
H        2.74093495      -0.58916253      -0.78199097
H        1.35716965      -1.26773776      -1.69346069
H        1.88581072       0.41588856      -1.94200870
H        0.32079630      -2.14447750       0.91554623
H       -2.46142328      -0.30698049       0.51444405
H       -1.89248375       0.64584378      -0.89727267
H       -0.96763849       2.25830062       0.78197581
H       -1.13751946       0.98318150       2.09981093
15
Frame=7 idx=009118 GeodesicLength=0.4478469355366801 rxn_smarts="[C:1]([C:2](=[O:3])[C:4]1([O:5][H:11])[C:6]([H:12])([H:13])[C:7]1([H:14])[H:15])([H:8])([H:9])[H:10]>>[C:1]([C:2]1=[C:4]([O:5][H:11])[C:6]([H:12])([H:13])[C:7]([H:14])([H:15])[O:3]1)([H:8])([H:9])[H:10]"
C        1.74438947      -0.36233186      -1.21692061
C        0.84541308       0.07265809      -0.10407258
O        1.13085391       1.11255805       0.56106944
C       -0.37444260      -0.52206950       0.22719706
O       -0.49230337      -1.85116414       0.53908092
C       -1.63869903       0.26920097       0.07988720
C       -1.01985731       1.20457891       1.02879431
H        2.73607809      -0.58449753      -0.81960232
H        1.33153692      -1.23368296      -1.72523151
H        1.85772709       0.45566803      -1.93007464
H        0.32933773      -2.13887879       0.94612737
H       -2.46929977      -0.29641601       0.49830379
H       -1.87017793       0.62778926      -0.92031086
H       -0.95019283       2.24759941       0.75177540
H       -1.16036346       0.99898805       2.08397703
15
Frame=8 idx=009118 GeodesicLength=0.514753405422767 rxn_smarts="[C:1]([C:2](=[O:3])[C:4]1([O:5][H:11])[C:6]([H:12])([H:13])[C:7]1([H:14])[H:15])([H:8])([H:9])[H:10]>>[C:1]([C:2]1=[C:4]([O:5][H:11])[C:6]([H:12])([H:13])[C:7]([H:14])([H:15])[O:3]1)([H:8])([H:9])[H:10]"
C        1.73096861      -0.34410302      -1.22652839
C        0.85443828       0.04636404      -0.08172566
O        1.15580403       1.05845664       0.62235428
C       -0.37612433      -0.53079900       0.24324347
O       -0.49873794      -1.85039727       0.59138584
C       -1.63362444       0.26126036       0.06542069
C       -0.99951905       1.19656029       1.01150967
H        2.73063138      -0.57625572      -0.85613565
H        1.30628587      -1.19722521      -1.75566554
H        1.82879337       0.49696950      -1.91488928
H        0.33535863      -2.13583024       0.97489371
H       -2.47656155      -0.28539568       0.48379603
H       -1.84817108       0.60739096      -0.94264632
H       -0.93004037       2.23600740       0.71903098
H       -1.17950142       1.01699695       2.06595617
15
Frame=9 idx=009118 GeodesicLength=0.5832938918100149 rxn_smarts="[C:1]([C:2](=[O:3])[C:4]1([O:5][H:11])[C:6]([H:12])([H:13])[C:7]1([H:14])[H:15])([H:8])([H:9])[H:10]>>[C:1]([C:2]1=[C:4]([O:5][H:11])[C:6]([H:12])([H:13])[C:7]([H:14])([H:15])[O:3]1)([H:8])([H:9])[H:10]"
C        1.71701313      -0.32408385      -1.23462851
C        0.86322169       0.01800762      -0.05946387
O        1.17872928       1.00200123       0.68140270
C       -0.37811782      -0.54070536       0.25939698
O       -0.50669229      -1.84945852       0.64431421
C       -1.62810666       0.25232426       0.05153007
C       -0.97755262       1.18835657       0.99306008
H        2.72428104      -0.56489066      -0.89178197
H        1.28068107      -1.15747594      -1.78533715
H        1.79915983       0.54028184      -1.89582436
H        0.33896158      -2.13538616       1.00220881
H       -2.48314140      -0.27390550       0.47094465
H       -1.82640118       0.58411581      -0.96439240
H       -0.90697472       2.22331375       0.68312030
H       -1.19506093       1.03750491       2.04545047
15
Frame=10 idx=009118 GeodesicLength=0.6535979875429064 rxn_smarts="[C:1]([C:2](=[O:3])[C:4]1([O:5][H:11])[C:6]([H:12])([H:13])[C:7]1([H:14])[H:15])([H:8])([H:9])[H:10]>>[C:1]([C:2]1=[C:4]([O:5][H:11])[C:6]([H:12])([H:13])[C:7]([H:14])([H:15])[O:3]1)([H:8])([H:9])[H:10]"
C        1.70256558      -0.30230294      -1.24116043
C        0.87172294      -0.01244152      -0.03759706
O        1.19963455       0.94357021       0.73782775
C       -0.38046320      -0.55175611       0.27546896
O       -0.51619622      -1.84813583       0.69810373
C       -1.62223401       0.24244081       0.03814695
C       -0.95389031       1.17979210       0.97346326
H        2.71716088      -0.54997868      -0.92635962
H        1.25498453      -1.11467067      -1.81390323
H        1.76863407       0.58526585      -1.87300561
H        0.33997726      -2.13752641       1.02815249
H       -2.48913649      -0.26184073       0.45959085
H       -1.80503113       0.55812490      -0.98555795
H       -0.88106663       2.20933905       0.64429392
H       -1.20666181       1.06011996       2.02253599
15
Frame=11 idx=009118 GeodesicLength=0.7258560047826256 rxn_smarts="[C:1]([C:2](=[O:3])[C:4]1([O:5][H:11])[C:6]([H:12])([H:13])[C:7]1([H:14])[H:15])([H:8])([H:9])[H:10]>>[C:1]([C:2]1=[C:4]([O:5][H:11])[C:6]([H:12])([H:13])[C:7]([H:14])([H:15])[O:3]1)([H:8])([H:9])[H:10]"
C        1.68759626      -0.27880941      -1.24596540
C        0.87992929      -0.04507567      -0.01629926
O        1.21853724       0.88338853       0.79141005
C       -0.38315062      -0.56387666       0.29137028
O       -0.52725833      -1.84602678       0.75305186
C       -1.61599958       0.23170854       0.02521519
C       -0.92849585       1.17072410       0.95267138
H        2.70942196      -0.53074877      -0.95975523
H        1.22964426      -1.06930845      -1.84072334
H        1.73646366       0.63143327      -1.84655265
H        0.33824628      -2.14240585       1.05222303
H       -2.49453424      -0.24894274       0.44954644
H       -1.78405882       0.52955049      -1.00609371
H       -0.85240057       2.19385265       0.60270585
H       -1.21394094       1.08453675       1.99719549
15
Frame=12 idx=009118 GeodesicLength=0.8001538700809789 rxn_smarts="[C:1]([C:2](=[O:3])[C:4]1([O:5][H:11])[C:6]([H:12])([H:13])[C:7]1([H:14])[H:15])([H:8])([H:9])[H:10]>>[C:1]([C:2]1=[C:4]([O:5][H:11])[C:6]([H:12])([H:13])[C:7]([H:14])([H:15])[O:3]1)([H:8])([H:9])[H:10]"
C        1.67226521      -0.25369485      -1.24916885
C        0.88764356      -0.07955426       0.00366462
O        1.23550161       0.82175706       0.84177305
C       -0.38619445      -0.57695690       0.30670843
O       -0.53941088      -1.84292566       0.80879029
C       -1.60967396       0.22007532       0.01283038
C       -0.90139391       1.16095089       0.93069336
H        2.70087580      -0.50813626      -0.99144940
H        1.20442874      -1.02093004      -1.86633464
H        1.70391001       0.67866382      -1.81631331
H        0.33368289      -2.14919861       1.07547101
H       -2.49935043      -0.23544094       0.44104774
H       -1.76422499       0.49847214      -1.02578124
H       -0.82129374       2.17665669       0.55856147
H       -1.21676547       1.11026159       1.96950710
15
Frame=13 idx=009118 GeodesicLength=0.8767256228849934 rxn_smarts="[C:1]([C:2](=[O:3])[C:4]1([O:5][H:11])[C:6]([H:12])([H:13])[C:7]1([H:14])[H:15])([H:8])([H:9])[H:10]>>[C:1]([C:2]1=[C:4]([O:5][H:11])[C:6]([H:12])([H:13])[C:7]([H:14])([H:15])[O:3]1)([H:8])([H:9])[H:10]"
C        1.65661219      -0.22703756      -1.25067866
C        0.89481637      -0.11571925       0.02202210
O        1.25061143       0.75893560       0.88878081
C       -0.38955079      -0.59089247       0.32142893
O       -0.55236076      -1.83851132       0.86532785
C       -1.60337454       0.20752918       0.00104047
C       -0.87265134       1.15038749       0.90742287
H        2.69149277      -0.48242940      -1.02117650
H        1.17923227      -0.96936342      -1.89063785
H        1.67127289       0.72668295      -1.78216417
H        0.32632620      -2.15779810       1.09768192
H       -2.50357319      -0.22129952       0.43419480
H       -1.74586951       0.46482954      -1.04450866
H       -0.78803697       2.15757460       0.51181342
H       -1.21494702       1.13711168       1.93945266
15
Frame=14 idx=009118 GeodesicLength=0.9557092025975689 rxn_smarts="[C:1]([C:2](=[O:3])[C:4]1([O:5][H:11])[C:6]([H:12])([H:13])[C:7]1([H:14])[H:15])([H:8])([H:9])[H:10]>>[C:1]([C:2]1=[C:4]([O:5][H:11])[C:6]([H:12])([H:13])[C:7]([H:14])([H:15])[O:3]1)([H:8])([H:9])[H:10]"
C        1.64074803      -0.19902224      -1.25049925
C        0.90136036      -0.15329066       0.03835104
O        1.26393047       0.69529251       0.93213302
C       -0.39319195      -0.60553354       0.33531414
O       -0.56572740      -1.83254971       0.92222437
C       -1.59726306       0.19414984      -0.01010811
C       -0.84239515       1.13887967       0.88291834
H        2.68131742      -0.45400565      -1.04866248
H        1.15415374      -0.91470606      -1.91350440
H        1.63897242       0.77504283      -1.74425768
H        0.31618398      -2.16765154       1.11923795
H       -2.50720151      -0.20653539       0.42900276
H       -1.72940138       0.42889521      -1.06210848
H       -0.75307011       2.13646176       0.46278744
H       -1.20841585       1.16457300       1.90717134
15
Frame=15 idx=009118 GeodesicLength=1.0373360928917248 rxn_smarts="[C:1]([C:2](=[O:3])[C:4]1([O:5][H:11])[C:6]([H:12])([H:13])[C:7]1([H:14])[H:15])([H:8])([H:9])[H:10]>>[C:1]([C:2]1=[C:4]([O:5][H:11])[C:6]([H:12])([H:13])[C:7]([H:14])([H:15])[O:3]1)([H:8])([H:9])[H:10]"
C        1.62474390      -0.16986681      -1.24858368
C        0.90725022      -0.19204608       0.05242254
O        1.27558899       0.63114764       0.97169128
C       -0.39709195      -0.62072165       0.34824716
O       -0.57923673      -1.82486665       0.97903053
C       -1.59143638       0.18010569      -0.02061309
C       -0.81074709       1.12633843       0.85725620
H        2.67054421      -0.42267298      -1.07367007
H        1.12958188      -0.85760452      -1.93448122
H        1.60670111       0.82317007      -1.70300320
H        0.30326484      -2.17844758       1.14012233
H       -2.51022872      -0.19104089       0.42537596
H       -1.71505181       0.39106301      -1.07848442
H       -0.71678312       2.11326610       0.41182973
H       -1.19709935       1.19217622       1.87285994
15
Frame=16 idx=009118 GeodesicLength=1.1216908813390165 rxn_smarts="[C:1]([C:2](=[O:3])[C:4]1([O:5][H:11])[C:6]([H:12])([H:13])[C:7]1([H:14])[H:15])([H:8])([H:9])[H:10]>>[C:1]([C:2]1=[C:4]([O:5][H:11])[C:6]([H:12])([H:13])[C:7]([H:14])([H:15])[O:3]1)([H:8])([H:9])[H:10]"
C        1.60873582      -0.13987586      -1.24505839
C        0.91239043      -0.23156595       0.06382302
O        1.28568054       0.56690590       1.00718849
C       -0.40121012      -0.63627134       0.35999285
O       -0.59246938      -1.81556451       1.03471951
C       -1.58605963       0.16554124      -0.03044573
C       -0.77797637       1.11261436       0.83064190
H        2.65917889      -0.38932579      -1.09602207
H        1.10545808      -0.79812473      -1.95365516
H        1.57522068       0.87060508      -1.65869201
H        0.28795835      -2.18910057       1.16142153
H       -2.51266219      -0.17490761       0.42322534
H       -1.70317072       0.35183504      -1.09349252
H       -0.67981377       2.08796831       0.35953299
H       -1.18126062       1.21926642       1.83682024
