17
Frame=0 idx=009813 GeodesicLength=0.0 rxn_smarts="[C:1]1([H:8])([H:9])[C:2]([H:10])([H:11])[O:3][C:4]([H:12])([H:13])[C:5]([H:14])=[C:6]([H:15])[C:7]1([H:16])[H:17]>>[C:1]1([H:8])([H:9])[C:2]([H:10])([H:11])[O:3][C:4]([H:12])([H:13])[C:5]([H:14])([H:15])[C:6][C:7]1([H:16])[H:17]"
C       -1.37119804      -0.12944370       0.31350789
C       -0.77079341      -1.32538755      -0.41573897
O        0.56570801      -1.12777587      -0.83157027
C        1.44547922      -0.70302619       0.17049813
C        1.43228722       0.80346151       0.39478405
C        0.39358513       1.72906271       0.26528514
C       -0.92432303       1.21784905      -0.26526431
H       -1.11044245      -0.16049476       1.37658743
H       -2.45990486      -0.22089797       0.27238250
H       -0.83620579      -2.22760965       0.20781586
H       -1.32088587      -1.51784266      -1.33873516
H        1.25132675      -1.20689272       1.12902226
H        2.44699677      -1.00240586      -0.14682360
H        2.34856945       1.16830221       0.86664999
H        1.45684670       1.55798420      -0.58656850
H       -0.86741664       1.16842660      -1.35930644
H       -1.67962922       1.97669065      -0.05252593
17
Frame=1 idx=009813 GeodesicLength=0.03796714208401963 rxn_smarts="[C:1]1([H:8])([H:9])[C:2]([H:10])([H:11])[O:3][C:4]([H:12])([H:13])[C:5]([H:14])=[C:6]([H:15])[C:7]1([H:16])[H:17]>>[C:1]1([H:8])([H:9])[C:2]([H:10])([H:11])[O:3][C:4]([H:12])([H:13])[C:5]([H:14])([H:15])[C:6][C:7]1([H:16])[H:17]"
C       -1.37098770      -0.13128489       0.31378417
C       -0.77057039      -1.32654931      -0.41666649
O        0.56646654      -1.12998753      -0.83056229
C        1.44507281      -0.70350382       0.17245331
C        1.43718470       0.80368729       0.38817393
C        0.39572153       1.72528803       0.25782403
C       -0.92533077       1.21705122      -0.26324482
H       -1.11040713      -0.16358834       1.37677799
H       -2.45969589      -0.22273311       0.27218340
H       -0.83844742      -2.22936504       0.20583182
H       -1.32003406      -1.51726697      -1.34044301
H        1.24549737      -1.20333056       1.13192606
H        2.44638293      -1.00845490      -0.14029443
H        2.34786514       1.16811111       0.87052963
H        1.46283933       1.57450999      -0.59476588
H       -0.87307539       1.17070233      -1.35794816
H       -1.67848160       1.97671449      -0.04555925
17
Frame=2 idx=009813 GeodesicLength=0.07593154222103123 rxn_smarts="[C:1]1([H:8])([H:9])[C:2]([H:10])([H:11])[O:3][C:4]([H:12])([H:13])[C:5]([H:14])=[C:6]([H:15])[C:7]1([H:16])[H:17]>>[C:1]1([H:8])([H:9])[C:2]([H:10])([H:11])[O:3][C:4]([H:12])([H:13])[C:5]([H:14])([H:15])[C:6][C:7]1([H:16])[H:17]"
C       -1.37077019      -0.13312526       0.31405232
C       -0.77035675      -1.32773868      -0.41756862
O        0.56721351      -1.13226392      -0.82954459
C        1.44466726      -0.70400827       0.17438700
C        1.44211570       0.80384050       0.38150881
C        0.39790125       1.72143498       0.25023757
C       -0.92628574       1.21623127      -0.26124561
H       -1.11037618      -0.16666731       1.37696235
H       -2.45948138      -0.22453764       0.27196483
H       -0.84070273      -2.23112251       0.20389762
H       -1.31919704      -1.51673162      -1.34211527
H        1.23969779      -1.19975616       1.13478542
H        2.44573103      -1.01450053      -0.13377595
H        2.34701197       1.16786068       0.87441268
H        1.46877251       1.59139737      -0.60279124
H       -0.87873530       1.17294545      -1.35658441
H       -1.67720570       1.97674166      -0.03858290
17
Frame=3 idx=009813 GeodesicLength=0.11388991958482338 rxn_smarts="[C:1]1([H:8])([H:9])[C:2]([H:10])([H:11])[O:3][C:4]([H:12])([H:13])[C:5]([H:14])=[C:6]([H:15])[C:7]1([H:16])[H:17]>>[C:1]1([H:8])([H:9])[C:2]([H:10])([H:11])[O:3][C:4]([H:12])([H:13])[C:5]([H:14])([H:15])[C:6][C:7]1([H:16])[H:17]"
C       -1.37054624      -0.13496281       0.31431221
C       -0.77015400      -1.32895688      -0.41844126
O        0.56794597      -1.13460623      -0.82851790
C        1.44426349      -0.70454056       0.17629497
C        1.44707782       0.80391807       0.37479717
C        0.40012333       1.71750139       0.24252677
C       -0.92718562       1.21538889      -0.25927084
H       -1.11035109      -0.16972767       1.37714069
H       -2.45926221      -0.22630738       0.27172604
H       -0.84297088      -2.23288032       0.20202214
H       -1.31837887      -1.51624237      -1.34374551
H        1.23393595      -1.19617807       1.13759377
H        2.44504169      -1.02053571      -0.12728303
H        2.34600805       1.16754781       0.87829657
H        1.47463953       1.60865645      -0.61062164
H       -0.88438763       1.17515181      -1.35521849
H       -1.67579930       1.97677357      -0.03161166
17
Frame=4 idx=009813 GeodesicLength=0.15184026581093724 rxn_smarts="[C:1]1([H:8])([H:9])[C:2]([H:10])([H:11])[O:3][C:4]([H:12])([H:13])[C:5]([H:14])=[C:6]([H:15])[C:7]1([H:16])[H:17]>>[C:1]1([H:8])([H:9])[C:2]([H:10])([H:11])[O:3][C:4]([H:12])([H:13])[C:5]([H:14])([H:15])[C:6][C:7]1([H:16])[H:17]"
C       -1.37031644      -0.13679544       0.31456388
C       -0.76996376      -1.33020508      -0.41928025
O        0.56866070      -1.13701539      -0.82748317
C        1.44386227      -0.70510183       0.17817291
C        1.45206788       0.80391667       0.36804866
C        0.40238694       1.71348550       0.23469134
C       -0.92802824       1.21452372      -0.25732500
H       -1.11033303      -0.17276505       1.37731341
H       -2.45903903      -0.22803810       0.27146681
H       -0.84525109      -2.23463669       0.20021440
H       -1.31758388      -1.51580501      -1.34532721
H        1.22821974      -1.19260561       1.14034449
H        2.44431583      -1.02655304      -0.12083129
H        2.34485164       1.16716997       0.88217891
H        1.48043474       1.62629708      -0.61823302
H       -0.89002388       1.17731707      -1.35385421
H       -1.67426041       1.97681122      -0.02466067
17
Frame=5 idx=009813 GeodesicLength=0.18975611719599886 rxn_smarts="[C:1]1([H:8])([H:9])[C:2]([H:10])([H:11])[O:3][C:4]([H:12])([H:13])[C:5]([H:14])=[C:6]([H:15])[C:7]1([H:16])[H:17]>>[C:1]1([H:8])([H:9])[C:2]([H:10])([H:11])[O:3][C:4]([H:12])([H:13])[C:5]([H:14])([H:15])[C:6][C:7]1([H:16])[H:17]"
C       -1.37008202      -0.13862073       0.31480602
C       -0.76978787      -1.33148503      -0.42008051
O        0.56935377      -1.13949245      -0.82644273
C        1.44346446      -0.70569312       0.18001400
C        1.45708449       0.80383496       0.36126450
C        0.40468874       1.70938357       0.22673925
C       -0.92881073       1.21363564      -0.25541312
H       -1.11032492      -0.17577521       1.37747956
H       -2.45881334      -0.22972442       0.27118460
H       -0.84753943      -2.23638869       0.19848718
H       -1.31681892      -1.51543074      -1.34685046
H        1.22255627      -1.18904674       1.14302941
H        2.44355437      -1.03254780      -0.11443738
H        2.34354287       1.16672350       0.88605542
H        1.48615069       1.64433329      -0.62559189
H       -0.89563182       1.17943667      -1.35249562
H       -1.67258662       1.97685730      -0.01774822
17
Frame=6 idx=009813 GeodesicLength=0.22766702333772257 rxn_smarts="[C:1]1([H:8])([H:9])[C:2]([H:10])([H:11])[O:3][C:4]([H:12])([H:13])[C:5]([H:14])=[C:6]([H:15])[C:7]1([H:16])[H:17]>>[C:1]1([H:8])([H:9])[C:2]([H:10])([H:11])[O:3][C:4]([H:12])([H:13])[C:5]([H:14])([H:15])[C:6][C:7]1([H:16])[H:17]"
C       -1.36984016      -0.14044004       0.31503959
C       -0.76962590      -1.33279690      -0.42084531
O        0.57002787      -1.14204141      -0.82539326
C        1.44306952      -0.70631631       0.18182374
C        1.46213010       0.80367134       0.35444263
C        0.40703533       1.70519510       0.21864913
C       -0.92953285       1.21272384      -0.25353515
H       -1.11032070      -0.17875847       1.37763940
H       -2.45858208      -0.23136930       0.27088357
H       -0.84984278      -2.23813977       0.19683163
H       -1.31607933      -1.51511157      -1.34832298
H        1.21693914      -1.18549585       1.14565691
H        2.44275791      -1.03852911      -0.10808635
H        2.34208007       1.16620927       0.88991734
H        1.49178166       1.66277759      -0.63269665
H       -0.90122413       1.18151163      -1.35114318
H       -1.67077367       1.97690995      -0.01086106
17
Frame=7 idx=009813 GeodesicLength=0.26556902839558777 rxn_smarts="[C:1]1([H:8])([H:9])[C:2]([H:10])([H:11])[O:3][C:4]([H:12])([H:13])[C:5]([H:14])=[C:6]([H:15])[C:7]1([H:16])[H:17]>>[C:1]1([H:8])([H:9])[C:2]([H:10])([H:11])[O:3][C:4]([H:12])([H:13])[C:5]([H:14])([H:15])[C:6][C:7]1([H:16])[H:17]"
C       -1.36958952      -0.14225419       0.31526309
C       -0.76947743      -1.33414191      -0.42157676
O        0.57068535      -1.14466770      -0.82433235
C        1.44267763      -0.70697353       0.18360467
C        1.46720916       0.80342520       0.34757139
C        0.40942930       1.70091843       0.21040805
C       -0.93019390       1.21178850      -0.25169162
H       -1.11031891      -0.18171517       1.37779168
H       -2.45834417      -0.23297460       0.27056492
H       -0.85216648      -2.23989241       0.19524353
H       -1.31536168      -1.51484639      -1.34974945
H        1.21136259      -1.18194435       1.14823414
H        2.44192763      -1.04450777      -0.10176507
H        2.34046451       1.16562776       0.89375145
H        1.49732164       1.68164471      -0.63953351
H       -0.90680908       1.18354465      -1.34979713
H       -1.66881665       1.97696878      -0.00398705
17
Frame=8 idx=009813 GeodesicLength=0.3034671710482928 rxn_smarts="[C:1]1([H:8])([H:9])[C:2]([H:10])([H:11])[O:3][C:4]([H:12])([H:13])[C:5]([H:14])=[C:6]([H:15])[C:7]1([H:16])[H:17]>>[C:1]1([H:8])([H:9])[C:2]([H:10])([H:11])[O:3][C:4]([H:12])([H:13])[C:5]([H:14])([H:15])[C:6][C:7]1([H:16])[H:17]"
C       -1.36932730      -0.14406436       0.31547766
C       -0.76934215      -1.33551982      -0.42227754
O        0.57132859      -1.14737586      -0.82325708
C        1.44228790      -0.70766643       0.18536093
C        1.47232550       0.80309528       0.34064017
C        0.41187487       1.69655095       0.20199879
C       -0.93079196       1.21082791      -0.24988309
H       -1.11031468      -0.18464688       1.37793674
H       -2.45809661      -0.23454337       0.27023329
H       -0.85451614      -2.24164913       0.19371500
H       -1.31466324      -1.51462838      -1.35113492
H        1.20581828      -1.17838542       1.15076754
H        2.44106284      -1.05049502      -0.09545756
H        2.33869450       1.16498188       0.89754429
H        1.50276541       1.70095110      -0.64608930
H       -0.91239637       1.18553643      -1.34845752
H       -1.66670944       1.97703113       0.00288261
17
Frame=9 idx=009813 GeodesicLength=0.3413619929275392 rxn_smarts="[C:1]1([H:8])([H:9])[C:2]([H:10])([H:11])[O:3][C:4]([H:12])([H:13])[C:5]([H:14])=[C:6]([H:15])[C:7]1([H:16])[H:17]>>[C:1]1([H:8])([H:9])[C:2]([H:10])([H:11])[O:3][C:4]([H:12])([H:13])[C:5]([H:14])([H:15])[C:6][C:7]1([H:16])[H:17]"
C       -1.36905291      -0.14586950       0.31568284
C       -0.76922123      -1.33693281      -0.42294550
O        0.57195595      -1.15016941      -0.82216824
C        1.44190084      -0.70839687       0.18708944
C        1.47748009       0.80267956       0.33364721
C        0.41437344       1.69208945       0.19341313
C       -0.93132540       1.20984184      -0.24811370
H       -1.11030580      -0.18754995       1.37807414
H       -2.45783909      -0.23607218       0.26988832
H       -0.85689126      -2.24340989       0.19225197
H       -1.31398708      -1.51446274      -1.35247615
H        1.20030852      -1.17482108       1.15325478
H        2.44016427      -1.05649288      -0.08916777
H        2.33676795       1.16426842       0.90129272
H        1.50810500       1.72071502      -0.65233799
H       -0.91798628       1.18748378      -1.34712805
H       -1.66444701       1.97709924       0.00974282
17
Frame=10 idx=009813 GeodesicLength=0.3792538074375226 rxn_smarts="[C:1]1([H:8])([H:9])[C:2]([H:10])([H:11])[O:3][C:4]([H:12])([H:13])[C:5]([H:14])=[C:6]([H:15])[C:7]1([H:16])[H:17]>>[C:1]1([H:8])([H:9])[C:2]([H:10])([H:11])[O:3][C:4]([H:12])([H:13])[C:5]([H:14])([H:15])[C:6][C:7]1([H:16])[H:17]"
C       -1.36876523      -0.14766862       0.31587827
C       -0.76911586      -1.33838277      -0.42357820
O        0.57256540      -1.15305144      -0.82106657
C        1.44151649      -0.70916638       0.18878675
C        1.48267377       0.80217531       0.32659080
C        0.41692657       1.68753017       0.18464082
C       -0.93179185       1.20882945      -0.24638798
H       -1.11028940      -0.19042060       1.37820327
H       -2.45757054      -0.23755772       0.26953022
H       -0.85929148      -2.24517412       0.19086079
H       -1.31333629      -1.51435422      -1.35376905
H        1.19483503      -1.17125324       1.15569262
H        2.43923177      -1.06250261      -0.08290006
H        2.33468098       1.16348443       0.90499352
H        1.51333245       1.74095498      -0.65825078
H       -0.92357885       1.18938291      -1.34581247
H       -1.66202296       1.97717446       0.01658803
17
Frame=11 idx=009813 GeodesicLength=0.417147990049587 rxn_smarts="[C:1]1([H:8])([H:9])[C:2]([H:10])([H:11])[O:3][C:4]([H:12])([H:13])[C:5]([H:14])=[C:6]([H:15])[C:7]1([H:16])[H:17]>>[C:1]1([H:8])([H:9])[C:2]([H:10])([H:11])[O:3][C:4]([H:12])([H:13])[C:5]([H:14])([H:15])[C:6][C:7]1([H:16])[H:17]"
C       -1.36846322      -0.14946207       0.31606260
C       -0.76902598      -1.33987165      -0.42417608
O        0.57315796      -1.15602694      -0.81995125
C        1.44113475      -0.70997749       0.19045365
C        1.48791050       0.80158038       0.31946131
C        0.41953791       1.68286924       0.17566596
C       -0.93218940       1.20779026      -0.24470855
H       -1.11026447      -0.19325706       1.37832297
H       -2.45729010      -0.23900071       0.26915846
H       -0.86171950      -2.24694288       0.18954237
H       -1.31271010      -1.51430509      -1.35501452
H        1.18939329      -1.16767672       1.15808451
H        2.43826516      -1.06853413      -0.07664595
H        2.33243494       1.16262960       0.90863388
H        1.51844037       1.76169396      -0.66380178
H       -0.92918257       1.19123416      -1.34451276
H       -1.65942953       1.97725713       0.02342519
17
Frame=12 idx=009813 GeodesicLength=0.45504719541047584 rxn_smarts="[C:1]1([H:8])([H:9])[C:2]([H:10])([H:11])[O:3][C:4]([H:12])([H:13])[C:5]([H:14])=[C:6]([H:15])[C:7]1([H:16])[H:17]>>[C:1]1([H:8])([H:9])[C:2]([H:10])([H:11])[O:3][C:4]([H:12])([H:13])[C:5]([H:14])([H:15])[C:6][C:7]1([H:16])[H:17]"
C       -1.36814373      -0.15124897       0.31623473
C       -0.76895198      -1.34140058      -0.42473801
O        0.57373274      -1.15910099      -0.81882193
C        1.44075596      -0.71083162       0.19208682
C        1.49319311       0.80089226       0.31224972
C        0.42221062       1.67810189       0.16646917
C       -0.93251542       1.20672269      -0.24308090
H       -1.11022471      -0.19605641       1.37843122
H       -2.45699457      -0.24039886       0.26877791
H       -0.86417839      -2.24871579       0.18829880
H       -1.31211118      -1.51431796      -1.35620971
H        1.18398295      -1.16408741       1.16042903
H        2.43726427      -1.07459479      -0.07040017
H        2.33002142       1.16169898       0.91221034
H        1.52342108       1.78295647      -0.66895878
H       -0.93480319       1.19303529      -1.34323286
H       -1.65665897       1.97734583       0.03025462
17
Frame=13 idx=009813 GeodesicLength=0.49294995888712967 rxn_smarts="[C:1]1([H:8])([H:9])[C:2]([H:10])([H:11])[O:3][C:4]([H:12])([H:13])[C:5]([H:14])=[C:6]([H:15])[C:7]1([H:16])[H:17]>>[C:1]1([H:8])([H:9])[C:2]([H:10])([H:11])[O:3][C:4]([H:12])([H:13])[C:5]([H:14])([H:15])[C:6][C:7]1([H:16])[H:17]"
C       -1.36780638      -0.15302791       0.31639571
C       -0.76889634      -1.34297205      -0.42526143
O        0.57428792      -1.16227893      -0.81767757
C        1.44038074      -0.71173154       0.19368466
C        1.49852076       0.80010738       0.30495886
C        0.42494713       1.67322547       0.15703967
C       -0.93276687       1.20562652      -0.24150942
H       -1.11016842      -0.19881399       1.37852935
H       -2.45668397      -0.24174877       0.26838844
H       -0.86667037      -2.25049427       0.18713505
H       -1.31154146      -1.51439545      -1.35735291
H        1.17860731      -1.16049040       1.16272451
H        2.43623031      -1.08068183      -0.06417106
H        2.32744111       1.16069586       0.91571393
H        1.52826060       1.80475435      -0.67368872
H       -0.94043806       1.19478170      -1.34197679
H       -1.65370402       1.97744388       0.03706774
17
Frame=14 idx=009813 GeodesicLength=0.5308559059333324 rxn_smarts="[C:1]1([H:8])([H:9])[C:2]([H:10])([H:11])[O:3][C:4]([H:12])([H:13])[C:5]([H:14])=[C:6]([H:15])[C:7]1([H:16])[H:17]>>[C:1]1([H:8])([H:9])[C:2]([H:10])([H:11])[O:3][C:4]([H:12])([H:13])[C:5]([H:14])([H:15])[C:6][C:7]1([H:16])[H:17]"
C       -1.36744933      -0.15479713       0.31654487
C       -0.76886015      -1.34458760      -0.42574368
O        0.57482190      -1.16556555      -0.81651757
C        1.44000980      -0.71267971       0.19524424
C        1.50389403       0.79922202       0.29758641
C        0.42775014       1.66823529       0.14736113
C       -0.93294061       1.20450089      -0.24000013
H       -1.11009203      -0.20152481       1.37861636
H       -2.45635650      -0.24304705       0.26799139
H       -0.86919703      -2.25227749       0.18605690
H       -1.31100352      -1.51454134      -1.35844025
H        1.17326880      -1.15688700       1.16496864
H        2.43516378      -1.08679729      -0.05796210
H        2.32469084       1.15961819       0.91913711
H        1.53294557       1.82710637      -0.67795299
H       -0.94608911       1.19646983      -1.34074921
H       -1.65055656       1.97755237       0.04385890
17
Frame=15 idx=009813 GeodesicLength=0.5687652480458696 rxn_smarts="[C:1]1([H:8])([H:9])[C:2]([H:10])([H:11])[O:3][C:4]([H:12])([H:13])[C:5]([H:14])=[C:6]([H:15])[C:7]1([H:16])[H:17]>>[C:1]1([H:8])([H:9])[C:2]([H:10])([H:11])[O:3][C:4]([H:12])([H:13])[C:5]([H:14])([H:15])[C:6][C:7]1([H:16])[H:17]"
C       -1.36707075      -0.15655474       0.31668168
C       -0.76884483      -1.34624924      -0.42618190
O        0.57533286      -1.16896627      -0.81534169
C        1.43964396      -0.71367884       0.19676202
C        1.50931368       0.79823234       0.29012988
C        0.43062285       1.66312656       0.13741571
C       -0.93303309       1.20334502      -0.23855968
H       -1.10999184      -0.20418318       1.37869154
H       -2.45601050      -0.24429008       0.26758855
H       -0.87176042      -2.25406489       0.18507090
H       -1.31050051      -1.51476032      -1.35946753
H        1.16797014      -1.15327881       1.16715875
H        2.43406544      -1.09294328      -0.05177794
H        2.32176733       1.15846470       0.92247282
H        1.53746145       1.85003253      -0.68170915
H       -0.95175810       1.19809563      -1.33955558
H       -1.64720765       1.97767288       0.05062162
17
Frame=16 idx=009813 GeodesicLength=0.606678271438671 rxn_smarts="[C:1]1([H:8])([H:9])[C:2]([H:10])([H:11])[O:3][C:4]([H:12])([H:13])[C:5]([H:14])=[C:6]([H:15])[C:7]1([H:16])[H:17]>>[C:1]1([H:8])([H:9])[C:2]([H:10])([H:11])[O:3][C:4]([H:12])([H:13])[C:5]([H:14])([H:15])[C:6][C:7]1([H:16])[H:17]"
C       -1.36666853      -0.15829867       0.31680552
C       -0.76885186      -1.34795910      -0.42657302
O        0.57581892      -1.17248703      -0.81414965
C        1.43928419      -0.71473194       0.19823423
C        1.51478065       0.79713426       0.28258614
C        0.43356890       1.65789401       0.12718354
C       -0.93304043       1.20215810      -0.23719538
H       -1.10986362      -0.20678283       1.37875404
H       -2.45564406      -0.24547391       0.26718187
H       -0.87436277      -2.25585579       0.18418411
H       -1.31003576      -1.51505741      -1.36043025
H        1.16271421      -1.14966730       1.16929214
H        2.43293616      -1.09912237      -0.04562337
H        2.31866699       1.15723428       0.92571365
H        1.54179171       1.87355363      -0.68491081
H       -0.95744728       1.19965481      -1.33840187
H       -1.64364742       1.97780724       0.05734910
