14
Frame=0 idx=006380 GeodesicLength=0.0 rxn_smarts="[C:1]([n:2]1[c:3]([H:11])[c:4]([C:5]([H:12])([H:13])[H:14])[n:6][n:7]1)([H:8])([H:9])[H:10]>>[C:1]([N:2]1[C:3]([H:11])([H:13])[C:4](=[C:5]([H:12])[H:14])[N:6]=[N:7]1)([H:8])([H:9])[H:10]"
C        2.27127576       0.19499128       0.41225414
N        0.93577041      -0.24107192       0.10000525
C       -0.17807816       0.49405211      -0.31405074
C       -1.16388939      -0.51869306      -0.36007493
C       -2.45069007       0.02314055      -0.16430333
N       -0.58011761      -1.75112768      -0.25309470
N        0.64632395      -1.54148449       0.07589535
H        2.87488597      -0.69189023       0.59083353
H        2.27199526       0.82143566       1.30451518
H        2.69256553       0.75703037      -0.42361884
H       -0.01391709       1.15901479      -1.15888730
H       -2.62226544       0.47147051       0.80619508
H       -1.33959257       1.21734696       0.00498734
H       -3.34426657      -0.39421483      -0.62065597
14
Frame=1 idx=006380 GeodesicLength=0.04796191734944895 rxn_smarts="[C:1]([n:2]1[c:3]([H:11])[c:4]([C:5]([H:12])([H:13])[H:14])[n:6][n:7]1)([H:8])([H:9])[H:10]>>[C:1]([N:2]1[C:3]([H:11])([H:13])[C:4](=[C:5]([H:12])[H:14])[N:6]=[N:7]1)([H:8])([H:9])[H:10]"
C        2.27885651       0.19281626       0.39786888
N        0.93472014      -0.23877100       0.11800517
C       -0.17685505       0.49919244      -0.29643578
C       -1.16315823      -0.51421075      -0.36836238
C       -2.45251384       0.02163289      -0.17401803
N       -0.58277043      -1.74607319      -0.23005187
N        0.64143435      -1.53863854       0.10367648
H        2.87760327      -0.69387126       0.59297116
H        2.29800959       0.84390165       1.27209158
H        2.69398097       0.72710834      -0.45918130
H       -0.00646830       1.17447238      -1.13200694
H       -2.66032651       0.42909932       0.80718273
H       -1.35280682       1.21821915       0.04634675
H       -3.32970563      -0.37487767      -0.67808644
14
Frame=2 idx=006380 GeodesicLength=0.09584577973629838 rxn_smarts="[C:1]([n:2]1[c:3]([H:11])[c:4]([C:5]([H:12])([H:13])[H:14])[n:6][n:7]1)([H:8])([H:9])[H:10]>>[C:1]([N:2]1[C:3]([H:11])([H:13])[C:4](=[C:5]([H:12])[H:14])[N:6]=[N:7]1)([H:8])([H:9])[H:10]"
C        2.28603828       0.19046985       0.38339773
N        0.93389847      -0.23611742       0.13609529
C       -0.17557470       0.50451852      -0.27869245
C       -1.16183324      -0.50957096      -0.37572165
C       -2.45390695       0.02016401      -0.18354630
N       -0.58536994      -1.74047658      -0.20670393
N        0.63671379      -1.53537578       0.13144173
H        2.88049566      -0.69544219       0.59442167
H        2.32355025       0.86511892       1.23894511
H        2.69393416       0.69708315      -0.49385154
H        0.00086122       1.18953095      -1.10524879
H       -2.69897048       0.38618474       0.80520866
H       -1.36674686       1.21796011       0.08773819
H       -3.31308965      -0.35404733      -0.73348372
14
Frame=3 idx=006380 GeodesicLength=0.14367592928916667 rxn_smarts="[C:1]([n:2]1[c:3]([H:11])[c:4]([C:5]([H:12])([H:13])[H:14])[n:6][n:7]1)([H:8])([H:9])[H:10]>>[C:1]([N:2]1[C:3]([H:11])([H:13])[C:4](=[C:5]([H:12])[H:14])[N:6]=[N:7]1)([H:8])([H:9])[H:10]"
C        2.29278169       0.18798706       0.36896919
N        0.93331950      -0.23315624       0.15414160
C       -0.17421375       0.50998779      -0.26105388
C       -1.15998814      -0.50482577      -0.38220423
C       -2.45489101       0.01873054      -0.19266791
N       -0.58789711      -1.73442419      -0.18321359
N        0.63221893      -1.53176634       0.15896251
H        2.88355217      -0.69662045       0.59526194
H        2.34837926       0.88502743       1.20534893
H        2.69250505       0.66721004      -0.52738999
H        0.00811172       1.20405740      -1.07896939
H       -2.73787488       0.34294208       0.80040187
H       -1.38134993       1.21665577       0.12883652
H       -3.29465349      -0.33180512      -0.78642358
14
Frame=4 idx=006380 GeodesicLength=0.19135984346277846 rxn_smarts="[C:1]([n:2]1[c:3]([H:11])[c:4]([C:5]([H:12])([H:13])[H:14])[n:6][n:7]1)([H:8])([H:9])[H:10]>>[C:1]([N:2]1[C:3]([H:11])([H:13])[C:4](=[C:5]([H:12])[H:14])[N:6]=[N:7]1)([H:8])([H:9])[H:10]"
C        2.29890020       0.18544378       0.35490773
N        0.93299274      -0.22998879       0.17164166
C       -0.17268691       0.51548686      -0.24413443
C       -1.15769286      -0.50001707      -0.38794988
C       -2.45537582       0.01743532      -0.20103194
N       -0.59038676      -1.72795290      -0.15979426
N        0.62811605      -1.52793701       0.18531625
H        2.88657764      -0.69736540       0.59578133
H        2.37174586       0.90346459       1.17197348
H        2.68996629       0.63792850      -0.55915066
H        0.01539560       1.21767526      -1.05401192
H       -2.77641476       0.29988344       0.79310948
H       -1.39633052       1.21449217       0.16908045
H       -3.27480675      -0.30854875      -0.83573729
14
Frame=5 idx=006380 GeodesicLength=0.23889368572639935 rxn_smarts="[C:1]([n:2]1[c:3]([H:11])[c:4]([C:5]([H:12])([H:13])[H:14])[n:6][n:7]1)([H:8])([H:9])[H:10]>>[C:1]([N:2]1[C:3]([H:11])([H:13])[C:4](=[C:5]([H:12])[H:14])[N:6]=[N:7]1)([H:8])([H:9])[H:10]"
C        2.30451308       0.18282254       0.34102464
N        0.93286764      -0.22657105       0.18897409
C       -0.17104560       0.52105767      -0.22755958
C       -1.15500282      -0.49516965      -0.39290713
C       -2.45546277       0.01615951      -0.20874660
N       -0.59276182      -1.72110909      -0.13649511
N        0.62423133      -1.52381801       0.21123340
H        2.88964464      -0.69774646       0.59580080
H        2.39417993       0.92069880       1.13848570
H        2.68617910       0.60901409      -0.58962200
H        0.02266668       1.23055769      -1.02991942
H       -2.81470715       0.25671505       0.78323367
H       -1.41178143       1.21144373       0.20875819
H       -3.25352079      -0.28405483      -0.88226064
14
Frame=6 idx=006380 GeodesicLength=0.2863806873186191 rxn_smarts="[C:1]([n:2]1[c:3]([H:11])[c:4]([C:5]([H:12])([H:13])[H:14])[n:6][n:7]1)([H:8])([H:9])[H:10]>>[C:1]([N:2]1[C:3]([H:11])([H:13])[C:4](=[C:5]([H:12])[H:14])[N:6]=[N:7]1)([H:8])([H:9])[H:10]"
C        2.30959019       0.18018984       0.32759258
N        0.93297187      -0.22299473       0.20570840
C       -0.16922287       0.52663530      -0.21188165
C       -1.15203454      -0.49030173      -0.39727462
C       -2.45520883       0.01499111      -0.21553407
N       -0.59506834      -1.71395366      -0.11352249
N        0.62069112      -1.51954006       0.23600637
H        2.89267977      -0.69774509       0.59574150
H        2.41516723       0.93670175       1.10538319
H        2.68163769       0.58074982      -0.61834907
H        0.03006293       1.24249742      -1.00742984
H       -2.85239615       0.21368205       0.77116012
H       -1.42750714       1.20769218       0.24748643
H       -3.23136292      -0.25860421      -0.92508685
14
Frame=7 idx=006380 GeodesicLength=0.33371861658699054 rxn_smarts="[C:1]([n:2]1[c:3]([H:11])[c:4]([C:5]([H:12])([H:13])[H:14])[n:6][n:7]1)([H:8])([H:9])[H:10]>>[C:1]([N:2]1[C:3]([H:11])([H:13])[C:4](=[C:5]([H:12])[H:14])[N:6]=[N:7]1)([H:8])([H:9])[H:10]"
C        2.31409180       0.17761926       0.31479471
N        0.93330203      -0.21938768       0.22161123
C       -0.16717248       0.53210126      -0.19741275
C       -1.14892426      -0.48552282      -0.40095559
C       -2.45466445       0.01390762      -0.22112849
N       -0.59739954      -1.70660804      -0.09077799
N        0.61764281      -1.51530381       0.25907082
H        2.89567916      -0.69738992       0.59545499
H        2.43441177       0.95128931       1.07329895
H        2.67647762       0.55376598      -0.64496382
H        0.03763117       1.25317391      -0.98708778
H       -2.88919363       0.17132070       0.75717602
H       -1.44328173       1.20348902       0.28485469
H       -3.20860028      -0.23245477      -0.96393498
14
Frame=8 idx=006380 GeodesicLength=0.3807482656633371 rxn_smarts="[C:1]([n:2]1[c:3]([H:11])[c:4]([C:5]([H:12])([H:13])[H:14])[n:6][n:7]1)([H:8])([H:9])[H:10]>>[C:1]([N:2]1[C:3]([H:11])([H:13])[C:4](=[C:5]([H:12])[H:14])[N:6]=[N:7]1)([H:8])([H:9])[H:10]"
C        2.31792523       0.17522023       0.30301016
N        0.93381457      -0.21589131       0.23617575
C       -0.16482147       0.53729720      -0.18488257
C       -1.14583437      -0.48088532      -0.40422521
C       -2.45383322       0.01296191      -0.22514603
N       -0.59978680      -1.69910047      -0.06859330
N        0.61516067      -1.51126571       0.27950487
H        2.89845865      -0.69659379       0.59546742
H        2.45133820       0.96448278       1.04300166
H        2.67118101       0.52844208      -0.66892106
H        0.04547442       1.26214541      -0.96988089
H       -2.92444780       0.12995937       0.74203108
H       -1.45869505       1.19909777       0.32038910
H       -3.18593402      -0.20587015      -0.99793099
14
Frame=9 idx=006380 GeodesicLength=0.42767610027518754 rxn_smarts="[C:1]([n:2]1[c:3]([H:11])[c:4]([C:5]([H:12])([H:13])[H:14])[n:6][n:7]1)([H:8])([H:9])[H:10]>>[C:1]([N:2]1[C:3]([H:11])([H:13])[C:4](=[C:5]([H:12])[H:14])[N:6]=[N:7]1)([H:8])([H:9])[H:10]"
C        2.32131002       0.17296278       0.29200747
N        0.93450080      -0.21245607       0.24971300
C       -0.16222109       0.54231746      -0.17389189
C       -1.14281759      -0.47638655      -0.40706826
C       -2.45289968       0.01207274      -0.22780545
N       -0.60219284      -1.69149669      -0.04694348
N        0.61310414      -1.50737987       0.29807631
H        2.90115599      -0.69545109       0.59569547
H        2.46653057       0.97662203       1.01404231
H        2.66585413       0.50440804      -0.69079552
H        0.05357999       1.26973977      -0.95525439
H       -2.95861442       0.08921725       0.72555082
H       -1.47392149       1.19451646       0.35457698
H       -3.16336853      -0.17868626      -1.02790338
14
Frame=10 idx=006380 GeodesicLength=0.474515704396846 rxn_smarts="[C:1]([n:2]1[c:3]([H:11])[c:4]([C:5]([H:12])([H:13])[H:14])[n:6][n:7]1)([H:8])([H:9])[H:10]>>[C:1]([N:2]1[C:3]([H:11])([H:13])[C:4](=[C:5]([H:12])[H:14])[N:6]=[N:7]1)([H:8])([H:9])[H:10]"
C        2.32435627       0.17079162       0.28154548
N        0.93532489      -0.20898582       0.26252740
C       -0.15942820       0.54726928      -0.16403361
C       -1.13984303      -0.47195516      -0.40952269
C       -2.45189768       0.01119251      -0.22937330
N       -0.60452998      -1.68372595      -0.02583283
N        0.61130129      -1.50350602       0.31555964
H        2.90378887      -0.69402715       0.59609078
H        2.48048167       0.98796901       0.98590639
H        2.66045034       0.48116842      -0.71114761
H        0.06189084       1.27630220      -0.94260185
H       -2.99197837       0.04873140       0.70739374
H       -1.48910305       1.18960808       0.38795930
H       -3.14081387      -0.15083242      -1.05447083
14
Frame=11 idx=006380 GeodesicLength=0.5212825413673264 rxn_smarts="[C:1]([n:2]1[c:3]([H:11])[c:4]([C:5]([H:12])([H:13])[H:14])[n:6][n:7]1)([H:8])([H:9])[H:10]>>[C:1]([N:2]1[C:3]([H:11])([H:13])[C:4](=[C:5]([H:12])[H:14])[N:6]=[N:7]1)([H:8])([H:9])[H:10]"
C        2.32712564       0.16865311       0.27137696
N        0.93626335      -0.20539539       0.27491372
C       -0.15649056       0.55223292      -0.15488085
C       -1.13685672      -0.46754834      -0.41152937
C       -2.45083949       0.01025265      -0.23007499
N       -0.60674625      -1.67573998      -0.00512327
N        0.60964079      -1.49950832       0.33262192
H        2.90637097      -0.69236946       0.59648624
H        2.49357944       0.99868877       0.95809749
H        2.65481449       0.45834267      -0.73047236
H        0.07035800       1.28211825      -0.93131747
H       -3.02480148       0.00824009       0.68714443
H       -1.50440645       1.18420868       0.42098800
H       -3.11801174      -0.12217563      -1.07823043
14
Frame=12 idx=006380 GeodesicLength=0.5679328512958132 rxn_smarts="[C:1]([n:2]1[c:3]([H:11])[c:4]([C:5]([H:12])([H:13])[H:14])[n:6][n:7]1)([H:8])([H:9])[H:10]>>[C:1]([N:2]1[C:3]([H:11])([H:13])[C:4](=[C:5]([H:12])[H:14])[N:6]=[N:7]1)([H:8])([H:9])[H:10]"
C        2.32957524       0.16664653       0.26183573
N        0.93728201      -0.20181048       0.28645664
C       -0.15334915       0.55707398      -0.14707786
C       -1.13401918      -0.46323754      -0.41327725
C       -2.44978045       0.00927029      -0.22954428
N       -0.60889685      -1.66765215       0.01494621
N        0.60819900      -1.49554902       0.34844569
H        2.90879993      -0.69039075       0.59731358
H        2.50537033       1.00877264       0.93126006
H        2.64938046       0.43631866      -0.74824878
H        0.07908812       1.28678058      -0.92229526
H       -3.05659202      -0.03200956       0.66542913
H       -1.51950864       1.17857833       0.45321676
H       -3.09554879      -0.09279150      -1.09846037
14
Frame=13 idx=006380 GeodesicLength=0.61448899532489 rxn_smarts="[C:1]([n:2]1[c:3]([H:11])[c:4]([C:5]([H:12])([H:13])[H:14])[n:6][n:7]1)([H:8])([H:9])[H:10]>>[C:1]([N:2]1[C:3]([H:11])([H:13])[C:4](=[C:5]([H:12])[H:14])[N:6]=[N:7]1)([H:8])([H:9])[H:10]"
C        2.33180502       0.16473739       0.25271693
N        0.93839645      -0.19818204       0.29738381
C       -0.15004910       0.56184502      -0.14024974
C       -1.13131931      -0.45901429      -0.41464781
C       -2.44877851       0.00819841      -0.22799954
N       -0.61098315      -1.65942733       0.03464146
N        0.60694595      -1.49157774       0.36350739
H        2.91118790      -0.68817486       0.59825084
H        2.51623202       1.01826908       0.90512966
H        2.64402583       0.41496380      -0.76484368
H        0.08800162       1.29049641      -0.91502104
H       -3.08764798      -0.07198500       0.64179519
H       -1.53456421       1.17261602       0.48499636
H       -3.07325255      -0.06276488      -1.11565983
14
Frame=14 idx=006380 GeodesicLength=0.6610219165581417 rxn_smarts="[C:1]([n:2]1[c:3]([H:11])[c:4]([C:5]([H:12])([H:13])[H:14])[n:6][n:7]1)([H:8])([H:9])[H:10]>>[C:1]([N:2]1[C:3]([H:11])([H:13])[C:4](=[C:5]([H:12])[H:14])[N:6]=[N:7]1)([H:8])([H:9])[H:10]"
C        2.33386085       0.16286371       0.24382097
N        0.93958276      -0.19440317       0.30796003
C       -0.14664529       0.56664992      -0.13406512
C       -1.12869151      -0.45481655      -0.41567796
C       -2.44783975       0.00697359      -0.22561837
N       -0.61290914      -1.65105051       0.05393918
N        0.60574939      -1.48743481       0.37845827
H        2.91353224      -0.68573451       0.59933572
H        2.52649825       1.02738228       0.87914816
H        2.63860861       0.39376669      -0.78068034
H        0.09704086       1.29356625      -0.90899418
H       -3.11806117      -0.11207639       0.61585017
H       -1.54975981       1.16615355       0.51671347
H       -3.05096630      -0.03184005      -1.13018999
14
Frame=15 idx=006380 GeodesicLength=0.7074563245720392 rxn_smarts="[C:1]([n:2]1[c:3]([H:11])[c:4]([C:5]([H:12])([H:13])[H:14])[n:6][n:7]1)([H:8])([H:9])[H:10]>>[C:1]([N:2]1[C:3]([H:11])([H:13])[C:4](=[C:5]([H:12])[H:14])[N:6]=[N:7]1)([H:8])([H:9])[H:10]"
C        2.33570437       0.16112812       0.23544666
N        0.94081366      -0.19062294       0.31780245
C       -0.14308220       0.57132791      -0.12908211
C       -1.12630107      -0.45073574      -0.41644935
C       -2.44702322       0.00561476      -0.22208831
N       -0.61478174      -1.64260291       0.07277891
N        0.60473734      -1.48333121       0.39242624
H        2.91576778      -0.68300699       0.60079762
H        2.53574454       1.03603236       0.85402932
H        2.63349931       0.37325381      -0.79526990
H        0.10628999       1.29554517      -0.90501345
H       -3.14744464      -0.15181753       0.58813375
H       -1.56477920       1.15945604       0.54795985
H       -3.02914492      -0.00024085      -1.14147167
14
Frame=16 idx=006380 GeodesicLength=0.7538359119810476 rxn_smarts="[C:1]([n:2]1[c:3]([H:11])[c:4]([C:5]([H:12])([H:13])[H:14])[n:6][n:7]1)([H:8])([H:9])[H:10]>>[C:1]([N:2]1[C:3]([H:11])([H:13])[C:4](=[C:5]([H:12])[H:14])[N:6]=[N:7]1)([H:8])([H:9])[H:10]"
C        2.33738468       0.15949103       0.22741514
N        0.94208348      -0.18677086       0.32711135
C       -0.13940934       0.57593477      -0.12500595
C       -1.12410630      -0.44674695      -0.41692373
C       -2.44634741       0.00405595      -0.21756911
N       -0.61655275      -1.63405980       0.09126780
N        0.60384439      -1.47916103       0.40588843
H        2.91793123      -0.67999993       0.60255337
H        2.54424520       1.04433818       0.82936169
H        2.62858025       0.35310724      -0.80894033
H        0.11567720       1.29663095      -0.90264365
H       -3.17593364      -0.19133847       0.55821784
H       -1.57978124       1.15234921       0.57907510
H       -3.00761576       0.03216972      -1.14980795
