15
Frame=0 idx=000986 GeodesicLength=0.0 rxn_smarts="[C:1]([N:2]([C:3]([H:10])([H:11])[H:12])[C:4]([C:5](=[O:6])[H:15])([H:13])[H:14])([H:7])([H:8])[H:9]>>[C:1](=[N+:2]([C:3]([H:10])([H:11])[H:12])[C:4](=[C:5]([O-:6])[H:15])[H:13])([H:8])[H:9].[H:7][H:14]"
C       -1.00915641      -0.73884750       0.59831433
N       -0.29021799       0.36357953       0.28902405
C       -1.04052497       1.47489938      -0.28503599
C        0.95543642       0.17236548      -0.23172689
C        1.93105057      -0.72326706       0.37512695
O        3.09625549      -0.75516852       0.05729784
H       -0.54804208      -1.41891352      -0.76221457
H       -2.05811296      -0.58021615       0.81930228
H       -0.52448237      -1.51997305       1.16696249
H       -1.94979228       1.63571067       0.28986578
H       -0.43646462       2.37880290      -0.25308477
H       -1.30124417       1.24791589      -1.32396324
H        1.37525948       1.00786272      -0.77953485
H        0.25040235      -1.13732101      -1.12124052
H        1.54963360      -1.40742972       1.16090709
15
Frame=1 idx=000986 GeodesicLength=0.06060813121700909 rxn_smarts="[C:1]([N:2]([C:3]([H:10])([H:11])[H:12])[C:4]([C:5](=[O:6])[H:15])([H:13])[H:14])([H:7])([H:8])[H:9]>>[C:1](=[N+:2]([C:3]([H:10])([H:11])[H:12])[C:4](=[C:5]([O-:6])[H:15])[H:13])([H:8])[H:9].[H:7][H:14]"
C       -1.02079807      -0.74470693       0.58784055
N       -0.29095683       0.35512056       0.28741565
C       -1.03383487       1.47757604      -0.27421685
C        0.95155803       0.16019465      -0.24616169
C        1.93882873      -0.70626470       0.38413480
O        3.10432664      -0.73467605       0.06687483
H       -0.55887543      -1.43566769      -0.77243560
H       -2.06923456      -0.58004568       0.80652950
H       -0.54214203      -1.51999815       1.17011168
H       -1.94068462       1.63984691       0.30420554
H       -0.42130093       2.37555594      -0.23224835
H       -1.29957738       1.26415440      -1.31485515
H        1.36336255       0.98481971      -0.81688699
H        0.25754007      -1.15040265      -1.12676236
H        1.56178871      -1.38550637       1.17645444
15
Frame=2 idx=000986 GeodesicLength=0.12127353793892982 rxn_smarts="[C:1]([N:2]([C:3]([H:10])([H:11])[H:12])[C:4]([C:5](=[O:6])[H:15])([H:13])[H:14])([H:7])([H:8])[H:9]>>[C:1](=[N+:2]([C:3]([H:10])([H:11])[H:12])[C:4](=[C:5]([O-:6])[H:15])[H:13])([H:8])[H:9].[H:7][H:14]"
C       -1.03267131      -0.75056131       0.57735441
N       -0.29176271       0.34640093       0.28586450
C       -1.02670459       1.48000512      -0.26337476
C        0.94757532       0.14760364      -0.26032121
C        1.94649821      -0.68845986       0.39272044
O        3.11220842      -0.71305429       0.07573559
H       -0.57029442      -1.45269196      -0.78262199
H       -2.08056174      -0.57958971       0.79348137
H       -0.56044373      -1.51997429       1.17321563
H       -1.93114924       1.64386996       0.31847374
H       -0.40540194       2.37162890      -0.21147568
H       -1.29725726       1.28026789      -1.30559904
H        1.35113715       0.96140510      -0.85287174
H        0.26465676      -1.16392196      -1.13209420
H        1.57417109      -1.36292815       1.19151295
15
Frame=3 idx=000986 GeodesicLength=0.18200078193167668 rxn_smarts="[C:1]([N:2]([C:3]([H:10])([H:11])[H:12])[C:4]([C:5](=[O:6])[H:15])([H:13])[H:14])([H:7])([H:8])[H:9]>>[C:1](=[N+:2]([C:3]([H:10])([H:11])[H:12])[C:4](=[C:5]([O-:6])[H:15])[H:13])([H:8])[H:9].[H:7][H:14]"
C       -1.04478292      -0.75640407       0.56685473
N       -0.29263544       0.33741960       0.28439293
C       -1.01913413       1.48217060      -0.25250362
C        0.94350497       0.13459331      -0.27415808
C        1.95405200      -0.66985833       0.40086875
O        3.11988693      -0.69032087       0.08385027
H       -0.58231327      -1.46996555      -0.79277883
H       -2.09209607      -0.57883834       0.78014467
H       -0.57941995      -1.51990910       1.17626188
H       -1.92120269       1.64775641       0.33265369
H       -0.38879628       2.36700992      -0.19074659
H       -1.29424429       1.29624050      -1.29619790
H        1.33861084       0.93764864      -0.88750881
H        0.27177418      -1.17785724      -1.13722224
H        1.58679611      -1.33968548       1.20608915
15
Frame=4 idx=000986 GeodesicLength=0.24279531523535738 rxn_smarts="[C:1]([N:2]([C:3]([H:10])([H:11])[H:12])[C:4]([C:5](=[O:6])[H:15])([H:13])[H:14])([H:7])([H:8])[H:9]>>[C:1](=[N+:2]([C:3]([H:10])([H:11])[H:12])[C:4](=[C:5]([O-:6])[H:15])[H:13])([H:8])[H:9].[H:7][H:14]"
C       -1.05713913      -0.76222896       0.55633790
N       -0.29357411       0.32817418       0.28302267
C       -1.01112328       1.48405667      -0.24159537
C        0.93936467       0.12116443      -0.28762725
C        1.96148271      -0.65046850       0.40856281
O        3.12734933      -0.66649017       0.09119402
H       -0.59494873      -1.48746596      -0.80291544
H       -2.10383760      -0.57778157       0.76650472
H       -0.59910279      -1.51981004       1.17923568
H       -1.91085975       1.65148496       0.34673323
H       -0.37151097       2.36168613      -0.17003893
H       -1.29050211       1.31205649      -1.28665225
H        1.32580703       0.91357062      -0.92082343
H        0.27891549      -1.19218813      -1.14213359
H        1.59967923      -1.31576017       1.22019524
15
Frame=5 idx=000986 GeodesicLength=0.3036630285697953 rxn_smarts="[C:1]([N:2]([C:3]([H:10])([H:11])[H:12])[C:4]([C:5](=[O:6])[H:15])([H:13])[H:14])([H:7])([H:8])[H:9]>>[C:1](=[N+:2]([C:3]([H:10])([H:11])[H:12])[C:4](=[C:5]([O-:6])[H:15])[H:13])([H:8])[H:9].[H:7][H:14]"
C       -1.06974496      -0.76802933       0.54579892
N       -0.29457700       0.31866166       0.28177519
C       -1.00267238       1.48564712      -0.23064103
C        0.93517344       0.10731845      -0.30068543
C        1.96878255      -0.63030178       0.41578443
O        3.13458247      -0.64157841       0.09774247
H       -0.60821928      -1.50516902      -0.81304381
H       -2.11578416      -0.57640897       0.75254709
H       -0.61952320      -1.51968420       1.18212029
H       -1.90013554       1.65503476       0.36070172
H       -0.35357364       2.35564395      -0.14932876
H       -1.28599586       1.32769952      -1.27696160
H        1.31274707       0.88918533      -0.95284098
H        0.28610475      -1.20689380      -1.14681700
H        1.61283572      -1.29112528       1.23384851
15
Frame=6 idx=000986 GeodesicLength=0.36461133098091786 rxn_smarts="[C:1]([N:2]([C:3]([H:10])([H:11])[H:12])[C:4]([C:5](=[O:6])[H:15])([H:13])[H:14])([H:7])([H:8])[H:9]>>[C:1](=[N+:2]([C:3]([H:10])([H:11])[H:12])[C:4](=[C:5]([O-:6])[H:15])[H:13])([H:8])[H:9].[H:7][H:14]"
C       -1.08260499      -0.77379886       0.53523078
N       -0.29564171       0.30887735       0.28067128
C       -0.99378107       1.48692576      -0.21962968
C        0.93095088       0.09305586      -0.31329195
C        1.97594357      -0.60937197       0.42251363
O        3.14157402      -0.61559637       0.10347554
H       -0.62214752      -1.52304845      -0.82318075
H       -2.12793220      -0.57470993       0.73825565
H       -0.64071172      -1.51953864       1.18489649
H       -1.88904238       1.65838709       0.37455355
H       -0.33500965       2.34886861      -0.12859106
H       -1.28069349       1.34315312      -1.26712273
H        1.29944853       0.86449813      -0.98359023
H        0.29336756      -1.22195679      -1.15126092
H        1.62628014      -1.26574491       1.24707042
15
Frame=7 idx=000986 GeodesicLength=0.42564836611970425 rxn_smarts="[C:1]([N:2]([C:3]([H:10])([H:11])[H:12])[C:4]([C:5](=[O:6])[H:15])([H:13])[H:14])([H:7])([H:8])[H:9]>>[C:1](=[N+:2]([C:3]([H:10])([H:11])[H:12])[C:4](=[C:5]([O-:6])[H:15])[H:13])([H:8])[H:9].[H:7][H:14]"
C       -1.09572246      -0.77953097       0.52462521
N       -0.29676514       0.29881575       0.27973155
C       -0.98444943       1.48787569      -0.20854972
C        0.92671769       0.07837747      -0.32540757
C        1.98295772      -0.58769502       0.42872981
O        3.14831048      -0.58855830       0.10837106
H       -0.63675850      -1.54107567      -0.83334656
H       -2.14027573      -0.57267355       0.72361471
H       -0.66269732      -1.51937988       1.18754302
H       -1.87759250       1.66152341       0.38828458
H       -0.31584483       2.34134449      -0.10779997
H       -1.27456442       1.35839953      -1.25713140
H        1.28592767       0.83951028      -1.01309716
H        0.30073112      -1.23736018      -1.15545448
H        1.64002566      -1.23957305       1.25988692
15
Frame=8 idx=000986 GeodesicLength=0.48678482407967283 rxn_smarts="[C:1]([N:2]([C:3]([H:10])([H:11])[H:12])[C:4]([C:5](=[O:6])[H:15])([H:13])[H:14])([H:7])([H:8])[H:9]>>[C:1](=[N+:2]([C:3]([H:10])([H:11])[H:12])[C:4](=[C:5]([O-:6])[H:15])[H:13])([H:8])[H:9].[H:7][H:14]"
C       -1.10909977      -0.78521897       0.51397299
N       -0.29794370       0.28847067       0.27897655
C       -0.97467837       1.48847942      -0.19738907
C        0.92249592       0.06328458      -0.33699429
C        1.98981816      -0.56528815       0.43441280
O        3.15477867      -0.56048291       0.11240386
H       -0.65208027      -1.55921887      -0.84356592
H       -2.15280747      -0.57028870       0.70860849
H       -0.68550812      -1.51921283       1.19003904
H       -1.86579928       1.66442498       0.40189136
H       -0.29610574       2.33305544      -0.08692840
H       -1.26757974       1.37341966      -1.24698236
H        1.27219977       0.81422024      -1.04138491
H        0.30822551      -1.25308893      -1.15938577
H        1.65408443      -1.21255564       1.27232564
15
Frame=9 idx=000986 GeodesicLength=0.5480287211656713 rxn_smarts="[C:1]([N:2]([C:3]([H:10])([H:11])[H:12])[C:4]([C:5](=[O:6])[H:15])([H:13])[H:14])([H:7])([H:8])[H:9]>>[C:1](=[N+:2]([C:3]([H:10])([H:11])[H:12])[C:4](=[C:5]([O-:6])[H:15])[H:13])([H:8])[H:9].[H:7][H:14]"
C       -1.12273632      -0.79085667       0.50326205
N       -0.29917214       0.27783264       0.27842403
C       -0.96446575       1.48871892      -0.18613280
C        0.91830647       0.04777435      -0.34801903
C        1.99651257      -0.54217110       0.43953791
O        3.16096016      -0.53137687       0.11555754
H       -0.66814717      -1.57744721      -0.85386715
H       -2.16551312      -0.56754360       0.69322305
H       -0.70916804      -1.51904493       1.19235372
H       -1.85366771       1.66707546       0.41537832
H       -0.27581457       2.32398270      -0.06594667
H       -1.25971122       1.38819499      -1.23666741
H        1.25827678       0.78861499      -1.06847961
H        0.31587798      -1.26913271      -1.16304625
H        1.66846207      -1.18462096       1.28442231
15
Frame=10 idx=000986 GeodesicLength=0.6094045120648369 rxn_smarts="[C:1]([N:2]([C:3]([H:10])([H:11])[H:12])[C:4]([C:5](=[O:6])[H:15])([H:13])[H:14])([H:7])([H:8])[H:9]>>[C:1](=[N+:2]([C:3]([H:10])([H:11])[H:12])[C:4](=[C:5]([O-:6])[H:15])[H:13])([H:8])[H:9].[H:7][H:14]"
C       -1.13663495      -0.79644126       0.49248269
N       -0.30044624       0.26689113       0.27809469
C       -0.95381138       1.48858111      -0.17476658
C        0.91417122       0.03184196      -0.35845016
C        2.00303737      -0.51836586       0.44408283
O        3.16684588      -0.50124050       0.11781122
H       -0.68500218      -1.59572741      -0.86429012
H       -2.17838483      -0.56442740       0.67744115
H       -0.73370396      -1.51888684       1.19446739
H       -1.84120756       1.66946454       0.42874930
H       -0.25499254       2.31411428      -0.04482448
H       -1.25093186       1.40271250      -1.22618230
H        1.24416742       0.76268467      -1.09440532
H        0.32372284      -1.28549765      -1.16641921
H        1.68317077      -1.15570325       1.29620890
15
Frame=11 idx=000986 GeodesicLength=0.670910810970641 rxn_smarts="[C:1]([N:2]([C:3]([H:10])([H:11])[H:12])[C:4]([C:5](=[O:6])[H:15])([H:13])[H:14])([H:7])([H:8])[H:9]>>[C:1](=[N+:2]([C:3]([H:10])([H:11])[H:12])[C:4](=[C:5]([O-:6])[H:15])[H:13])([H:8])[H:9].[H:7][H:14]"
C       -1.15079664      -0.80195247       0.48162023
N       -0.30176030       0.25563389       0.27800623
C       -0.94271114       1.48802767      -0.16327264
C        0.91011329       0.01548257      -0.36825259
C        2.00938260      -0.49389254       0.44801746
O        3.17241716      -0.47007787       0.11913424
H       -0.70268854      -1.61400017      -0.87486085
H       -2.19140892      -0.56091505       0.66124418
H       -0.75914679      -1.51872414       1.19633863
H       -1.82842638       1.67155548       0.44200185
H       -0.23366066       2.30340120      -0.02353002
H       -1.24120286       1.41693155      -1.21550286
H        1.22988651       0.73640667      -1.11916384
H        0.33179403      -1.30216701      -1.16947573
H        1.69820865      -1.12570978       1.30769573
15
Frame=12 idx=000986 GeodesicLength=0.7325410597660766 rxn_smarts="[C:1]([N:2]([C:3]([H:10])([H:11])[H:12])[C:4]([C:5](=[O:6])[H:15])([H:13])[H:14])([H:7])([H:8])[H:9]>>[C:1](=[N+:2]([C:3]([H:10])([H:11])[H:12])[C:4](=[C:5]([O-:6])[H:15])[H:13])([H:8])[H:9].[H:7][H:14]"
C       -1.16519274      -0.80737953       0.47069632
N       -0.30310490       0.24408491       0.27821148
C       -0.93120148       1.48704229      -0.15167673
C        0.90617079      -0.00125619      -0.37734735
C        2.01555285      -0.46877395       0.45135043
O        3.17765187      -0.43806705       0.11944897
H       -0.72122265      -1.63220009      -0.88561525
H       -2.20453777      -0.55700764       0.64469894
H       -0.78547323      -1.51856606       1.19796448
H       -1.81539268       1.67332704       0.45506829
H       -0.21191798       2.29187587      -0.00210252
H       -1.23051542       1.43077919      -1.20467277
H        1.21549039       0.70986978      -1.14267420
H        0.34012837      -1.31905783      -1.17222679
H        1.71356457      -1.09467074       1.31887669
15
Frame=13 idx=000986 GeodesicLength=0.7942707092074999 rxn_smarts="[C:1]([N:2]([C:3]([H:10])([H:11])[H:12])[C:4]([C:5](=[O:6])[H:15])([H:13])[H:14])([H:7])([H:8])[H:9]>>[C:1](=[N+:2]([C:3]([H:10])([H:11])[H:12])[C:4](=[C:5]([O-:6])[H:15])[H:13])([H:8])[H:9].[H:7][H:14]"
C       -1.17977306      -0.81269022       0.45972532
N       -0.30445949       0.23227413       0.27874932
C       -0.91932804       1.48559657      -0.13999902
C        0.90239773      -0.01831770      -0.38567071
C        2.02152146      -0.44305989       0.45410329
O        3.18249619      -0.40540231       0.11871459
H       -0.74061854      -1.65023335      -0.89657322
H       -2.21770324      -0.55268986       0.62788566
H       -0.81263005      -1.51840252       1.19931429
H       -1.80218165       1.67474972       0.46789036
H       -0.18988225       2.27955204       0.01942775
H       -1.21888018       1.44416600      -1.19371453
H        1.20104321       0.68312880      -1.16488563
H        0.34879637      -1.33607472      -1.17467510
H        1.72920152      -1.06259671       1.32970765
15
Frame=14 idx=000986 GeodesicLength=0.8561600767943616 rxn_smarts="[C:1]([N:2]([C:3]([H:10])([H:11])[H:12])[C:4]([C:5](=[O:6])[H:15])([H:13])[H:14])([H:7])([H:8])[H:9]>>[C:1](=[N+:2]([C:3]([H:10])([H:11])[H:12])[C:4](=[C:5]([O-:6])[H:15])[H:13])([H:8])[H:9].[H:7][H:14]"
C       -1.19457069      -0.81790446       0.44867181
N       -0.30583072       0.22014408       0.27961614
C       -0.90705474       1.48368361      -0.12818836
C        0.89878608      -0.03577303      -0.39322929
C        2.02731048      -0.41674263       0.45620538
O        3.18699142      -0.37192604       0.11695377
H       -0.76098118      -1.66807732      -0.90783271
H       -2.23092840      -0.54795786       0.61070781
H       -0.84068321      -1.51824884       1.20035331
H       -1.78873237       1.67583335       0.48054740
H       -0.16749028       2.26638864       0.04113978
H       -1.20626447       1.45713161      -1.18258021
H        1.18649608       0.65607408      -1.18588541
H        0.35780971      -1.35332519      -1.17677444
H        1.74514230      -1.02930000       1.34029502
15
Frame=15 idx=000986 GeodesicLength=0.9181824684787487 rxn_smarts="[C:1]([N:2]([C:3]([H:10])([H:11])[H:12])[C:4]([C:5](=[O:6])[H:15])([H:13])[H:14])([H:7])([H:8])[H:9]>>[C:1](=[N+:2]([C:3]([H:10])([H:11])[H:12])[C:4](=[C:5]([O-:6])[H:15])[H:13])([H:8])[H:9].[H:7][H:14]"
C       -1.20953160      -0.82299968       0.43754883
N       -0.30719538       0.20771541       0.28083868
C       -0.89442099       1.48127286      -0.11626714
C        0.89538889      -0.05357464      -0.39997764
C        2.03287709      -0.38987446       0.45769212
O        3.19107641      -0.33781660       0.11414782
H       -0.78235553      -1.68560125      -0.91943506
H       -2.24413202      -0.54280693       0.59326599
H       -0.86956775      -1.51810592       1.20104494
H       -1.77509917       1.67654767       0.49299379
H       -0.14484738       2.25239750       0.06300857
H       -1.19268575       1.46958506      -1.17129708
H        1.17191368       0.62875482      -1.20563825
H        0.36723388      -1.37073738      -1.17852876
H        1.76134562      -0.99475645       1.35060318
15
Frame=16 idx=000986 GeodesicLength=0.9804288706313241 rxn_smarts="[C:1]([N:2]([C:3]([H:10])([H:11])[H:12])[C:4]([C:5](=[O:6])[H:15])([H:13])[H:14])([H:7])([H:8])[H:9]>>[C:1](=[N+:2]([C:3]([H:10])([H:11])[H:12])[C:4](=[C:5]([O-:6])[H:15])[H:13])([H:8])[H:9].[H:7][H:14]"
C       -1.22468444      -0.82798329       0.42631674
N       -0.30855715       0.19493435       0.28241438
C       -0.88139093       1.47834713      -0.10417702
C        0.89221061      -0.07178641      -0.40591737
C        2.03823270      -0.36245449       0.45848934
O        3.19476628      -0.30292591       0.11029430
H       -0.80485199      -1.70277565      -0.93149010
H       -2.25733300      -0.53721828       0.57548041
H       -0.89934182      -1.51798598       1.20133586
H       -1.76123119       1.67689064       0.50530877
H       -0.12189384       2.23752041       0.08512722
H       -1.17809299       1.48155791      -1.15980665
H        1.15725458       0.60104493      -1.22422520
H        0.37711626      -1.38843178      -1.17985984
H        1.77779693      -0.95873358       1.36070916
