11
Frame=0 idx=002848 GeodesicLength=0.0 rxn_smarts="[C:1]([N:2]([C:3]([C:4]#[N:5])([H:10])[H:11])[H:9])([H:6])([H:7])[H:8]>>[C-:1]([N+:2]([C:3]([C:4]#[N:5])([H:10])[H:11])([H:8])[H:9])([H:6])[H:7]"
C        1.41181462      -0.61963396      -0.42916709
N        0.52392759       0.29822924       0.54878745
C       -0.69885073       0.76578243      -0.05797746
C       -1.71752374      -0.29032616      -0.13728248
N       -2.52129816      -1.10705058      -0.16548155
H        0.71800155      -1.21505052      -1.02520349
H        1.97061839      -1.26676935       0.24633328
H        1.43617748       0.72534688       0.09261716
H        0.44417600       0.00680140       1.51461040
H       -1.11551235       1.61465269       0.48670302
H       -0.45153060       1.08801793      -1.07393919
11
Frame=1 idx=002848 GeodesicLength=0.050572939071373856 rxn_smarts="[C:1]([N:2]([C:3]([C:4]#[N:5])([H:10])[H:11])[H:9])([H:6])([H:7])[H:8]>>[C-:1]([N+:2]([C:3]([C:4]#[N:5])([H:10])[H:11])([H:8])[H:9])([H:6])[H:7]"
C        1.40418062      -0.62035784      -0.42614683
N        0.52494417       0.29652582       0.54654847
C       -0.69949807       0.76732220      -0.05640808
C       -1.71832406      -0.28842226      -0.13910324
N       -2.52201515      -1.10492079      -0.17575661
H        0.71266627      -1.23169063      -1.00895127
H        1.98238508      -1.25449550       0.24561245
H        1.44551426       0.72868875       0.07983554
H        0.43994927      -0.00061405       1.51048310
H       -1.11502427       1.61252224       0.49484756
H       -0.45477813       1.09544206      -1.07096109
11
Frame=2 idx=002848 GeodesicLength=0.10113183490179593 rxn_smarts="[C:1]([N:2]([C:3]([C:4]#[N:5])([H:10])[H:11])[H:9])([H:6])([H:7])[H:8]>>[C-:1]([N+:2]([C:3]([C:4]#[N:5])([H:10])[H:11])([H:8])[H:9])([H:6])[H:7]"
C        1.39658498      -0.62113017      -0.42295437
N        0.52593107       0.29485720       0.54445449
C       -0.70013851       0.76883570      -0.05477406
C       -1.71904748      -0.28659392      -0.14098373
N       -2.52263563      -1.10279800      -0.18611465
H        0.70758312      -1.24802959      -0.99241861
H        1.99370182      -1.24230433       0.24463856
H        1.45489401       0.73185426       0.06650090
H        0.43569591      -0.00787349       1.50647445
H       -1.11460331       1.61028382       0.50302044
H       -0.45796599       1.10289853      -1.06784343
11
Frame=3 idx=002848 GeodesicLength=0.1516773048716346 rxn_smarts="[C:1]([N:2]([C:3]([C:4]#[N:5])([H:10])[H:11])[H:9])([H:6])([H:7])[H:8]>>[C-:1]([N+:2]([C:3]([C:4]#[N:5])([H:10])[H:11])([H:8])[H:9])([H:6])[H:7]"
C        1.38904730      -0.62193255      -0.41957767
N        0.52688495       0.29322238       0.54251195
C       -0.70077071       0.77031995      -0.05308303
C       -1.71968526      -0.28485025      -0.14293810
N       -2.52315461      -1.10069239      -0.19648985
H        0.70278291      -1.26399367      -0.97568929
H        2.00451738      -1.23025795       0.24345012
H        1.46431689       0.73484075       0.05261353
H        0.43140467      -0.01497302       1.50259351
H       -1.11425651       1.60793796       0.51120200
H       -0.46108701       1.11037879      -1.06459317
11
Frame=4 idx=002848 GeodesicLength=0.20221774727531822 rxn_smarts="[C:1]([N:2]([C:3]([C:4]#[N:5])([H:10])[H:11])[H:9])([H:6])([H:7])[H:8]>>[C-:1]([N+:2]([C:3]([C:4]#[N:5])([H:10])[H:11])([H:8])[H:9])([H:6])[H:7]"
C        1.38158814      -0.62274453      -0.41600637
N        0.52779996       0.29161777       0.54072780
C       -0.70139359       0.77177179      -0.05134431
C       -1.72022983      -0.28319893      -0.14498387
N       -2.52357340      -1.09861129      -0.20680722
H        0.69829615      -1.27951144      -0.95885424
H        2.01479016      -1.21841249       0.24209028
H        1.47378537       0.73764488       0.03817824
H        0.42706063      -0.02191518       1.49884844
H       -1.11399070       1.60548622       0.51937053
H       -0.46413286       1.11787321      -1.06121927
11
Frame=5 idx=002848 GeodesicLength=0.25275980200444353 rxn_smarts="[C:1]([N:2]([C:3]([C:4]#[N:5])([H:10])[H:11])[H:9])([H:6])([H:7])[H:8]>>[C-:1]([N+:2]([C:3]([C:4]#[N:5])([H:10])[H:11])([H:8])[H:9])([H:6])[H:7]"
C        1.37423037      -0.62354188      -0.41223199
N        0.52866871       0.29003858       0.53910997
C       -0.70200676       0.77318798      -0.04956756
C       -1.72067504      -0.28164733      -0.14713931
N       -2.52390385      -1.09655681      -0.21698836
H        0.69415348      -1.29451683      -0.94200905
H        2.02449246      -1.20681597       0.24060749
H        1.48330206       0.74025722       0.02320061
H        0.42264689      -0.02870711       1.49524549
H       -1.11381371       1.60293057       0.52750382
H       -0.46709461       1.12537158      -1.05773111
11
Frame=6 idx=002848 GeodesicLength=0.3032775225601791 rxn_smarts="[C:1]([N:2]([C:3]([C:4]#[N:5])([H:10])[H:11])[H:9])([H:6])([H:7])[H:8]>>[C-:1]([N+:2]([C:3]([C:4]#[N:5])([H:10])[H:11])([H:8])[H:9])([H:6])[H:7]"
C        1.36700516      -0.62430568      -0.40824955
N        0.52948541       0.28847806       0.53766869
C       -0.70260913       0.77456853      -0.04776352
C       -1.72102226      -0.28020338      -0.14942971
N       -2.52417616      -1.09453147      -0.22694096
H        0.69039832      -1.30895601      -0.92526270
H        2.03360545      -1.19550780       0.23905483
H        1.49285989       0.74267222       0.00768980
H        0.41814423      -0.03536429       1.49179215
H       -1.11373556       1.60028312       0.53558135
H       -0.46995535       1.13286669      -1.05414037
11
Frame=7 idx=002848 GeodesicLength=0.35358155314425654 rxn_smarts="[C:1]([N:2]([C:3]([C:4]#[N:5])([H:10])[H:11])[H:9])([H:6])([H:7])[H:8]>>[C-:1]([N+:2]([C:3]([C:4]#[N:5])([H:10])[H:11])([H:8])[H:9])([H:6])[H:7]"
C        1.35990607      -0.62499763      -0.40407732
N        0.53024846       0.28692253       0.53639618
C       -0.70318312       0.77590413      -0.04595797
C       -1.72124191      -0.27884555      -0.15188287
N       -2.52437521      -1.09251406      -0.23656326
H        0.68696730      -1.32278786      -0.90865635
H        2.04220264      -1.18445970       0.23746419
H        1.50241060       0.74486965      -0.00826112
H        0.41349663      -0.04195852       1.48846001
H       -1.11372176       1.59753054       0.54355308
H       -0.47270969       1.14033647      -1.05047457
11
Frame=8 idx=002848 GeodesicLength=0.40400433385499657 rxn_smarts="[C:1]([N:2]([C:3]([C:4]#[N:5])([H:10])[H:11])[H:9])([H:6])([H:7])[H:8]>>[C-:1]([N+:2]([C:3]([C:4]#[N:5])([H:10])[H:11])([H:8])[H:9])([H:6])[H:7]"
C        1.35296748      -0.62563267      -0.39969167
N        0.53094544       0.28536164       0.53531649
C       -0.70374900       0.77719755      -0.04412681
C       -1.72137068      -0.27759544      -0.15449844
N       -2.52457242      -1.09050540      -0.24590924
H        0.68395785      -1.33603851      -0.89221786
H        2.05022590      -1.17371151       0.23586079
H        1.51201712       0.74688930      -0.02479086
H        0.40874450      -0.04844641       1.48529226
H       -1.11381920       1.59468503       0.55146840
H       -0.47534699       1.14779643      -1.04670307
11
Frame=9 idx=002848 GeodesicLength=0.45427726491344467 rxn_smarts="[C:1]([N:2]([C:3]([C:4]#[N:5])([H:10])[H:11])[H:9])([H:6])([H:7])[H:8]>>[C-:1]([N+:2]([C:3]([C:4]#[N:5])([H:10])[H:11])([H:8])[H:9])([H:6])[H:7]"
C        1.34616376      -0.62618343      -0.39512159
N        0.53157850       0.28379889       0.53441711
C       -0.70429511       0.77845567      -0.04228529
C       -1.72138616      -0.27642162      -0.15726978
N       -2.52472729      -1.08849825      -0.25493870
H        0.68127772      -1.34871930      -0.87595284
H        2.05779422      -1.16320135       0.23426026
H        1.52163009       0.74867416      -0.04179121
H        0.40384030      -0.05489878       1.48224658
H       -1.11399418       1.59175729       0.55928133
H       -0.47788185       1.15523672      -1.04284588
11
Frame=10 idx=002848 GeodesicLength=0.5044444174531414 rxn_smarts="[C:1]([N:2]([C:3]([C:4]#[N:5])([H:10])[H:11])[H:9])([H:6])([H:7])[H:8]>>[C-:1]([N+:2]([C:3]([C:4]#[N:5])([H:10])[H:11])([H:8])[H:9])([H:6])[H:7]"
C        1.33950797      -0.62664397      -0.39036355
N        0.53215037       0.28224298       0.53371189
C       -0.70482553       0.77968494      -0.04041908
C       -1.72130667      -0.27532696      -0.16019395
N       -2.52486192      -1.08650644      -0.26370218
H        0.67894303      -1.36085493      -0.85987568
H        2.06490107      -1.15293154       0.23269351
H        1.53124908       0.75019763      -0.05933810
H        0.39880851      -0.06128314       1.47934443
H       -1.11426102       1.58874832       0.56703210
H       -0.48030490       1.16267312      -1.03888940
11
Frame=11 idx=002848 GeodesicLength=0.5546689321355757 rxn_smarts="[C:1]([N:2]([C:3]([C:4]#[N:5])([H:10])[H:11])[H:9])([H:6])([H:7])[H:8]>>[C-:1]([N+:2]([C:3]([C:4]#[N:5])([H:10])[H:11])([H:8])[H:9])([H:6])[H:7]"
C        1.33298089      -0.62702682      -0.38541517
N        0.53265724       0.28068229       0.53320933
C       -0.70534518       0.78088875      -0.03850673
C       -1.72113572      -0.27429148      -0.16325672
N       -2.52495470      -1.08452050      -0.27229802
H        0.67691923      -1.37250452      -0.84390374
H        2.07159261      -1.14286435       0.23115853
H        1.54088243       0.75147580      -0.07753076
H        0.39365251      -0.06761608       1.47659498
H       -1.11462096       1.58565492       0.57475205
H       -0.48262835       1.17012199      -1.03480376
11
Frame=12 idx=002848 GeodesicLength=0.6048844519937094 rxn_smarts="[C:1]([N:2]([C:3]([C:4]#[N:5])([H:10])[H:11])[H:9])([H:6])([H:7])[H:8]>>[C-:1]([N+:2]([C:3]([C:4]#[N:5])([H:10])[H:11])([H:8])[H:9])([H:6])[H:7]"
C        1.32656400      -0.62733012      -0.38028674
N        0.53310914       0.27913250       0.53291005
C       -0.70585434       0.78207938      -0.03653144
C       -1.72087903      -0.27329940      -0.16643687
N       -2.52497789      -1.08255257      -0.28081731
H        0.67515668      -1.38372446      -0.82798643
H        2.07792400      -1.13296209       0.22966669
H        1.55050396       0.75246129      -0.09641550
H        0.38838625      -0.07388933       1.47399561
H       -1.11507038       1.58247750       0.58247344
H       -0.48486240       1.17760730      -1.03057151
11
Frame=13 idx=002848 GeodesicLength=0.6550920792685886 rxn_smarts="[C:1]([N:2]([C:3]([C:4]#[N:5])([H:10])[H:11])[H:9])([H:6])([H:7])[H:8]>>[C-:1]([N+:2]([C:3]([C:4]#[N:5])([H:10])[H:11])([H:8])[H:9])([H:6])[H:7]"
C        1.32024808      -0.62756368      -0.37497990
N        0.53351070       0.27759099       0.53281946
C       -0.70635331       0.78325964      -0.03447501
C       -1.72053781      -0.27234206      -0.16972484
N       -2.52493923      -1.08057337      -0.28935046
H        0.67364302      -1.39457863      -0.81203932
H        2.08395057      -1.12316032       0.22820481
H        1.56008195       0.75312762      -0.11606631
H        0.38301786      -0.08011443       1.47154897
H       -1.11560908       1.57920910       0.59023046
H       -0.48701275       1.18514515      -1.02616787
11
Frame=14 idx=002848 GeodesicLength=0.7052915881585459 rxn_smarts="[C:1]([N:2]([C:3]([C:4]#[N:5])([H:10])[H:11])[H:9])([H:6])([H:7])[H:8]>>[C-:1]([N+:2]([C:3]([C:4]#[N:5])([H:10])[H:11])([H:8])[H:9])([H:6])[H:7]"
C        1.31402241      -0.62772944      -0.36949791
N        0.53386909       0.27606593       0.53294385
C       -0.70684470       0.78443659      -0.03231826
C       -1.72011692      -0.27140896      -0.17310499
N       -2.52482926      -1.07857516      -0.29799297
H        0.67235015      -1.40512221      -0.79599437
H        2.08972553      -1.11342195       0.22676868
H        1.56959335       0.75344121      -0.13655242
H        0.37755877      -0.08628607       1.46926070
H       -1.11624061       1.57584548       0.59805722
H       -0.48908782       1.19275458      -1.02156953
11
Frame=15 idx=002848 GeodesicLength=0.7554845413765503 rxn_smarts="[C:1]([N:2]([C:3]([C:4]#[N:5])([H:10])[H:11])[H:9])([H:6])([H:7])[H:8]>>[C-:1]([N+:2]([C:3]([C:4]#[N:5])([H:10])[H:11])([H:8])[H:9])([H:6])[H:7]"
C        1.30787272      -0.62783243      -0.36383502
N        0.53418813       0.27456117       0.53328701
C       -0.70732602       0.78561838      -0.03004529
C       -1.71960725      -0.27048859      -0.17657380
N       -2.52460806      -1.07655983      -0.30680979
H        0.67126107      -1.41538136      -0.77980516
H        2.09525806      -1.10371764       0.22537213
H        1.57899934       0.75336278      -0.15795449
H        0.37201630      -0.09240525       1.46713163
H       -1.11696316       1.57237967       0.60598211
H       -0.49109113       1.20046312      -1.01674935
11
Frame=16 idx=002848 GeodesicLength=0.8056753737006042 rxn_smarts="[C:1]([N:2]([C:3]([C:4]#[N:5])([H:10])[H:11])[H:9])([H:6])([H:7])[H:8]>>[C-:1]([N+:2]([C:3]([C:4]#[N:5])([H:10])[H:11])([H:8])[H:9])([H:6])[H:7]"
C        1.30181035      -0.62784127      -0.35799072
N        0.53445188       0.27306722       0.53386342
C       -0.70779269       0.78680390      -0.02766685
C       -1.71901153      -0.26956784      -0.18015408
N       -2.52427326      -1.07453468      -0.31572057
H        0.67039107      -1.42531062      -0.76351853
H        2.10055099      -1.09404625       0.22401708
H        1.58829823       0.75286004      -0.18024733
H        0.36634842      -0.09850527       1.46516091
H       -1.11777709       1.56881855       0.61397522
H       -0.49299637       1.20825623      -1.01171854
