15
Frame=0 idx=011791 GeodesicLength=0.0 rxn_smarts="[C:1]([N:2](/[C:3](=[N:4]\[H:12])[C:5](=[O:6])[C:7]([H:13])([H:14])[H:15])[H:11])([H:8])([H:9])[H:10]>>[C+:1]([N:2]([C:3]([N-:4][H:12])=[C:5]([O:6][H:9])[C:7]([H:13])([H:14])[H:15])[H:11])([H:8])[H:10]"
C       -2.02341344       0.37475395      -0.01606169
N       -1.35337048      -0.76273864      -0.13278511
C        0.05348546      -0.85758579       0.28690847
N        0.37530956      -1.54289193       1.33159203
C        0.83226923       0.03434877      -0.45850282
O        0.24529145       0.62143083      -1.52571891
C        2.08336630       0.64329126       0.06726796
H       -3.05238472       0.41080988      -0.34819713
H       -0.66137818       0.99202190      -1.29786744
H       -1.63650135       1.11786255       0.67146321
H       -1.66133072      -1.38518565      -0.87101419
H       -0.42421672      -2.05195253       1.69231238
H        2.39390530       0.12317066       0.97231810
H        2.89078466       0.57606848      -0.66639090
H        1.93818361       1.70659622       0.29467601
15
Frame=1 idx=011791 GeodesicLength=0.11565445248644736 rxn_smarts="[C:1]([N:2](/[C:3](=[N:4]\[H:12])[C:5](=[O:6])[C:7]([H:13])([H:14])[H:15])[H:11])([H:8])([H:9])[H:10]>>[C+:1]([N:2]([C:3]([N-:4][H:12])=[C:5]([O:6][H:9])[C:7]([H:13])([H:14])[H:15])[H:11])([H:8])[H:10]"
C       -2.03558773       0.35311401      -0.01919596
N       -1.34525741      -0.77298780      -0.15559604
C        0.05294523      -0.85636551       0.28171322
N        0.36036668      -1.50280738       1.35537526
C        0.83788008       0.03397556      -0.46565415
O        0.24373874       0.63861375      -1.51511506
C        2.09931808       0.62503481       0.05506695
H       -3.06259244       0.37350438      -0.35907380
H       -0.67904184       1.03108838      -1.27250723
H       -1.68522382       1.06671481       0.71772342
H       -1.61247556      -1.36439787      -0.93421054
H       -0.45327455      -1.96185194       1.75021714
H        2.42569130       0.08003244       0.93960998
H        2.89190173       0.57529114      -0.69582365
H        1.96161153       1.68104121       0.31747046
15
Frame=2 idx=011791 GeodesicLength=0.2313241140849134 rxn_smarts="[C:1]([N:2](/[C:3](=[N:4]\[H:12])[C:5](=[O:6])[C:7]([H:13])([H:14])[H:15])[H:11])([H:8])([H:9])[H:10]>>[C+:1]([N:2]([C:3]([N-:4][H:12])=[C:5]([O:6][H:9])[C:7]([H:13])([H:14])[H:15])[H:11])([H:8])[H:10]"
C       -2.04735958       0.33189444      -0.02225456
N       -1.33691926      -0.78240109      -0.17674606
C        0.05245650      -0.85460886       0.27755367
N        0.34571121      -1.46169318       1.37812153
C        0.84368284       0.03325518      -0.47281153
O        0.24260636       0.65498549      -1.50426875
C        2.11496251       0.60658569       0.04309053
H       -3.07149357       0.33683535      -0.37171868
H       -0.69740119       1.06866504      -1.24567734
H       -1.73525722       1.01287651       0.76154716
H       -1.56472974      -1.34136780      -0.99117577
H       -0.48003730      -1.87100370       1.80165556
H        2.45533952       0.03726623       0.90675436
H        2.89306089       0.57434064      -0.72359939
H        1.98537803       1.65437007       0.33952925
15
Frame=3 idx=011791 GeodesicLength=0.34698464751443625 rxn_smarts="[C:1]([N:2](/[C:3](=[N:4]\[H:12])[C:5](=[O:6])[C:7]([H:13])([H:14])[H:15])[H:11])([H:8])([H:9])[H:10]>>[C+:1]([N:2]([C:3]([N-:4][H:12])=[C:5]([O:6][H:9])[C:7]([H:13])([H:14])[H:15])[H:11])([H:8])[H:10]"
C       -2.05862206       0.31127375      -0.02506678
N       -1.32840458      -0.79094320      -0.19622811
C        0.05202283      -0.85234110       0.27434853
N        0.33150908      -1.41962642       1.39978374
C        0.84970035       0.03211292      -0.48006380
O        0.24196160       0.67032545      -1.49341171
C        2.13020695       0.58807817       0.03136049
H       -3.07897996       0.30126702      -0.38583148
H       -0.71640584       1.10478011      -1.21753410
H       -1.78629837       0.95651378       0.80287161
H       -1.51840688      -1.31642386      -1.04221548
H       -0.50450555      -1.78030385       1.84691383
H        2.48267009      -0.00468925       0.87413560
H        2.89434900       0.57312475      -0.74961720
H        2.00920333       1.62685173       0.36055486
15
Frame=4 idx=011791 GeodesicLength=0.462628016988188 rxn_smarts="[C:1]([N:2](/[C:3](=[N:4]\[H:12])[C:5](=[O:6])[C:7]([H:13])([H:14])[H:15])[H:11])([H:8])([H:9])[H:10]>>[C+:1]([N:2]([C:3]([N-:4][H:12])=[C:5]([O:6][H:9])[C:7]([H:13])([H:14])[H:15])[H:11])([H:8])[H:10]"
C       -2.06928759       0.29140893      -0.02745533
N       -1.31976350      -0.79858827      -0.21407078
C        0.05165703      -0.84961981       0.27198625
N        0.31788729      -1.37669959       1.42030133
C        0.85596180       0.03046748      -0.48749908
O        0.24188604       0.68440788      -1.48279762
C        2.14497634       0.56964500       0.01990673
H       -3.08497601       0.26723176      -0.40108989
H       -0.73599090       1.13946118      -1.18824872
H       -1.83802057       0.89778862       0.84163746
H       -1.47380073      -1.28990136      -1.08765551
H       -0.52676989      -1.69052158       1.88635794
H        2.50761493      -0.04547052       0.84210811
H        2.89584692       0.57162406      -0.77382596
H        2.03277883       1.59876623       0.38034507
15
Frame=5 idx=011791 GeodesicLength=0.5782592636313356 rxn_smarts="[C:1]([N:2](/[C:3](=[N:4]\[H:12])[C:5](=[O:6])[C:7]([H:13])([H:14])[H:15])[H:11])([H:8])([H:9])[H:10]>>[C+:1]([N:2]([C:3]([N-:4][H:12])=[C:5]([O:6][H:9])[C:7]([H:13])([H:14])[H:15])[H:11])([H:8])[H:10]"
C       -2.07927591       0.27240788      -0.02925530
N       -1.31105872      -0.80534882      -0.23035914
C        0.05135062      -0.84653407       0.27030772
N        0.30494015      -1.33312494       1.43952547
C        0.86246263       0.02828718      -0.49517595
O        0.24244398       0.69708726      -1.47265780
C        2.15922228       0.55140346       0.00876309
H       -3.08943411       0.23509524      -0.41719669
H       -0.75612449       1.17277476      -1.15795076
H       -1.89016428       0.83667593       0.87788607
H       -1.43115561      -1.26206026      -1.12794678
H       -0.54690763      -1.60205776       1.92050277
H        2.53014006      -0.08471438       0.81107882
H        2.89765147       0.56967427      -0.79619898
H        2.05590955       1.57043424       0.39867746
15
Frame=6 idx=011791 GeodesicLength=0.6938612855825574 rxn_smarts="[C:1]([N:2](/[C:3](=[N:4]\[H:12])[C:5](=[O:6])[C:7]([H:13])([H:14])[H:15])[H:11])([H:8])([H:9])[H:10]>>[C+:1]([N:2]([C:3]([N-:4][H:12])=[C:5]([O:6][H:9])[C:7]([H:13])([H:14])[H:15])[H:11])([H:8])[H:10]"
C       -2.08860564       0.25433530      -0.03034172
N       -1.30231864      -0.81120059      -0.24514177
C        0.05111282      -0.84305092       0.26930143
N        0.29267845      -1.28871362       1.45760267
C        0.86920409       0.02557911      -0.50308874
O        0.24368661       0.70824983      -1.46317696
C        2.17296618       0.53342284      -0.00208587
H       -3.09237304       0.20510363      -0.43393755
H       -0.77677848       1.20483708      -1.12670149
H       -1.94257138       0.77328150       0.91149120
H       -1.39057446      -1.23321030      -1.16341955
H       -0.56513689      -1.51565178       1.94968233
H        2.55043308      -0.12230673       0.78121046
H        2.89980329       0.56725356      -0.81687750
H        2.07847401       1.54207111       0.41548305
15
Frame=7 idx=011791 GeodesicLength=0.809419053789693 rxn_smarts="[C:1]([N:2](/[C:3](=[N:4]\[H:12])[C:5](=[O:6])[C:7]([H:13])([H:14])[H:15])[H:11])([H:8])([H:9])[H:10]>>[C+:1]([N:2]([C:3]([N-:4][H:12])=[C:5]([O:6][H:9])[C:7]([H:13])([H:14])[H:15])[H:11])([H:8])[H:10]"
C       -2.09729915       0.23718475      -0.03060915
N       -1.29356254      -0.81616501      -0.25852351
C        0.05094701      -0.83917358       0.26889940
N        0.28111990      -1.24342090       1.47453739
C        0.87616657       0.02237935      -0.51122373
O        0.24564131       0.71787759      -1.45448926
C        2.18623664       0.51573253      -0.01265660
H       -3.09381616       0.17742017      -0.45114046
H       -0.79795723       1.23580980      -1.09445028
H       -1.99514745       0.70751106       0.94238095
H       -1.35208726      -1.20358635      -1.19450539
H       -0.58167348      -1.43148360       1.97443036
H        2.56867461      -0.15821496       0.75262525
H        2.90232655       0.56428014      -0.83601111
H        2.10043067       1.51384898       0.43073614
15
Frame=8 idx=011791 GeodesicLength=0.9249726619490002 rxn_smarts="[C:1]([N:2](/[C:3](=[N:4]\[H:12])[C:5](=[O:6])[C:7]([H:13])([H:14])[H:15])[H:11])([H:8])([H:9])[H:10]>>[C+:1]([N:2]([C:3]([N-:4][H:12])=[C:5]([O:6][H:9])[C:7]([H:13])([H:14])[H:15])[H:11])([H:8])[H:10]"
C       -2.10535889       0.22095048      -0.02991780
N       -1.28482728      -0.82026633      -0.27061827
C        0.05085289      -0.83496528       0.26899362
N        0.27023687      -1.19723049       1.49027997
C        0.88334424       0.01868498      -0.51958445
O        0.24835546       0.72590351      -1.44676286
C        2.19905843       0.49837796      -0.02294420
H       -3.09378277       0.15225334      -0.46857409
H       -0.81968167       1.26581665      -1.06116323
H       -2.04771087       0.63916666       0.97051137
H       -1.31577364      -1.17333893      -1.22164016
H       -0.59672540      -1.34965768       1.99522695
H        2.58500177      -0.19230982       0.72554624
H        2.90529145       0.56061783      -0.85369423
H        2.12171940       1.48599713       0.44434113
15
Frame=9 idx=011791 GeodesicLength=1.0404396568164944 rxn_smarts="[C:1]([N:2](/[C:3](=[N:4]\[H:12])[C:5](=[O:6])[C:7]([H:13])([H:14])[H:15])[H:11])([H:8])([H:9])[H:10]>>[C+:1]([N:2]([C:3]([N-:4][H:12])=[C:5]([O:6][H:9])[C:7]([H:13])([H:14])[H:15])[H:11])([H:8])[H:10]"
C       -2.11288984       0.20550661      -0.02822717
N       -1.27609619      -0.82355732      -0.28155048
C        0.05083839      -0.83037831       0.26958423
N        0.26001976      -1.14999251       1.50493189
C        0.89070584       0.01457435      -0.52812889
O        0.25180553       0.73244889      -1.44004795
C        2.21150590       0.48130187      -0.03299982
H       -3.09237497       0.12955085      -0.48615265
H       -0.84199988       1.29507721      -1.02654421
H       -2.10026077       0.56812112       0.99562593
H       -1.28149915      -1.14267726      -1.24524245
H       -0.61053498      -1.26989182       2.01261600
H        2.59970100      -0.22487699       0.69981765
H        2.90865029       0.55630382      -0.87018279
H        2.14242907       1.45848949       0.45650071
15
Frame=10 idx=011791 GeodesicLength=1.1559039511764593 rxn_smarts="[C:1]([N:2](/[C:3](=[N:4]\[H:12])[C:5](=[O:6])[C:7]([H:13])([H:14])[H:15])[H:11])([H:8])([H:9])[H:10]>>[C+:1]([N:2]([C:3]([N-:4][H:12])=[C:5]([O:6][H:9])[C:7]([H:13])([H:14])[H:15])[H:11])([H:8])[H:10]"
C       -2.11989104       0.19079287      -0.02538359
N       -1.26740188      -0.82607235      -0.29145889
C        0.05090133      -0.82552798       0.27052551
N        0.25038405      -1.10174403       1.51833546
C        0.89825368       0.00999617      -0.53687622
O        0.25604901       0.73742381      -1.43449325
C        2.22357905       0.46452186      -0.04279389
H       -3.08961638       0.10949010      -0.50357236
H       -0.86496473       1.32368603      -0.99044820
H       -2.15247359       0.49405541       1.01761023
H       -1.24933151      -1.11163754      -1.26572331
H       -0.62326668      -1.19189244       2.02697535
H        2.61284380      -0.25579595       0.67567763
H        2.91247383       0.55118536      -0.88549856
H        2.16246107       1.43151867       0.46712409
15
Frame=11 idx=011791 GeodesicLength=1.2713497972834318 rxn_smarts="[C:1]([N:2](/[C:3](=[N:4]\[H:12])[C:5](=[O:6])[C:7]([H:13])([H:14])[H:15])[H:11])([H:8])([H:9])[H:10]>>[C+:1]([N:2]([C:3]([N-:4][H:12])=[C:5]([O:6][H:9])[C:7]([H:13])([H:14])[H:15])[H:11])([H:8])[H:10]"
C       -2.12644571       0.17661747      -0.02131129
N       -1.25874031      -0.82786790      -0.30049274
C        0.05103025      -0.82043827       0.27174938
N        0.24123278      -1.05240934       1.53042359
C        0.90596624       0.00497390      -0.54580241
O        0.26109602       0.74090271      -1.43011391
C        2.23532071       0.44797044      -0.05234407
H       -3.08559773       0.09199395      -0.52063174
H       -0.88865095       1.35178701      -0.95244730
H       -2.20412686       0.41666682       1.03615829
H       -1.21918218      -1.08026754      -1.28346514
H       -0.63511330      -1.11495511       2.03866080
H        2.62458717      -0.28524703       0.65307280
H        2.91675497       0.54521128      -0.89977618
H        2.18186891       1.40506161       0.47631993
15
Frame=12 idx=011791 GeodesicLength=1.3869124471958552 rxn_smarts="[C:1]([N:2](/[C:3](=[N:4]\[H:12])[C:5](=[O:6])[C:7]([H:13])([H:14])[H:15])[H:11])([H:8])([H:9])[H:10]>>[C+:1]([N:2]([C:3]([N-:4][H:12])=[C:5]([O:6][H:9])[C:7]([H:13])([H:14])[H:15])[H:11])([H:8])[H:10]"
C       -2.13276341       0.16270736      -0.01594529
N       -1.25013558      -0.82902560      -0.30884843
C        0.05122790      -0.81514674       0.27319767
N        0.23248519      -1.00187639       1.54117635
C        0.91384506      -0.00045448      -0.55489393
O        0.26692226       0.74304291      -1.42689418
C        2.24687977       0.43153400      -0.06167249
H       -3.08052206       0.07695476      -0.53725486
H       -0.91327515       1.37953704      -0.91192472
H       -2.25511743       0.33544318       1.05097220
H       -1.19097941      -1.04854999      -1.29892552
H       -0.64622158      -1.03799702       2.04803117
H        2.63519027      -0.31347483       0.63194305
H        2.92159650       0.53826478      -0.91319156
H        2.20086768       1.37904101       0.48423055
15
Frame=13 idx=011791 GeodesicLength=1.502309280879144 rxn_smarts="[C:1]([N:2](/[C:3](=[N:4]\[H:12])[C:5](=[O:6])[C:7]([H:13])([H:14])[H:15])[H:11])([H:8])([H:9])[H:10]>>[C+:1]([N:2]([C:3]([N-:4][H:12])=[C:5]([O:6][H:9])[C:7]([H:13])([H:14])[H:15])[H:11])([H:8])[H:10]"
C       -2.13880877       0.14876544      -0.00936055
N       -1.24140604      -0.82965007      -0.31670748
C        0.05152297      -0.80969590       0.27481177
N        0.22399853      -0.95027339       1.55048336
C        0.92180297      -0.00627259      -0.56411208
O        0.27349038       0.74397919      -1.42479969
C        2.25805451       0.41510065      -0.07075113
H       -3.07456112       0.06377601      -0.55287727
H       -0.93884589       1.40703348      -0.86819094
H       -2.30452776       0.25107854       1.06143225
H       -1.16437168      -1.01659631      -1.31240526
H       -0.65675801      -0.96013992       2.05499941
H        2.64451346      -0.34084863       0.61213709
H        2.92666966       0.53041724      -0.92575718
H        2.21922679       1.35332625       0.49109770
15
Frame=14 idx=011791 GeodesicLength=1.6178603964895404 rxn_smarts="[C:1]([N:2](/[C:3](=[N:4]\[H:12])[C:5](=[O:6])[C:7]([H:13])([H:14])[H:15])[H:11])([H:8])([H:9])[H:10]>>[C+:1]([N:2]([C:3]([N-:4][H:12])=[C:5]([O:6][H:9])[C:7]([H:13])([H:14])[H:15])[H:11])([H:8])[H:10]"
C       -2.14477800       0.13467108      -0.00139043
N       -1.23280105      -0.82974284      -0.32434674
C        0.05184484      -0.80437816       0.27628987
N        0.21566473      -0.89818497       1.55799371
C        0.92995631      -0.01267872      -0.57358738
O        0.28098197       0.74341155      -1.42418222
C        2.26897807       0.39873833      -0.07937825
H       -3.06820633       0.05247260      -0.56689740
H       -0.96564262       1.43409236      -0.82109648
H       -2.35147179       0.16350697       1.06756564
H       -1.13975689      -0.98422309      -1.32441633
H       -0.66674411      -0.88034388       2.05950712
H        2.65276108      -0.36707589       0.59415006
H        2.93240259       0.52161540      -0.93723198
H        2.23681120       1.32811926       0.49702079
15
Frame=15 idx=011791 GeodesicLength=1.7334320352042931 rxn_smarts="[C:1]([N:2](/[C:3](=[N:4]\[H:12])[C:5](=[O:6])[C:7]([H:13])([H:14])[H:15])[H:11])([H:8])([H:9])[H:10]>>[C+:1]([N:2]([C:3]([N-:4][H:12])=[C:5]([O:6][H:9])[C:7]([H:13])([H:14])[H:15])[H:11])([H:8])[H:10]"
C       -2.15066114       0.12008598       0.00783381
N       -1.22426448      -0.82936380      -0.33200533
C        0.05211622      -0.79930908       0.27746649
N        0.20724701      -0.84594839       1.56343637
C        0.93824089      -0.01972075      -0.58329127
O        0.28948880       0.74133174      -1.42504322
C        2.27946741       0.38237809      -0.08743107
H       -3.06176961       0.04223841      -0.57870034
H       -0.99375002       1.46062246      -0.76998097
H       -2.39460390       0.07371316       1.06914362
H       -1.11697816      -0.95138232      -1.33523588
H       -0.67626933      -0.79754687       2.06101906
H        2.65976139      -0.39236135       0.57796082
H        2.93859940       0.51194526      -0.94743570
H        2.25337551       1.30331746       0.50226362
15
Frame=16 idx=011791 GeodesicLength=1.8491232079668234 rxn_smarts="[C:1]([N:2](/[C:3](=[N:4]\[H:12])[C:5](=[O:6])[C:7]([H:13])([H:14])[H:15])[H:11])([H:8])([H:9])[H:10]>>[C+:1]([N:2]([C:3]([N-:4][H:12])=[C:5]([O:6][H:9])[C:7]([H:13])([H:14])[H:15])[H:11])([H:8])[H:10]"
C       -2.15655622       0.10473354       0.01810694
N       -1.21577278      -0.82852553      -0.33996083
C        0.05228956      -0.79458642       0.27818025
N        0.19856778      -0.79390114       1.56663470
C        0.94665284      -0.02746071      -0.59322130
O        0.29912691       0.73768723      -1.42750247
C        2.28943360       0.36595495      -0.09476443
H       -3.05573580       0.03225390      -0.58787417
H       -1.02341457       1.48651384      -0.71419946
H       -2.43274944      -0.01718606       1.06635918
H       -1.09591194      -0.91797557      -1.34521023
H       -0.68533105      -0.71093674       2.05890415
H        2.66545829      -0.41684683       0.56367564
H        2.94522016       0.50139436      -0.95618554
H        2.26872265       1.27888118       0.50705755
