18
Frame=0 idx=008099 GeodesicLength=0.0 rxn_smarts="[C:1]([C:2]([N:3]([C:4]([H:13])([H:14])[H:15])[C:5](=[O:6])[C:7]([H:16])([H:17])[H:18])([H:11])[H:12])([H:8])([H:9])[H:10]>>[C:1]([C:2]([N:3]([C:4]([H:13])([H:14])[H:15])[C:5]([O:6][H:17])=[C:7]([H:16])[H:18])([H:11])[H:12])([H:8])([H:9])[H:10]"
C       -2.13236125       0.44500780      -0.66978988
C       -1.32107284      -0.51567047       0.18572499
N        0.06837712      -0.10000223       0.34525430
C        0.37732723       0.80208187       1.43423707
C        0.99882772      -0.52043359      -0.49844482
O        0.66809070      -1.21137377      -1.54652212
C        2.43662763      -0.44471053      -0.45880011
H       -3.16961721       0.11141851      -0.72997614
H       -1.72429712       0.48436496      -1.67997944
H       -2.12961419       1.45435961      -0.25297161
H       -1.31816604      -1.50670704      -0.26668857
H       -1.75306073      -0.60084797       1.18643896
H        0.28488899       0.29329329       2.39717801
H        1.39306495       1.17098386       1.32077948
H       -0.30729446       1.65295795       1.42215301
H        2.81331830       0.26530472      -1.19406868
H        1.86399322      -1.40047243      -1.48982230
H        2.95096802      -0.37955454       0.49529777
18
Frame=1 idx=008099 GeodesicLength=0.05396812199353634 rxn_smarts="[C:1]([C:2]([N:3]([C:4]([H:13])([H:14])[H:15])[C:5](=[O:6])[C:7]([H:16])([H:17])[H:18])([H:11])[H:12])([H:8])([H:9])[H:10]>>[C:1]([C:2]([N:3]([C:4]([H:13])([H:14])[H:15])[C:5]([O:6][H:17])=[C:7]([H:16])[H:18])([H:11])[H:12])([H:8])([H:9])[H:10]"
C       -2.13852013       0.45187049      -0.66707557
C       -1.32100523      -0.51207634       0.17909019
N        0.06668583      -0.09121197       0.33674215
C        0.37589327       0.79699846       1.43623269
C        0.99766258      -0.49541291      -0.51708556
O        0.67291444      -1.22598557      -1.53950583
C        2.43484758      -0.43771707      -0.45792901
H       -3.17492991       0.11550160      -0.72669298
H       -1.73187047       0.49716657      -1.67773863
H       -2.13671085       1.45850330      -0.24365849
H       -1.31687282      -1.50019839      -0.27936805
H       -1.75040349      -0.60698722       1.18018198
H        0.29562653       0.27267995       2.39219288
H        1.38741778       1.17781568       1.32424219
H       -0.31673546       1.64150639       1.44149777
H        2.83293263       0.23103460      -1.21986643
H        1.87925469      -1.43836338      -1.45654385
H        2.94381303      -0.33512420       0.49528454
18
Frame=2 idx=008099 GeodesicLength=0.10752020270334067 rxn_smarts="[C:1]([C:2]([N:3]([C:4]([H:13])([H:14])[H:15])[C:5](=[O:6])[C:7]([H:16])([H:17])[H:18])([H:11])[H:12])([H:8])([H:9])[H:10]>>[C:1]([C:2]([N:3]([C:4]([H:13])([H:14])[H:15])[C:5]([O:6][H:17])=[C:7]([H:16])[H:18])([H:11])[H:12])([H:8])([H:9])[H:10]"
C       -2.14446794       0.45884269      -0.66435862
C       -1.32085032      -0.50851654       0.17222405
N        0.06517359      -0.08278548       0.32790888
C        0.37472119       0.79142677       1.43764596
C        0.99651916      -0.47212993      -0.53538115
O        0.67774576      -1.23974671      -1.53197524
C        2.43270253      -0.43011211      -0.45722333
H       -3.18006384       0.11990851      -0.72341434
H       -1.73944946       0.51029393      -1.67547143
H       -2.14346269       1.46259005      -0.23421202
H       -1.31583268      -1.49357719      -0.29236978
H       -1.74750741      -0.61322153       1.17358993
H        0.30691889       0.25182356       2.38627904
H        1.38176149       1.18433754       1.32718760
H       -0.32574693       1.62919944       1.46017503
H        2.85096482       0.19634717      -1.24355752
H        1.89381124      -1.47508437      -1.42014498
H        2.93706260      -0.28959578       0.49309791
18
Frame=3 idx=008099 GeodesicLength=0.1607738154683025 rxn_smarts="[C:1]([C:2]([N:3]([C:4]([H:13])([H:14])[H:15])[C:5](=[O:6])[C:7]([H:16])([H:17])[H:18])([H:11])[H:12])([H:8])([H:9])[H:10]>>[C:1]([C:2]([N:3]([C:4]([H:13])([H:14])[H:15])[C:5]([O:6][H:17])=[C:7]([H:16])[H:18])([H:11])[H:12])([H:8])([H:9])[H:10]"
C       -2.15015321       0.46588126      -0.66168619
C       -1.32075273      -0.50505412       0.16525661
N        0.06376005      -0.07481602       0.31893551
C        0.37380984       0.78548145       1.43861293
C        0.99541464      -0.45101315      -0.55306642
O        0.68257036      -1.25310896      -1.52401069
C        2.43033687      -0.42207470      -0.45680666
H       -3.18504299       0.12465613      -0.72017523
H       -1.74687210       0.52350991      -1.67327679
H       -2.14970856       1.46671009      -0.22477317
H       -1.31524525      -1.48703144      -0.30550974
H       -1.74465235      -0.61942679       1.16684740
H        0.31845650       0.23101858       2.37971773
H        1.37624854       1.19045151       1.32980510
H       -0.33418126       1.61632530       1.47812875
H        2.86740523       0.16185586      -1.26503828
H        1.90790788      -1.51000017      -1.38170037
H        2.93069853      -0.24336476       0.48873951
18
Frame=4 idx=008099 GeodesicLength=0.21379117373484396 rxn_smarts="[C:1]([C:2]([N:3]([C:4]([H:13])([H:14])[H:15])[C:5](=[O:6])[C:7]([H:16])([H:17])[H:18])([H:11])[H:12])([H:8])([H:9])[H:10]>>[C:1]([C:2]([N:3]([C:4]([H:13])([H:14])[H:15])[C:5]([O:6][H:17])=[C:7]([H:16])[H:18])([H:11])[H:12])([H:8])([H:9])[H:10]"
C       -2.15557769       0.47295460      -0.65905679
C       -1.32070499      -0.50167745       0.15826983
N        0.06241127      -0.06728870       0.30990144
C        0.37316443       0.77920898       1.43912184
C        0.99431410      -0.43204496      -0.57004794
O        0.68737660      -1.26624380      -1.51560917
C        2.42776095      -0.41377875      -0.45663374
H       -3.18984597       0.12972074      -0.71696221
H       -1.75413533       0.53671423      -1.67113303
H       -2.15546643       1.47084446      -0.21543357
H       -1.31505150      -1.48056010      -0.31862706
H       -1.74182528      -0.62551396       1.16002763
H        0.33014176       0.21040350       2.37255077
H        1.37092144       1.19602780       1.33212248
H       -0.34198628       1.60299422       1.49522184
H        2.88226220       0.12791384      -1.28422779
H        1.92174274      -1.54280701      -1.34188513
H        2.92449798      -0.19686764       0.48240061
18
Frame=5 idx=008099 GeodesicLength=0.26650396004125665 rxn_smarts="[C:1]([C:2]([N:3]([C:4]([H:13])([H:14])[H:15])[C:5](=[O:6])[C:7]([H:16])([H:17])[H:18])([H:11])[H:12])([H:8])([H:9])[H:10]>>[C:1]([C:2]([N:3]([C:4]([H:13])([H:14])[H:15])[C:5]([O:6][H:17])=[C:7]([H:16])[H:18])([H:11])[H:12])([H:8])([H:9])[H:10]"
C       -2.16073484       0.48009244      -0.65649641
C       -1.32074368      -0.49835109       0.15122731
N        0.06109670      -0.06020849       0.30086689
C        0.37277674       0.77252140       1.43927380
C        0.99318684      -0.41503881      -0.58636115
O        0.69214519      -1.27936594      -1.50653872
C        2.42502926      -0.40520273      -0.45678542
H       -3.19446950       0.13514840      -0.71389923
H       -1.76115866       0.54994788      -1.66899078
H       -2.16072941       1.47496236      -0.20618320
H       -1.31529145      -1.47407145      -0.33177205
H       -1.73909972      -0.63145912       1.15303899
H        0.34193442       0.18984924       2.36484068
H        1.36579426       1.20095710       1.33427106
H       -0.34917025       1.58911934       1.51160514
H        2.89556105       0.09437490      -1.30141983
H        1.93540563      -1.57354545      -1.30049435
H        2.91846741      -0.14972999       0.47381727
18
Frame=6 idx=008099 GeodesicLength=0.319026094628733 rxn_smarts="[C:1]([C:2]([N:3]([C:4]([H:13])([H:14])[H:15])[C:5](=[O:6])[C:7]([H:16])([H:17])[H:18])([H:11])[H:12])([H:8])([H:9])[H:10]>>[C:1]([C:2]([N:3]([C:4]([H:13])([H:14])[H:15])[C:5]([O:6][H:17])=[C:7]([H:16])[H:18])([H:11])[H:12])([H:8])([H:9])[H:10]"
C       -2.16570538       0.48723559      -0.65394776
C       -1.32085846      -0.49510309       0.14418303
N        0.05980114      -0.05346641       0.29181355
C        0.37262592       0.76559681       1.43906261
C        0.99204234      -0.39975722      -0.60215445
O        0.69687906      -1.29241209      -1.49706371
C        2.42218464      -0.39659377      -0.45716073
H       -3.19898093       0.14079021      -0.71084463
H       -1.76805566       0.56314438      -1.66685835
H       -2.16561683       1.47906788      -0.19698530
H       -1.31586621      -1.46764719      -0.34489769
H       -1.73644485      -0.63730185       1.14599858
H        0.35372729       0.16954606       2.35665339
H        1.36091260       1.20532466       1.33626179
H       -0.35574298       1.57495139       1.52722646
H        2.90772337       0.06136175      -1.31649718
H        1.94902842      -1.60216338      -1.25812248
H        2.91234651      -0.10257376       0.46333288
18
Frame=7 idx=008099 GeodesicLength=0.37139415111128554 rxn_smarts="[C:1]([C:2]([N:3]([C:4]([H:13])([H:14])[H:15])[C:5](=[O:6])[C:7]([H:16])([H:17])[H:18])([H:11])[H:12])([H:8])([H:9])[H:10]>>[C:1]([C:2]([N:3]([C:4]([H:13])([H:14])[H:15])[C:5]([O:6][H:17])=[C:7]([H:16])[H:18])([H:11])[H:12])([H:8])([H:9])[H:10]"
C       -2.17058479       0.49429624      -0.65135822
C       -1.32100415      -0.49193175       0.13716525
N        0.05853585      -0.04695008       0.28270561
C        0.37272841       0.75858403       1.43842576
C        0.99089319      -0.38595047      -0.61752361
O        0.70152984      -1.30511546      -1.48745054
C        2.41925498      -0.38820522      -0.45758947
H       -3.20344812       0.14647224      -0.70768779
H       -1.77499484       0.57623314      -1.66470550
H       -2.17028638       1.48307492      -0.18781330
H       -1.31663824      -1.46128091      -0.35796268
H       -1.73375282      -0.64305319       1.13895593
H        0.36550415       0.14968639       2.34797314
H        1.35633818       1.20919000       1.33804488
H       -0.36169206       1.56066986       1.54196708
H        2.91901301       0.02895112      -1.32921581
H        1.96263123      -1.62863858      -1.21525809
H        2.90597255      -0.05603226       0.45132738
18
Frame=8 idx=008099 GeodesicLength=0.4236151767827374 rxn_smarts="[C:1]([C:2]([N:3]([C:4]([H:13])([H:14])[H:15])[C:5](=[O:6])[C:7]([H:16])([H:17])[H:18])([H:11])[H:12])([H:8])([H:9])[H:10]>>[C:1]([C:2]([N:3]([C:4]([H:13])([H:14])[H:15])[C:5]([O:6][H:17])=[C:7]([H:16])[H:18])([H:11])[H:12])([H:8])([H:9])[H:10]"
C       -2.17534163       0.50133950      -0.64873683
C       -1.32120890      -0.48881599       0.13013332
N        0.05727581      -0.04064688       0.27354807
C        0.37304709       0.75139755       1.43745011
C        0.98971847      -0.37346353      -0.63255296
O        0.70612129      -1.31773742      -1.47749049
C        2.41622886      -0.37991099      -0.45814605
H       -3.20784642       0.15227785      -0.70446758
H       -1.78189060       0.58929460      -1.66251257
H       -2.17467772       1.48703117      -0.17863601
H       -1.31765705      -1.45493536      -0.37104218
H       -1.73109009      -0.64874126       1.13184753
H        0.37724937       0.13006208       2.33883478
H        1.35203115       1.21252078       1.33971455
H       -0.36708311       1.54616858       1.55602961
H        2.92956731      -0.00303033      -1.33996851
H        1.97630097      -1.65314330      -1.17159810
H        2.89925523      -0.00966707       0.43759331
18
Frame=9 idx=008099 GeodesicLength=0.4756688826066094 rxn_smarts="[C:1]([C:2]([N:3]([C:4]([H:13])([H:14])[H:15])[C:5](=[O:6])[C:7]([H:16])([H:17])[H:18])([H:11])[H:12])([H:8])([H:9])[H:10]>>[C:1]([C:2]([N:3]([C:4]([H:13])([H:14])[H:15])[C:5]([O:6][H:17])=[C:7]([H:16])[H:18])([H:11])[H:12])([H:8])([H:9])[H:10]"
C       -2.18005367       0.50827470      -0.64603777
C       -1.32138891      -0.48575355       0.12311329
N        0.05604546      -0.03446351       0.26430688
C        0.37360188       0.74418260       1.43604386
C        0.98853440      -0.36210200      -0.64730517
O        0.71059714      -1.32991137      -1.46746973
C        2.41310934      -0.37195592      -0.45866250
H       -3.21219724       0.15801107      -0.70112426
H       -1.78889676       0.60229494      -1.66023427
H       -2.17898441       1.49082410      -0.16942011
H       -1.31873397      -1.44859084      -0.38407590
H       -1.72828776      -0.65436994       1.12471208
H        0.38894881       0.11088364       2.32920183
H        1.34804677       1.21534677       1.34118976
H       -0.37189064       1.53164200       1.56923099
H        2.93943742      -0.03443415      -1.34846250
H        1.98998607      -1.67564222      -1.12749776
H        2.89212607       0.03576369       0.42249130
18
Frame=10 idx=008099 GeodesicLength=0.5276466300168446 rxn_smarts="[C:1]([C:2]([N:3]([C:4]([H:13])([H:14])[H:15])[C:5](=[O:6])[C:7]([H:16])([H:17])[H:18])([H:11])[H:12])([H:8])([H:9])[H:10]>>[C:1]([C:2]([N:3]([C:4]([H:13])([H:14])[H:15])[C:5]([O:6][H:17])=[C:7]([H:16])[H:18])([H:11])[H:12])([H:8])([H:9])[H:10]"
C       -2.18472143       0.51515342      -0.64326409
C       -1.32160069      -0.48273953       0.11607878
N        0.05482633      -0.02839662       0.25498587
C        0.37436465       0.73690099       1.43429169
C        0.98734865      -0.35177764      -0.66184205
O        0.71498574      -1.34187214      -1.45730540
C        2.40992600      -0.36425268      -0.45918400
H       -3.21653775       0.16375089      -0.69765831
H       -1.79596565       0.61527713      -1.65788316
H       -2.18315507       1.49451683      -0.16013146
H       -1.31995821      -1.44225105      -0.39714064
H       -1.72545090      -0.65997091       1.11752642
H        0.40059366       0.09202123       2.31913522
H        1.34437533       1.21769561       1.34254816
H       -0.37617969       1.51703131       1.58175431
H        2.94883343      -0.06535448      -1.35501332
H        2.00377967      -1.69633476      -1.08283267
H        2.88453594       0.08060239       0.40593466
18
Frame=11 idx=008099 GeodesicLength=0.5796067473222816 rxn_smarts="[C:1]([C:2]([N:3]([C:4]([H:13])([H:14])[H:15])[C:5](=[O:6])[C:7]([H:16])([H:17])[H:18])([H:11])[H:12])([H:8])([H:9])[H:10]>>[C:1]([C:2]([N:3]([C:4]([H:13])([H:14])[H:15])[C:5]([O:6][H:17])=[C:7]([H:16])[H:18])([H:11])[H:12])([H:8])([H:9])[H:10]"
C       -2.18932703       0.52203752      -0.64042212
C       -1.32184088      -0.47975405       0.10899739
N        0.05361058      -0.02244958       0.24558003
C        0.37531879       0.72948181       1.43222856
C        0.98614236      -0.34243869      -0.67620162
O        0.71932494      -1.35379855      -1.44686793
C        2.40666088      -0.35671870      -0.45973664
H       -3.22084106       0.16957214      -0.69411246
H       -1.80305216       0.62833661      -1.65544335
H       -2.18718425       1.49814311      -0.15073434
H       -1.32133200      -1.43587466      -0.41029090
H       -1.72258075      -0.66556060       1.11024341
H        0.41221413       0.07332378       2.30862734
H        1.34097597       1.21953722       1.34381842
H       -0.37999666       1.50224488       1.59371341
H        2.95772601      -0.09584862      -1.35981349
H        2.01774768      -1.71536342      -1.03734510
H        2.87643345       0.12512981       0.38775939
18
Frame=12 idx=008099 GeodesicLength=0.6316071720094882 rxn_smarts="[C:1]([C:2]([N:3]([C:4]([H:13])([H:14])[H:15])[C:5](=[O:6])[C:7]([H:16])([H:17])[H:18])([H:11])[H:12])([H:8])([H:9])[H:10]>>[C:1]([C:2]([N:3]([C:4]([H:13])([H:14])[H:15])[C:5]([O:6][H:17])=[C:7]([H:16])[H:18])([H:11])[H:12])([H:8])([H:9])[H:10]"
C       -2.19387008       0.52899290      -0.63752009
C       -1.32213808      -0.47678212       0.10182667
N        0.05238534      -0.01662496       0.23607836
C        0.37645671       0.72184246       1.42990392
C        0.98490938      -0.33405948      -0.69043147
O        0.72366774      -1.36587586      -1.43599925
C        2.40332386      -0.34926319      -0.46036677
H       -3.22512274       0.17556378      -0.69052254
H       -1.81012154       0.64155947      -1.65290968
H       -2.19105056       1.50175177      -0.14119411
H       -1.32290441      -1.42942854      -0.42360976
H       -1.71972891      -0.67116901       1.10280591
H        0.42384007       0.05461746       2.29767298
H        1.33783641       1.22083348       1.34504899
H       -0.38337798       1.48717338       1.60525956
H        2.96614979      -0.12603129      -1.36303510
H        2.03196395      -1.73280988      -0.99069327
H        2.86778105       0.16970963       0.36768565
18
Frame=13 idx=008099 GeodesicLength=0.6837060531758805 rxn_smarts="[C:1]([C:2]([N:3]([C:4]([H:13])([H:14])[H:15])[C:5](=[O:6])[C:7]([H:16])([H:17])[H:18])([H:11])[H:12])([H:8])([H:9])[H:10]>>[C:1]([C:2]([N:3]([C:4]([H:13])([H:14])[H:15])[C:5]([O:6][H:17])=[C:7]([H:16])[H:18])([H:11])[H:12])([H:8])([H:9])[H:10]"
C       -2.19831636       0.53608410      -0.63456849
C       -1.32250077      -0.47380138       0.09454098
N        0.05113955      -0.01094214       0.22647924
C        0.37776198       0.71390342       1.42733522
C        0.98359437      -0.32666032      -0.70454283
O        0.72807556      -1.37835836      -1.42442714
C        2.39988076      -0.34171520      -0.46115180
H       -3.22935159       0.18184084      -0.68690792
H       -1.81712074       0.65500970      -1.65027567
H       -2.19468925       1.50538072      -0.13150606
H       -1.32470557      -1.42285847      -0.43714344
H       -1.71691240      -0.67679738       1.09517199
H        0.43549572       0.03576653       2.28625183
H        1.33493236       1.22151457       1.34625454
H       -0.38635598       1.47170506       1.61646055
H        2.97403965      -0.15584964      -1.36496496
H        2.04661696      -1.74861062      -0.94260696
H        2.85841576       0.21438858       0.34560093
18
Frame=14 idx=008099 GeodesicLength=0.7358609556403737 rxn_smarts="[C:1]([C:2]([N:3]([C:4]([H:13])([H:14])[H:15])[C:5](=[O:6])[C:7]([H:16])([H:17])[H:18])([H:11])[H:12])([H:8])([H:9])[H:10]>>[C:1]([C:2]([N:3]([C:4]([H:13])([H:14])[H:15])[C:5]([O:6][H:17])=[C:7]([H:16])[H:18])([H:11])[H:12])([H:8])([H:9])[H:10]"
C       -2.20278280       0.54317561      -0.63150223
C       -1.32286876      -0.47083647       0.08716438
N        0.04990455      -0.00527199       0.21671610
C        0.37928580       0.70586950       1.42441806
C        0.98228886      -0.32003641      -0.71862192
O        0.73241829      -1.39070443      -1.41264822
C        2.39635648      -0.33440538      -0.46186625
H       -3.23360866       0.18811046      -0.68315575
H       -1.82426126       0.66862887      -1.64750403
H       -2.19831877       1.50889951      -0.12160785
H       -1.32658889      -1.41620235      -0.45085322
H       -1.71398396      -0.68250141       1.08739698
H        0.44715296       0.01704088       2.27433362
H        1.33239535       1.22167537       1.34733641
H       -0.38885265       1.45611194       1.62711111
H        2.98171275      -0.18528586      -1.36507418
H        2.06143376      -1.76271400      -0.89353955
H        2.84831697       0.25844614       0.32189654
18
Frame=15 idx=008099 GeodesicLength=0.7880704073571645 rxn_smarts="[C:1]([C:2]([N:3]([C:4]([H:13])([H:14])[H:15])[C:5](=[O:6])[C:7]([H:16])([H:17])[H:18])([H:11])[H:12])([H:8])([H:9])[H:10]>>[C:1]([C:2]([N:3]([C:4]([H:13])([H:14])[H:15])[C:5]([O:6][H:17])=[C:7]([H:16])[H:18])([H:11])[H:12])([H:8])([H:9])[H:10]"
C       -2.20710858       0.55033771      -0.62835364
C       -1.32326801      -0.46786800       0.07969525
N        0.04865182       0.00025498       0.20687384
C        0.38096375       0.69762145       1.42123957
C        0.98087479      -0.31435602      -0.73261450
O        0.73675441      -1.40335138      -1.40028332
C        2.39266954      -0.32709136      -0.46269471
H       -3.23774261       0.19458610      -0.67934032
H       -1.83129603       0.68240434      -1.64460073
H       -2.20169074       1.51236593      -0.11153415
H       -1.32863291      -1.40941759      -0.46475878
H       -1.71104937      -0.68819298       1.07945539
H        0.45871235      -0.00165762       2.26199908
H        1.33014798       1.22116067       1.34838342
H       -0.39090739       1.44027918       1.63730695
H        2.98884924      -0.21410212      -1.36384298
H        2.07672220      -1.77502006      -0.84334390
H        2.83734956       0.30204678       0.29641354
18
Frame=16 idx=008099 GeodesicLength=0.840371051053767 rxn_smarts="[C:1]([C:2]([N:3]([C:4]([H:13])([H:14])[H:15])[C:5](=[O:6])[C:7]([H:16])([H:17])[H:18])([H:11])[H:12])([H:8])([H:9])[H:10]>>[C:1]([C:2]([N:3]([C:4]([H:13])([H:14])[H:15])[C:5]([O:6][H:17])=[C:7]([H:16])[H:18])([H:11])[H:12])([H:8])([H:9])[H:10]"
C       -2.21144792       0.55748173      -0.62507420
C       -1.32368781      -0.46493139       0.07217322
N        0.04740904       0.00571956       0.19691747
C        0.38283191       0.68934296       1.41769775
C        0.97945410      -0.30944865      -0.74656161
O        0.74100243      -1.41588767      -1.38771717
C        2.38890502      -0.32000975      -0.46347761
H       -3.24191149       0.20106427      -0.67536141
H       -1.83844711       0.69629626      -1.64152984
H       -2.20503101       1.51572530      -0.10127389
H       -1.33075118      -1.40257489      -0.47878092
H       -1.70804177      -0.69393111       1.07140344
H        0.47016486      -0.02011524       2.24922351
H        1.32832028       1.22009097       1.34926542
H       -0.39250353       1.42446935       1.64684581
H        2.99574435      -0.24213324      -1.36097569
H        2.09236624      -1.78552366      -0.79244602
H        2.82562358       0.34436520       0.26967175
