19
Frame=0 idx=007422 GeodesicLength=0.0 rxn_smarts="[C:1]([C@:2]1([H:11])[C:3]([H:12])([H:13])[C@@:4]([C:5]([H:15])([H:16])[H:17])([H:14])[C:6]([H:18])=[C:7]1[H:19])([H:8])([H:9])[H:10]>>[C:1]([H:8])([H:9])([H:10])[H:17].[C:2]1([H:11])=[C:7]([H:19])[C@@:6]2([H:18])[C@@:4]([H:14])([C:3]1([H:12])[H:13])[C:5]2([H:15])[H:16]"
C       -1.32725035      -1.43198504      -0.30188110
C       -1.02110238       0.96240469       0.05708191
C       -0.07003941       0.89361450       1.21241075
C        1.27953595       0.56178870       0.52518700
C        1.32234617      -0.88358694       0.14683286
C        1.01110700       0.99247674      -0.88757938
C       -0.32092541       1.24791025      -1.10141039
H       -0.99897642      -2.47237208      -0.38535558
H       -1.91977190      -1.34203035       0.60698216
H       -1.92747189      -1.18258454      -1.17347800
H       -2.09420947       1.01455680       0.16875981
H       -0.00810542       1.87749756       1.68694169
H       -0.36321561       0.17386400       1.97796698
H        2.14031957       0.99453868       1.03723034
H        1.16448210      -1.61701980       0.93732922
H        2.14682633      -1.15744442      -0.50217821
H       -0.02467045      -1.06517540      -0.28835305
H        1.78109617       1.00642964      -1.64765778
H       -0.76997454       1.42711704      -2.06882932
19
Frame=1 idx=007422 GeodesicLength=0.3330419205490434 rxn_smarts="[C:1]([C@:2]1([H:11])[C:3]([H:12])([H:13])[C@@:4]([C:5]([H:15])([H:16])[H:17])([H:14])[C:6]([H:18])=[C:7]1[H:19])([H:8])([H:9])[H:10]>>[C:1]([H:8])([H:9])([H:10])[H:17].[C:2]1([H:11])=[C:7]([H:19])[C@@:6]2([H:18])[C@@:4]([H:14])([C:3]1([H:12])[H:13])[C:5]2([H:15])[H:16]"
C       -1.38177038      -1.43517788      -0.28895661
C       -1.01861751       0.96610435       0.05175904
C       -0.07202361       0.87534755       1.20925113
C        1.28220814       0.57762244       0.52436649
C        1.37964921      -0.86534140       0.15268453
C        1.01037007       0.98000954      -0.89439001
C       -0.31777769       1.25996550      -1.10582397
H       -1.10080316      -2.49075913      -0.36103989
H       -1.97672123      -1.34660837       0.62006185
H       -2.01126308      -1.18720305      -1.14159156
H       -2.09550017       1.04166368       0.11241627
H       -0.01533984       1.83977290       1.72333336
H       -0.33783414       0.13976339       1.97032905
H        2.12967220       1.02526380       1.04591955
H        1.21521109      -1.60539544       0.93704128
H        2.25919450      -1.12781043      -0.42721449
H        0.05338644      -1.11140764      -0.38485263
H        1.76299669       1.00268893      -1.67211566
H       -0.76503754       1.46150125      -2.07117773
19
Frame=2 idx=007422 GeodesicLength=0.6651571354192909 rxn_smarts="[C:1]([C@:2]1([H:11])[C:3]([H:12])([H:13])[C@@:4]([C:5]([H:15])([H:16])[H:17])([H:14])[C:6]([H:18])=[C:7]1[H:19])([H:8])([H:9])[H:10]>>[C:1]([H:8])([H:9])([H:10])[H:17].[C:2]1([H:11])=[C:7]([H:19])[C@@:6]2([H:18])[C@@:4]([H:14])([C:3]1([H:12])[H:13])[C:5]2([H:15])[H:16]"
C       -1.44153246      -1.43693077      -0.27383517
C       -1.01663199       0.96920499       0.04652133
C       -0.07398345       0.85509312       1.20553828
C        1.28439314       0.59252856       0.52291850
C        1.43879157      -0.84582710       0.15782633
C        1.00910227       0.96550922      -0.90175821
C       -0.31492889       1.26897648      -1.11076244
H       -1.20281943      -2.50395728      -0.33662922
H       -2.04161749      -1.34962465       0.63357996
H       -2.09508337      -1.18950414      -1.10989037
H       -2.09452001       1.06810648       0.05686781
H       -0.02256397       1.79828276       1.75879953
H       -0.31168611       0.10367144       1.96113453
H        2.11762381       1.05617160       1.05361060
H        1.26956841      -1.59289697       0.93601979
H        2.36869249      -1.09146834      -0.34887923
H        0.14236661      -1.16016688      -0.48145039
H        1.74448698       0.99782467      -1.69625725
H       -0.75965810       1.49500681      -2.07335438
19
Frame=3 idx=007422 GeodesicLength=0.9964064168664437 rxn_smarts="[C:1]([C@:2]1([H:11])[C:3]([H:12])([H:13])[C@@:4]([C:5]([H:15])([H:16])[H:17])([H:14])[C:6]([H:18])=[C:7]1[H:19])([H:8])([H:9])[H:10]>>[C:1]([H:8])([H:9])([H:10])[H:17].[C:2]1([H:11])=[C:7]([H:19])[C@@:6]2([H:18])[C@@:4]([H:14])([C:3]1([H:12])[H:13])[C:5]2([H:15])[H:16]"
C       -1.51051124      -1.43679977      -0.25500091
C       -1.01492438       0.97097252       0.04079145
C       -0.07617828       0.83173463       1.20094496
C        1.28635434       0.60660362       0.52121506
C        1.50145241      -0.82422147       0.16232362
C        1.00831872       0.95001612      -0.90914048
C       -0.31188515       1.27379234      -1.11682771
H       -1.30652138      -2.51176166      -0.31096045
H       -2.11590221      -1.35032240       0.65058008
H       -2.18326054      -1.18886934      -1.07706316
H       -2.09110248       1.09418047       0.00196065
H       -0.03073043       1.75173086       1.79320297
H       -0.28497897       0.06411614       1.94960405
H        2.10371854       1.08760667       1.06134888
H        1.32728269      -1.57984963       0.93276778
H        2.47630566      -1.04748912      -0.26768128
H        0.24824963      -1.20974747      -0.58275459
H        1.72747998       0.99448021      -1.71869704
H       -0.75316691       1.52382727      -2.07661388
19
Frame=4 idx=007422 GeodesicLength=1.3261861568928772 rxn_smarts="[C:1]([C@:2]1([H:11])[C:3]([H:12])([H:13])[C@@:4]([C:5]([H:15])([H:16])[H:17])([H:14])[C:6]([H:18])=[C:7]1[H:19])([H:8])([H:9])[H:10]>>[C:1]([H:8])([H:9])([H:10])[H:17].[C:2]1([H:11])=[C:7]([H:19])[C@@:6]2([H:18])[C@@:4]([H:14])([C:3]1([H:12])[H:13])[C:5]2([H:15])[H:16]"
C       -1.59333743      -1.43400349      -0.22932652
C       -1.01294108       0.97002780       0.03338456
C       -0.07882966       0.80362261       1.19459499
C        1.28821012       0.61981699       0.51972724
C        1.56874469      -0.79928508       0.16535780
C        1.00948631       0.93551999      -0.91565690
C       -0.30783914       1.27256852      -1.12489213
H       -1.41414392      -2.51381294      -0.28002696
H       -2.20270092      -1.34713968       0.67470214
H       -2.28047053      -1.18534974      -1.04028256
H       -2.08442390       1.12016443      -0.05314652
H       -0.04108814       1.69790430       1.82631296
H       -0.25790432       0.01894215       1.93396346
H        2.08711523       1.11916779       1.07116150
H        1.38718625      -1.56686418       0.92368631
H        2.58289367      -0.99472533      -0.18306539
H        0.38000722      -1.25674792      -0.69659815
H        1.71465394       0.99750669      -1.73708746
H       -0.74461838       1.54268711      -2.08280838
19
Frame=5 idx=007422 GeodesicLength=1.6554062199378288 rxn_smarts="[C:1]([C@:2]1([H:11])[C:3]([H:12])([H:13])[C@@:4]([C:5]([H:15])([H:16])[H:17])([H:14])[C:6]([H:18])=[C:7]1[H:19])([H:8])([H:9])[H:10]>>[C:1]([H:8])([H:9])([H:10])[H:17].[C:2]1([H:11])=[C:7]([H:19])[C@@:6]2([H:18])[C@@:4]([H:14])([C:3]1([H:12])[H:13])[C:5]2([H:15])[H:16]"
C       -1.69688671      -1.42683265      -0.19241414
C       -1.01053249       0.96407383       0.02254043
C       -0.08267639       0.76784779       1.18536251
C        1.29008392       0.63175234       0.51889788
C        1.64328654      -0.76988827       0.16649325
C        1.01466274       0.92381464      -0.92104284
C       -0.30225569       1.26171183      -1.13700861
H       -1.53028317      -2.50886986      -0.23786929
H       -2.30808707      -1.33730109       0.71098820
H       -2.39317968      -1.17797026      -0.99634390
H       -2.07413135       1.14602468      -0.10987389
H       -0.05643967       1.63309425       1.85780304
H       -0.23058944      -0.03553195       1.91237314
H        2.06622452       1.15070219       1.08510766
H        1.44977694      -1.55564093       0.90455860
H        2.69103317      -0.93100254      -0.09346145
H        0.55380675      -1.29600166      -0.83181007
H        1.70947741       1.01197464      -1.74972885
H       -0.73329032       1.54804302      -2.09457166
19
Frame=6 idx=007422 GeodesicLength=1.9838854748380785 rxn_smarts="[C:1]([C@:2]1([H:11])[C:3]([H:12])([H:13])[C@@:4]([C:5]([H:15])([H:16])[H:17])([H:14])[C:6]([H:18])=[C:7]1[H:19])([H:8])([H:9])[H:10]>>[C:1]([H:8])([H:9])([H:10])[H:17].[C:2]1([H:11])=[C:7]([H:19])[C@@:6]2([H:18])[C@@:4]([H:14])([C:3]1([H:12])[H:13])[C:5]2([H:15])[H:16]"
C       -1.83093958      -1.41138211      -0.13653951
C       -1.00687228       0.94908397       0.00539573
C       -0.08856140       0.71928445       1.17102765
C        1.29185054       0.64136856       0.51958032
C        1.72763622      -0.73394116       0.16284178
C        1.02699187       0.91962622      -0.92405647
C       -0.29351897       1.23524311      -1.15580329
H       -1.66333671      -2.49325886      -0.17390506
H       -2.44075845      -1.31372579       0.76739553
H       -2.53076335      -1.16417203      -0.93849660
H       -2.05832275       1.17132333      -0.17081912
H       -0.08055416       1.54981414       1.88730128
H       -0.20330523      -0.10596417       1.88033051
H        2.03816736       1.17969408       1.10808342
H        1.51363868      -1.54893966       0.86415292
H        2.80264671      -0.85353555       0.00637125
H        0.79727712      -1.31202458      -1.00263989
H        1.71668780       1.05036527      -1.75239011
H       -0.71796341       1.52114078      -2.11783033
19
Frame=7 idx=007422 GeodesicLength=2.3125564349229135 rxn_smarts="[C:1]([C@:2]1([H:11])[C:3]([H:12])([H:13])[C@@:4]([C:5]([H:15])([H:16])[H:17])([H:14])[C:6]([H:18])=[C:7]1[H:19])([H:8])([H:9])[H:10]>>[C:1]([H:8])([H:9])([H:10])[H:17].[C:2]1([H:11])=[C:7]([H:19])[C@@:6]2([H:18])[C@@:4]([H:14])([C:3]1([H:12])[H:13])[C:5]2([H:15])[H:16]"
C       -2.01078591      -1.38043541      -0.05072293
C       -1.00127640       0.91692611      -0.02341884
C       -0.09725132       0.64745655       1.14670716
C        1.29319693       0.64618481       0.52151380
C        1.82766887      -0.68821120       0.15135947
C        1.04909570       0.92598097      -0.92452807
C       -0.27987578       1.17913547      -1.18710081
H       -1.83078546      -2.46034717      -0.07102775
H       -2.61372063      -1.26200029       0.85512755
H       -2.70778100      -1.13793824      -0.85671325
H       -2.03409354       1.19325882      -0.24126404
H       -0.11991246       1.43311570       1.91268826
H       -0.17460030      -0.20570388       1.82881060
H        1.99780602       1.20342938       1.14396148
H        1.58106212      -1.55046763       0.78355928
H        2.91936714      -0.75923090       0.12631294
H        1.15846597      -1.27205202      -1.21614112
H        1.73976511       1.13008988      -1.73810852
H       -0.69634505       1.44080904      -2.16101522
19
Frame=8 idx=007422 GeodesicLength=2.6367710655824355 rxn_smarts="[C:1]([C@:2]1([H:11])[C:3]([H:12])([H:13])[C@@:4]([C:5]([H:15])([H:16])[H:17])([H:14])[C:6]([H:18])=[C:7]1[H:19])([H:8])([H:9])[H:10]>>[C:1]([H:8])([H:9])([H:10])[H:17].[C:2]1([H:11])=[C:7]([H:19])[C@@:6]2([H:18])[C@@:4]([H:14])([C:3]1([H:12])[H:13])[C:5]2([H:15])[H:16]"
C       -2.24971515      -1.31952382       0.07573952
C       -0.99394318       0.85359329      -0.07094375
C       -0.10867570       0.53369917       1.10366837
C        1.29218495       0.64003062       0.52078210
C        1.95290349      -0.62830358       0.13024237
C        1.07811428       0.93582111      -0.92638663
C       -0.25914465       1.06640703      -1.23881275
H       -2.05738011      -2.39662329       0.09091670
H       -2.83809017      -1.15545316       0.98332364
H       -2.93624943      -1.08582662      -0.74125280
H       -1.99755246       1.20119189      -0.33092305
H       -0.17997602       1.25553430       1.92828094
H       -0.14089389      -0.35744897       1.74083465
H        1.93573142       1.21793044       1.18995025
H        1.66886514      -1.55842469       0.64013513
H        3.03881373      -0.64676839       0.27514996
H        1.69133838      -1.11219373      -1.43879868
H        1.76608480       1.25869520      -1.70409687
H       -0.66241544       1.29766319      -2.22780913
19
Frame=9 idx=007422 GeodesicLength=2.938340782046873 rxn_smarts="[C:1]([C@:2]1([H:11])[C:3]([H:12])([H:13])[C@@:4]([C:5]([H:15])([H:16])[H:17])([H:14])[C:6]([H:18])=[C:7]1[H:19])([H:8])([H:9])[H:10]>>[C:1]([H:8])([H:9])([H:10])[H:17].[C:2]1([H:11])=[C:7]([H:19])[C@@:6]2([H:18])[C@@:4]([H:14])([C:3]1([H:12])[H:13])[C:5]2([H:15])[H:16]"
C       -2.52937044      -1.20721020       0.23769951
C       -0.98460043       0.74832015      -0.14038015
C       -0.11789738       0.36153581       1.03298865
C        1.28524145       0.61429872       0.51053541
C        2.10526994      -0.55073344       0.10402032
C        1.10337195       0.92722573      -0.93885590
C       -0.22759923       0.88689461      -1.30995303
H       -2.34376799      -2.28333511       0.29568897
H       -3.08720791      -0.97780838       1.14965889
H       -3.20710990      -0.97918831      -0.58787888
H       -1.94518532       1.17713414      -0.44760129
H       -0.25331487       0.98877115       1.92512393
H       -0.09630972      -0.58063476       1.59412392
H        1.84260645       1.21697966       1.23400206
H        1.81195818      -1.55500812       0.44032999
H        3.14860080      -0.52104148       0.44162786
H        2.34867897      -0.76237354      -1.56349320
H        1.76044916       1.40243156      -1.66443175
H       -0.61381371       1.09374183      -2.31320529
19
Frame=10 idx=007422 GeodesicLength=3.2085381961915176 rxn_smarts="[C:1]([C@:2]1([H:11])[C:3]([H:12])([H:13])[C@@:4]([C:5]([H:15])([H:16])[H:17])([H:14])[C:6]([H:18])=[C:7]1[H:19])([H:8])([H:9])[H:10]>>[C:1]([H:8])([H:9])([H:10])[H:17].[C:2]1([H:11])=[C:7]([H:19])[C@@:6]2([H:18])[C@@:4]([H:14])([C:3]1([H:12])[H:13])[C:5]2([H:15])[H:16]"
C       -2.78937043      -1.03373332       0.42269686
C       -0.97234958       0.59861113      -0.23451582
C       -0.12015459       0.13331277       0.92742237
C        1.26612759       0.56089545       0.48680435
C        2.26257575      -0.45715634       0.08039781
C        1.12056332       0.88599396      -0.96715139
C       -0.18101179       0.67185096      -1.39363790
H       -2.65235652      -2.11521252       0.50533915
H       -3.28874229      -0.73864658       1.34886481
H       -3.47360603      -0.79103387      -0.39332227
H       -1.87957662       1.10141803      -0.59351650
H       -0.32396091       0.63119504       1.88559948
H       -0.03894591      -0.86512559       1.37502656
H        1.71260057       1.18444044       1.26763172
H        2.01677284      -1.51981385       0.22331175
H        3.22677620      -0.39390469       0.60211468
H        2.95210559      -0.21119187      -1.49654506
H        1.70939371       1.51268703      -1.63440822
H       -0.54684089       0.84541380      -2.41211238
19
Frame=11 idx=007422 GeodesicLength=3.461923567594483 rxn_smarts="[C:1]([C@:2]1([H:11])[C:3]([H:12])([H:13])[C@@:4]([C:5]([H:15])([H:16])[H:17])([H:14])[C:6]([H:18])=[C:7]1[H:19])([H:8])([H:9])[H:10]>>[C:1]([H:8])([H:9])([H:10])[H:17].[C:2]1([H:11])=[C:7]([H:19])[C@@:6]2([H:18])[C@@:4]([H:14])([C:3]1([H:12])[H:13])[C:5]2([H:15])[H:16]"
C       -2.96766327      -0.80764982       0.62300409
C       -0.96010230       0.40595322      -0.35918293
C       -0.11634075      -0.13370241       0.78488195
C        1.22963474       0.47543055       0.45087735
C        2.39482693      -0.35508657       0.06456691
C        1.13333261       0.82063879      -1.00754916
C       -0.12001615       0.46075498      -1.49252384
H       -2.92587064      -1.89521282       0.72435246
H       -3.38764279      -0.44557863       1.56420461
H       -3.66932386      -0.53342006      -0.16785609
H       -1.81853751       0.95612606      -0.77015242
H       -0.38266505       0.21011469       1.79337537
H        0.03119872      -1.17637696       1.09387302
H        1.54746866       1.10049422       1.29149202
H        2.24894079      -1.44599663       0.02133205
H        3.25831196      -0.28223891       0.74112546
H        3.32503131       0.46898041      -1.21587580
H        1.63613387       1.57328309      -1.61302581
H       -0.45671726       0.60348679      -2.52691924
19
Frame=12 idx=007422 GeodesicLength=3.705904751160233 rxn_smarts="[C:1]([C@:2]1([H:11])[C:3]([H:12])([H:13])[C@@:4]([C:5]([H:15])([H:16])[H:17])([H:14])[C:6]([H:18])=[C:7]1[H:19])([H:8])([H:9])[H:10]>>[C:1]([H:8])([H:9])([H:10])[H:17].[C:2]1([H:11])=[C:7]([H:19])[C@@:6]2([H:18])[C@@:4]([H:14])([C:3]1([H:12])[H:13])[C:5]2([H:15])[H:16]"
C       -3.02832212      -0.54565793       0.81471273
C       -0.95092232       0.18049873      -0.50606603
C       -0.10609203      -0.41628636       0.61834709
C        1.17513128       0.36396132       0.40863629
C        2.48281325      -0.24671953       0.06261078
C        1.13702043       0.74781389      -1.04937060
C       -0.05473843       0.27342893      -1.60227005
H       -3.11626608      -1.62923541       0.94470526
H       -3.35120966      -0.11508345       1.76591929
H       -3.75227003      -0.22643963       0.05933219
H       -1.78045624       0.74103339      -0.96495175
H       -0.42028278      -0.23415018       1.65443054
H        0.12046457      -1.47746669       0.78633698
H        1.35689056       0.96586745       1.30563327
H        2.47195535      -1.33185094      -0.13737662
H        3.24424565      -0.18033284       0.85539719
H        3.36543351       1.13400969      -0.77040866
H        1.56091083       1.59148479      -1.59443813
H       -0.35430575       0.40512475      -2.65117978
19
Frame=13 idx=007422 GeodesicLength=3.942050550477167 rxn_smarts="[C:1]([C@:2]1([H:11])[C:3]([H:12])([H:13])[C@@:4]([C:5]([H:15])([H:16])[H:17])([H:14])[C:6]([H:18])=[C:7]1[H:19])([H:8])([H:9])[H:10]>>[C:1]([H:8])([H:9])([H:10])[H:17].[C:2]1([H:11])=[C:7]([H:19])[C@@:6]2([H:18])[C@@:4]([H:14])([C:3]1([H:12])[H:13])[C:5]2([H:15])[H:16]"
C       -2.96430635      -0.25162040       0.97129801
C       -0.94527367      -0.06749422      -0.65069144
C       -0.08597922      -0.69792069       0.45132134
C        1.10272520       0.23687190       0.36894434
C        2.51624702      -0.12288111       0.08059282
C        1.11681379       0.67457001      -1.08008625
C        0.00096445       0.10228266      -1.70401038
H       -3.19725026      -1.31386608       1.09262472
H       -3.17225769       0.20252284       1.94279958
H       -3.69692395       0.15518699       0.26813333
H       -1.76865537       0.46541496      -1.15341049
H       -0.42772096      -0.67344346       1.49387731
H        0.23850282      -1.74597231       0.48917559
H        1.14775209       0.79346708       1.31178428
H        2.66170918      -1.16911272      -0.24323515
H        3.18666123      -0.06450429       0.95322725
H        3.07375956       1.65974116      -0.25905991
H        1.47323003       1.58164930      -1.56913912
H       -0.25999790       0.23510836      -2.76414580
19
Frame=14 idx=007422 GeodesicLength=4.204878339436692 rxn_smarts="[C:1]([C@:2]1([H:11])[C:3]([H:12])([H:13])[C@@:4]([C:5]([H:15])([H:16])[H:17])([H:14])[C:6]([H:18])=[C:7]1[H:19])([H:8])([H:9])[H:10]>>[C:1]([H:8])([H:9])([H:10])[H:17].[C:2]1([H:11])=[C:7]([H:19])[C@@:6]2([H:18])[C@@:4]([H:14])([C:3]1([H:12])[H:13])[C:5]2([H:15])[H:16]"
C       -2.80054676       0.04653411       1.06629777
C       -0.94432909      -0.30687666      -0.76706914
C       -0.05221132      -0.96298249       0.30091937
C        1.02855895       0.09884831       0.33913959
C        2.49851399       0.00827381       0.11091182
C        1.07007342       0.61183242      -1.09120817
C        0.03175528      -0.03589816      -1.78111249
H       -3.15200082      -0.97460915       1.24654286
H       -2.91573763       0.55948271       2.02435679
H       -3.53243062       0.49134086       0.38377690
H       -1.77574537       0.18969312      -1.29501532
H       -0.39256885      -1.09454765       1.33553681
H        0.37780349      -1.97002701       0.21212471
H        0.95216625       0.58595391       1.31896926
H        2.80054138      -0.97016241      -0.30950381
H        3.09830591       0.05976048       1.03570534
H        2.55357512       1.97156537       0.23134636
H        1.35745988       1.57506101      -1.51548086
H       -0.20318322       0.11675740      -2.84623780
19
Frame=15 idx=007422 GeodesicLength=4.513456952423893 rxn_smarts="[C:1]([C@:2]1([H:11])[C:3]([H:12])([H:13])[C@@:4]([C:5]([H:15])([H:16])[H:17])([H:14])[C:6]([H:18])=[C:7]1[H:19])([H:8])([H:9])[H:10]>>[C:1]([H:8])([H:9])([H:10])[H:17].[C:2]1([H:11])=[C:7]([H:19])[C@@:6]2([H:18])[C@@:4]([H:14])([C:3]1([H:12])[H:13])[C:5]2([H:15])[H:16]"
C       -2.59070825       0.31786317       1.10053603
C       -0.94725050      -0.50755811      -0.84185283
C       -0.00994027      -1.18179479       0.18152972
C        0.96907515      -0.03084321       0.31954799
C        2.44355740       0.13879820       0.14653237
C        1.00831283       0.56178389      -1.08617140
C        0.03900951      -0.14305850      -1.82672569
H       -3.01093360      -0.65635638       1.37360632
H       -2.63652798       0.90337300       2.02212026
H       -3.33546146       0.75177455       0.42393476
H       -1.79016346      -0.04078232      -1.37918426
H       -0.32635769      -1.44771769       1.19699780
H        0.51042328      -2.12832011      -0.02226356
H        0.80186678       0.37113106       1.32721579
H        2.88021446      -0.74909984      -0.35327907
H        2.99467384       0.18061225       1.10270844
H        1.96214554       2.05768832       0.65194414
H        1.22347922       1.56984656      -1.44556970
H       -0.18541480       0.03265994      -2.89162711
19
Frame=16 idx=007422 GeodesicLength=4.829215835099801 rxn_smarts="[C:1]([C@:2]1([H:11])[C:3]([H:12])([H:13])[C@@:4]([C:5]([H:15])([H:16])[H:17])([H:14])[C:6]([H:18])=[C:7]1[H:19])([H:8])([H:9])[H:10]>>[C:1]([H:8])([H:9])([H:10])[H:17].[C:2]1([H:11])=[C:7]([H:19])[C@@:6]2([H:18])[C@@:4]([H:14])([C:3]1([H:12])[H:13])[C:5]2([H:15])[H:16]"
C       -2.39329985       0.54373515       1.09472516
C       -0.95190861      -0.65379108      -0.87928413
C        0.03455675      -1.34346218       0.09357819
C        0.93244945      -0.13616924       0.30670290
C        2.37376028       0.25602920       0.18092263
C        0.95215679       0.52290572      -1.07633777
C        0.03304829      -0.22189728      -1.84926716
H       -2.82506419      -0.38748395       1.47984223
H       -2.40260555       1.20919898       1.96227390
H       -3.17705955       0.91982043       0.42609281
H       -1.80469561      -0.20770222      -1.41931309
H       -0.24451235      -1.71456032       1.08620886
H        0.61712281      -2.22543629      -0.21170784
H        0.70852781       0.18045980       1.33469501
H        2.91204582      -0.53550643      -0.38174974
H        2.89604172       0.28806359       1.15480711
H        1.43173150       1.97303721       0.98920269
H        1.10106393       1.56175396      -1.37936648
H       -0.19335943      -0.02899506      -2.91202527
