10
Frame=0 idx=003676 GeodesicLength=0.0 rxn_smarts="[N:1]([c:2]1[c:3]([H:9])[o:4][n:5][c:6]1[H:10])([H:7])[H:8]>>[N:1]([C:2]([C:3](=[O:4])[H:9])=[C:6]=[N:5][H:10])([H:7])[H:8]"
N        1.57545388       0.00654943      -0.24228139
C        0.18730574       0.01041374      -0.02940929
C       -0.72179428      -1.10266635       0.06469587
O       -1.92330436      -0.99340945       0.25349967
N       -1.73739554       1.54576171       0.33177007
C       -0.60812019       1.11965065       0.13982488
H        2.10806296      -0.42409819       0.49682359
H        1.85788772      -0.35547370      -1.13933319
H       -0.25155302      -2.09637765      -0.04644345
H       -0.48654291       2.28964981       0.17085323
10
Frame=1 idx=003676 GeodesicLength=0.05777865765371826 rxn_smarts="[N:1]([c:2]1[c:3]([H:9])[o:4][n:5][c:6]1[H:10])([H:7])[H:8]>>[N:1]([C:2]([C:3](=[O:4])[H:9])=[C:6]=[N:5][H:10])([H:7])[H:8]"
N        1.57919598       0.00346328      -0.24890310
C        0.18863410       0.00889390      -0.05170933
C       -0.72258360      -1.10066949       0.03989770
O       -1.91879126      -0.97381577       0.27045538
N       -1.73086732       1.52384892       0.35871225
C       -0.60130556       1.12278630       0.10986882
H        2.10390663      -0.39971065       0.51126196
H        1.87184783      -0.38916597      -1.13002846
H       -0.25994261      -2.09934017      -0.04792217
H       -0.51009420       2.30370964       0.18836696
10
Frame=2 idx=003676 GeodesicLength=0.11582463107605064 rxn_smarts="[N:1]([c:2]1[c:3]([H:9])[o:4][n:5][c:6]1[H:10])([H:7])[H:8]>>[N:1]([C:2]([C:3](=[O:4])[H:9])=[C:6]=[N:5][H:10])([H:7])[H:8]"
N        1.58185285       0.00048296      -0.25829365
C        0.19015232       0.00742006      -0.07052265
C       -0.72187797      -1.09896652       0.02370157
O       -1.91598564      -0.95408427       0.27352296
N       -1.72482146       1.50252760       0.37603353
C       -0.59382144       1.12589328       0.08717621
H        2.10189952      -0.37316800       0.51986100
H        1.88064654      -0.42352922      -1.12283695
H       -0.26680633      -2.10195844      -0.04181432
H       -0.53123840       2.31538254       0.21317229
10
Frame=3 idx=003676 GeodesicLength=0.17380575424700193 rxn_smarts="[N:1]([c:2]1[c:3]([H:9])[o:4][n:5][c:6]1[H:10])([H:7])[H:8]>>[N:1]([C:2]([C:3](=[O:4])[H:9])=[C:6]=[N:5][H:10])([H:7])[H:8]"
N        1.58449745      -0.00264246      -0.26676531
C        0.19169176       0.00596114      -0.08798616
C       -0.72147416      -1.09719597       0.00738466
O       -1.91161866      -0.93493291       0.28252290
N       -1.71891959       1.48220067       0.38616687
C       -0.58567372       1.12888102       0.06998378
H        2.09979093      -0.34833422       0.52736074
H        1.88885875      -0.45556136      -1.11474095
H       -0.27446035      -2.10395189      -0.04042485
H       -0.55269241       2.32557598       0.23649831
10
Frame=4 idx=003676 GeodesicLength=0.23185161232333706 rxn_smarts="[N:1]([c:2]1[c:3]([H:9])[o:4][n:5][c:6]1[H:10])([H:7])[H:8]>>[N:1]([C:2]([C:3](=[O:4])[H:9])=[C:6]=[N:5][H:10])([H:7])[H:8]"
N        1.58725890      -0.00596084      -0.27435689
C        0.19356079       0.00435885      -0.10261131
C       -0.72081486      -1.09564598      -0.00687844
O       -1.90807902      -0.91617427       0.28633005
N       -1.71149268       1.46202978       0.40168800
C       -0.57681597       1.13159600       0.05860248
H        2.09866233      -0.32467047       0.53352962
H        1.89583917      -0.48599278      -1.10600419
H       -0.28239170      -2.10594253      -0.04043368
H       -0.57572696       2.33640223       0.25013435
10
Frame=5 idx=003676 GeodesicLength=0.28972970804646736 rxn_smarts="[N:1]([c:2]1[c:3]([H:9])[o:4][n:5][c:6]1[H:10])([H:7])[H:8]>>[N:1]([C:2]([C:3](=[O:4])[H:9])=[C:6]=[N:5][H:10])([H:7])[H:8]"
N        1.58987382      -0.00939988      -0.28275091
C        0.19553806       0.00277693      -0.11624752
C       -0.71987977      -1.09413282      -0.01903574
O       -1.90445302      -0.89763052       0.28953951
N       -1.70513907       1.44296180       0.41006193
C       -0.56736599       1.13433824       0.04950293
H        2.09833930      -0.30033784       0.53742557
H        1.90150172      -0.51644944      -1.09730052
H       -0.29030199      -2.10776080      -0.03964589
H       -0.59811306       2.34563433       0.26845064
10
Frame=6 idx=003676 GeodesicLength=0.34795024843159494 rxn_smarts="[N:1]([c:2]1[c:3]([H:9])[o:4][n:5][c:6]1[H:10])([H:7])[H:8]>>[N:1]([C:2]([C:3](=[O:4])[H:9])=[C:6]=[N:5][H:10])([H:7])[H:8]"
N        1.59251950      -0.01304396      -0.29018928
C        0.19744189       0.00119215      -0.12960469
C       -0.71910086      -1.09262377      -0.03136636
O       -1.90023193      -0.87971564       0.29450496
N       -1.69742284       1.42418415       0.42170609
C       -0.55794994       1.13693378       0.04205454
H        2.09753993      -0.27641789       0.54143517
H        1.90742313      -0.54629490      -1.08684104
H       -0.29876283      -2.10948493      -0.04278361
H       -0.62145605       2.35527100       0.28108420
10
Frame=7 idx=003676 GeodesicLength=0.4060019683666319 rxn_smarts="[N:1]([c:2]1[c:3]([H:9])[o:4][n:5][c:6]1[H:10])([H:7])[H:8]>>[N:1]([C:2]([C:3](=[O:4])[H:9])=[C:6]=[N:5][H:10])([H:7])[H:8]"
N        1.59519988      -0.01698246      -0.29707816
C        0.19957049      -0.00044856      -0.14147567
C       -0.71817875      -1.09109116      -0.04315187
O       -1.89633632      -0.86196238       0.29655764
N       -1.68789708       1.40560718       0.43773860
C       -0.54793063       1.13938366       0.03758921
H        2.09723276      -0.25308387       0.54451634
H        1.91265372      -0.57550228      -1.07544259
H       -0.30746545      -2.11116335      -0.04692084
H       -0.64684862       2.36524321       0.28766733
10
Frame=8 idx=003676 GeodesicLength=0.46405803591891026 rxn_smarts="[N:1]([c:2]1[c:3]([H:9])[o:4][n:5][c:6]1[H:10])([H:7])[H:8]>>[N:1]([C:2]([C:3](=[O:4])[H:9])=[C:6]=[N:5][H:10])([H:7])[H:8]"
N        1.59789171      -0.02110984      -0.30383452
C        0.20174752      -0.00205266      -0.15280239
C       -0.71723195      -1.08950745      -0.05434160
O       -1.89210839      -0.84458249       0.29947795
N       -1.67826960       1.38765506       0.45219477
C       -0.53771825       1.14178433       0.03445584
H        2.09712526      -0.22983866       0.54666534
H        1.91753244      -0.60438065      -1.06318990
H       -0.31642799      -2.11275918      -0.05247341
H       -0.67254075       2.37479155       0.29384790
10
Frame=9 idx=003676 GeodesicLength=0.5222156700171218 rxn_smarts="[N:1]([c:2]1[c:3]([H:9])[o:4][n:5][c:6]1[H:10])([H:7])[H:8]>>[N:1]([C:2]([C:3](=[O:4])[H:9])=[C:6]=[N:5][H:10])([H:7])[H:8]"
N        1.60066706      -0.02545083      -0.31065761
C        0.20411213      -0.00364622      -0.16315099
C       -0.71619077      -1.08790935      -0.06483405
O       -1.88828138      -0.82733615       0.30039972
N       -1.66803613       1.37012984       0.46704594
C       -0.52696229       1.14414954       0.03305693
H        2.09771324      -0.20655470       0.54749020
H        1.92178366      -0.63305796      -1.05035574
H       -0.32556626      -2.11431129      -0.05777511
H       -0.69923926       2.38398712       0.29878070
10
Frame=10 idx=003676 GeodesicLength=0.580455676900426 rxn_smarts="[N:1]([c:2]1[c:3]([H:9])[o:4][n:5][c:6]1[H:10])([H:7])[H:8]>>[N:1]([C:2]([C:3](=[O:4])[H:9])=[C:6]=[N:5][H:10])([H:7])[H:8]"
N        1.60339323      -0.03003886      -0.31736306
C        0.20640680      -0.00516565      -0.17357689
C       -0.71518728      -1.08617501      -0.07523702
O       -1.88397040      -0.81034210       0.30240952
N       -1.65716405       1.35313330       0.48182569
C       -0.51621831       1.14648571       0.03208402
H        2.09817744      -0.18281822       0.54764440
H        1.92597777      -0.66194826      -1.03607616
H       -0.33499797      -2.11571424      -0.06474245
H       -0.72641723       2.39258333       0.30303197
10
Frame=11 idx=003676 GeodesicLength=0.6388319021356382 rxn_smarts="[N:1]([c:2]1[c:3]([H:9])[o:4][n:5][c:6]1[H:10])([H:7])[H:8]>>[N:1]([C:2]([C:3](=[O:4])[H:9])=[C:6]=[N:5][H:10])([H:7])[H:8]"
N        1.60621683      -0.03487424      -0.32400749
C        0.20890932      -0.00663495      -0.18319755
C       -0.71415662      -1.08434031      -0.08534486
O       -1.87997478      -0.79339799       0.30282239
N       -1.64526102       1.33639853       0.49819992
C       -0.50487965       1.14879138       0.03260496
H        2.09922131      -0.15897074       0.54665712
H        1.92967965      -0.69074085      -1.02083173
H       -0.34476457      -2.11702304      -0.07204810
H       -0.75499047       2.40079220       0.30514534
10
Frame=12 idx=003676 GeodesicLength=0.6972470990293623 rxn_smarts="[N:1]([c:2]1[c:3]([H:9])[o:4][n:5][c:6]1[H:10])([H:7])[H:8]>>[N:1]([C:2]([C:3](=[O:4])[H:9])=[C:6]=[N:5][H:10])([H:7])[H:8]"
N        1.60898287      -0.03995787      -0.33054925
C        0.21133943      -0.00801503      -0.19294602
C       -0.71318573      -1.08234766      -0.09545848
O       -1.87555038      -0.77662040       0.30408295
N       -1.63249693       1.32010527       0.51493738
C       -0.49360182       1.15109395       0.03315322
H        2.10014282      -0.13455929       0.54490692
H        1.93331947      -0.71976983      -1.00395131
H       -0.35486816      -2.11817183      -0.08083283
H       -0.78408156       2.40824270       0.30665741
10
Frame=13 idx=003676 GeodesicLength=0.755700752212918 rxn_smarts="[N:1]([c:2]1[c:3]([H:9])[o:4][n:5][c:6]1[H:10])([H:7])[H:8]>>[N:1]([C:2]([C:3](=[O:4])[H:9])=[C:6]=[N:5][H:10])([H:7])[H:8]"
N        1.61200625      -0.04538589      -0.33680993
C        0.21416939      -0.00929738      -0.20137227
C       -0.71216523      -1.08006307      -0.10534805
O       -1.87142612      -0.75960894       0.30380877
N       -1.61853464       1.30408640       0.53361384
C       -0.48141375       1.15342394       0.03598489
H        2.10201376      -0.11096020       0.54200098
H        1.93638890      -0.74822424      -0.98645790
H       -0.36542010      -2.11907428      -0.09023536
H       -0.81561846       2.41510366       0.30481503
10
Frame=14 idx=003676 GeodesicLength=0.8141926610073038 rxn_smarts="[N:1]([c:2]1[c:3]([H:9])[o:4][n:5][c:6]1[H:10])([H:7])[H:8]>>[N:1]([C:2]([C:3](=[O:4])[H:9])=[C:6]=[N:5][H:10])([H:7])[H:8]"
N        1.61506304      -0.05105417      -0.34306520
C        0.21703734      -0.01048356      -0.20961686
C       -0.71119395      -1.07759290      -0.11506861
O       -1.86718201      -0.74256485       0.30363229
N       -1.60390833       1.28851840       0.55221272
C       -0.46911332       1.15579527       0.03886855
H        2.10415134      -0.08695291       0.53804652
H        1.93925505      -0.77671303      -0.96760200
H       -0.37633251      -2.11977019      -0.10033844
H       -0.84777665       2.42081793       0.30293102
10
Frame=15 idx=003676 GeodesicLength=0.8727669988760607 rxn_smarts="[N:1]([c:2]1[c:3]([H:9])[o:4][n:5][c:6]1[H:10])([H:7])[H:8]>>[N:1]([C:2]([C:3](=[O:4])[H:9])=[C:6]=[N:5][H:10])([H:7])[H:8]"
N        1.61836998      -0.05702941      -0.34911745
C        0.22025099      -0.01154435      -0.21676869
C       -0.71023249      -1.07479907      -0.12455638
O       -1.86311316      -0.72522944       0.30267482
N       -1.58841359       1.27334030       0.57167306
C       -0.45606077       1.15824111       0.04332778
H        2.10720430      -0.06352781       0.53294041
H        1.94165920      -0.80469757      -0.94804049
H       -0.38775385      -2.12016310      -0.11110573
H       -0.88191059       2.42540934       0.29897266
10
Frame=16 idx=003676 GeodesicLength=0.9314243446879189 rxn_smarts="[N:1]([c:2]1[c:3]([H:9])[o:4][n:5][c:6]1[H:10])([H:7])[H:8]>>[N:1]([C:2]([C:3](=[O:4])[H:9])=[C:6]=[N:5][H:10])([H:7])[H:8]"
N        1.62157646      -0.06323248      -0.35525354
C        0.22348108      -0.01252042      -0.22374544
C       -0.70922746      -1.07181433      -0.13375212
O       -1.85893364      -0.70771375       0.30141797
N       -1.57245479       1.25864691       0.59032322
C       -0.44296345       1.16074959       0.04736964
H        2.11046566      -0.03967284       0.52653002
H        1.94369851      -0.83259593      -0.92708657
H       -0.39938435      -2.12028266      -0.12189667
H       -0.91625801       2.42843590       0.29609347
