14
Frame=0 idx=011105 GeodesicLength=0.0 rxn_smarts="[C:1]1([H:8])([H:9])[C@:2]2([H:10])[C@@:3]3([H:11])[C@:4]2([H:12])[N:5]2[C@:6]1([H:13])[C@@:7]32[H:14]>>[C:1]1([H:8])([H:9])[C:2][C@:4]2([H:12])[C:3]([H:10])([H:11])[C@@:7]3([H:14])[N:5]2[C@@:6]13[H:13]"
C        1.27676282      -0.32689897      -0.58511023
C        0.22372992      -1.35145052      -0.21085413
C       -1.24097962      -0.28878071      -0.21496783
C       -0.44375569      -0.76704703       0.96863185
N        0.03020015       0.65245116       1.27896347
C        0.80526369       0.94651630       0.07097525
C       -0.66182893       1.09009768       0.03988322
H        1.43822268      -0.23319062      -1.65963863
H        2.20994181      -0.67767531      -0.13467854
H       -0.75113242      -1.01989553      -1.09793829
H       -2.28439755      -0.54203298      -0.35333831
H       -0.82773988      -1.34100082       1.79967412
H        1.42343738       1.83316398       0.13183296
H       -1.19772436       2.02574332      -0.03343496
14
Frame=1 idx=011105 GeodesicLength=0.04459658544575947 rxn_smarts="[C:1]1([H:8])([H:9])[C@:2]2([H:10])[C@@:3]3([H:11])[C@:4]2([H:12])[N:5]2[C@:6]1([H:13])[C@@:7]32[H:14]>>[C:1]1([H:8])([H:9])[C:2][C@:4]2([H:12])[C:3]([H:10])([H:11])[C@@:7]3([H:14])[N:5]2[C@@:6]13[H:13]"
C        1.27953604      -0.32538714      -0.58438787
C        0.22460708      -1.34672971      -0.21228748
C       -1.24145455      -0.28860169      -0.21746556
C       -0.44273230      -0.76663020       0.96835201
N        0.02895939       0.65234782       1.27856108
C        0.80547498       0.94740776       0.07121013
C       -0.66180270       1.09006566       0.03871348
H        1.44333419      -0.23124999      -1.65856644
H        2.21198756      -0.67647932      -0.13234222
H       -0.75867614      -1.03759057      -1.10629812
H       -2.28831669      -0.53431936      -0.34259685
H       -0.82780003      -1.34302193       1.79720908
H        1.42374643       1.83383262       0.13376377
H       -1.19686328       2.02635607      -0.03386500
14
Frame=2 idx=011105 GeodesicLength=0.08918915396964067 rxn_smarts="[C:1]1([H:8])([H:9])[C@:2]2([H:10])[C@@:3]3([H:11])[C@:4]2([H:12])[N:5]2[C@:6]1([H:13])[C@@:7]32[H:14]>>[C:1]1([H:8])([H:9])[C:2][C@:4]2([H:12])[C:3]([H:10])([H:11])[C@@:7]3([H:14])[N:5]2[C@@:6]13[H:13]"
C        1.28229866      -0.32382949      -0.58367959
C        0.22542150      -1.34194178      -0.21382759
C       -1.24194920      -0.28836747      -0.21999852
C       -0.44170669      -0.76620094       0.96803550
N        0.02772351       0.65224432       1.27816694
C        0.80569372       0.94833158       0.07146496
C       -0.66176831       1.09007812       0.03756910
H        1.44841329      -0.22923203      -1.65750412
H        2.21399831      -0.67529841      -0.13002777
H       -0.76632393      -1.05576110      -1.11434720
H       -2.29203043      -0.52650086      -0.33201473
H       -0.82785268      -1.34506348       1.79467215
H        1.42406871       1.83452410       0.13573921
H       -1.19598646       2.02701744      -0.03424835
14
Frame=3 idx=011105 GeodesicLength=0.13377548545962276 rxn_smarts="[C:1]1([H:8])([H:9])[C@:2]2([H:10])[C@@:3]3([H:11])[C@:4]2([H:12])[N:5]2[C@:6]1([H:13])[C@@:7]32[H:14]>>[C:1]1([H:8])([H:9])[C:2][C@:4]2([H:12])[C:3]([H:10])([H:11])[C@@:7]3([H:14])[N:5]2[C@@:6]13[H:13]"
C        1.28505001      -0.32222513      -0.58298639
C        0.22617071      -1.33708466      -0.21547819
C       -1.24246463      -0.28807300      -0.22256663
C       -0.44067944      -0.76575889       0.96767976
N        0.02649439       0.65213959       1.27778171
C        0.80592063       0.94928844       0.07174021
C       -0.66172500       1.09013823       0.03645299
H        1.45345906      -0.22713487      -1.65645277
H        2.21597256      -0.67413521      -0.12773766
H       -0.77407153      -1.07441355      -1.12206883
H       -2.29554037      -0.51858630      -0.32160617
H       -0.82789903      -1.34712355       1.79206102
H        1.42440586       1.83523823       0.13775912
H       -1.19509322       2.02773067      -0.03457816
14
Frame=4 idx=011105 GeodesicLength=0.17835825699431437 rxn_smarts="[C:1]1([H:8])([H:9])[C@:2]2([H:10])[C@@:3]3([H:11])[C@:4]2([H:12])[N:5]2[C@:6]1([H:13])[C@@:7]32[H:14]>>[C:1]1([H:8])([H:9])[C:2][C@:4]2([H:12])[C:3]([H:10])([H:11])[C@@:7]3([H:14])[N:5]2[C@@:6]13[H:13]"
C        1.28778949      -0.32057332      -0.58230922
C        0.22685184      -1.33215620      -0.21724356
C       -1.24300235      -0.28771282      -0.22516962
C       -0.43965114      -0.76530383       0.96728193
N        0.02527394       0.65203256       1.27740605
C        0.80615642       0.95027908       0.07203632
C       -0.66167201       1.09024949       0.03536804
H        1.45847105      -0.22495672      -1.65541341
H        2.21790872      -0.67299272      -0.12547389
H       -0.78191312      -1.09355491      -1.12944728
H       -2.29884964      -0.51058450      -0.31138421
H       -0.82793985      -1.34920057       1.78937326
H        1.42475951       1.83597500       0.13982322
H       -1.19418285       2.02849945      -0.03484765
14
Frame=5 idx=011105 GeodesicLength=0.222948117225514 rxn_smarts="[C:1]1([H:8])([H:9])[C@:2]2([H:10])[C@@:3]3([H:11])[C@:4]2([H:12])[N:5]2[C@:6]1([H:13])[C@@:7]32[H:14]>>[C:1]1([H:8])([H:9])[C:2][C@:4]2([H:12])[C:3]([H:10])([H:11])[C@@:7]3([H:14])[N:5]2[C@@:6]13[H:13]"
C        1.29051656      -0.31887317      -0.58164886
C        0.22746196      -1.32715376      -0.21912854
C       -1.24356413      -0.28728092      -0.22780718
C       -0.43862249      -0.76483557       0.96683888
N        0.02406397       0.65192208       1.27704061
C        0.80640183       0.95130436       0.07235387
C       -0.66160858       1.09041558       0.03431711
H        1.46344942      -0.22269562      -1.65438673
H        2.21980493      -0.67187400      -0.12323811
H       -0.78984267      -1.11319410      -1.13646844
H       -2.30196207      -0.50250382      -0.30135990
H       -0.82797570      -1.35129326       1.78660617
H        1.42513141       1.83673448       0.14193149
H       -1.19325442       2.02932772      -0.03505037
14
Frame=6 idx=011105 GeodesicLength=0.26755308473106015 rxn_smarts="[C:1]1([H:8])([H:9])[C@:2]2([H:10])[C@@:3]3([H:11])[C@:4]2([H:12])[N:5]2[C@:6]1([H:13])[C@@:7]32[H:14]>>[C:1]1([H:8])([H:9])[C:2][C@:4]2([H:12])[C:3]([H:10])([H:11])[C@@:7]3([H:14])[N:5]2[C@@:6]13[H:13]"
C        1.29323043      -0.31712385      -0.58100652
C        0.22799730      -1.32207554      -0.22113888
C       -1.24415257      -0.28677063      -0.23047894
C       -0.43759452      -0.76435416       0.96634680
N        0.02286618       0.65180686       1.27668603
C        0.80665747       0.95236504       0.07269339
C       -0.66153411       1.09064075       0.03330297
H        1.46839392      -0.22034907      -1.65337398
H        2.22165950      -0.67078254      -0.12103198
H       -0.79784937      -1.13334130      -1.14311572
H       -2.30488347      -0.49435174      -0.29154349
H       -0.82800712      -1.35340083       1.78375626
H        1.42552328       1.83751667       0.14408407
H       -1.19230693       2.03022032      -0.03518001
14
Frame=7 idx=011105 GeodesicLength=0.3121671495025012 rxn_smarts="[C:1]1([H:8])([H:9])[C@:2]2([H:10])[C@@:3]3([H:11])[C@:4]2([H:12])[N:5]2[C@:6]1([H:13])[C@@:7]32[H:14]>>[C:1]1([H:8])([H:9])[C:2][C@:4]2([H:12])[C:3]([H:10])([H:11])[C@@:7]3([H:14])[N:5]2[C@@:6]13[H:13]"
C        1.29593122      -0.31532554      -0.58038381
C        0.22845621      -1.31692251      -0.22328305
C       -1.24477103      -0.28617479      -0.23318762
C       -0.43656773      -0.76386074       0.96580160
N        0.02168208       0.65168628       1.27634430
C        0.80692406       0.95346260       0.07305601
C       -0.66144903       1.09093114       0.03232730
H        1.47330492      -0.21791567      -1.65237783
H        2.22347234      -0.66972347      -0.11885603
H       -0.80592660      -1.15400490      -1.14936756
H       -2.30761857      -0.48613686      -0.28194511
H       -0.82803355      -1.35552440       1.78082056
H        1.42593687       1.83832313       0.14628317
H       -1.19134119       2.03118573      -0.03523193
14
Frame=8 idx=011105 GeodesicLength=0.35654791465521474 rxn_smarts="[C:1]1([H:8])([H:9])[C@:2]2([H:10])[C@@:3]3([H:11])[C@:4]2([H:12])[N:5]2[C@:6]1([H:13])[C@@:7]32[H:14]>>[C:1]1([H:8])([H:9])[C:2][C@:4]2([H:12])[C:3]([H:10])([H:11])[C@@:7]3([H:14])[N:5]2[C@@:6]13[H:13]"
C        1.29861542      -0.31348459      -0.57977951
C        0.22884696      -1.31169514      -0.22553227
C       -1.24539416      -0.28551726      -0.23594470
C       -0.43554368      -0.76335786       0.96520738
N        0.02051276       0.65155175       1.27600844
C        0.80720016       0.95458804       0.07343594
C       -0.66135225       1.09126778       0.03139391
H        1.47818067      -0.21540932      -1.65139440
H        2.22524057      -0.66868831      -0.11671990
H       -0.81407957      -1.17505720      -1.15519978
H       -2.31016460      -0.47788137      -0.27258211
H       -0.82806851      -1.35765538       1.77780229
H        1.42636656       1.83914532       0.14850817
H       -1.19036030       2.03219355      -0.03520346
14
Frame=9 idx=011105 GeodesicLength=0.4009557416234032 rxn_smarts="[C:1]1([H:8])([H:9])[C@:2]2([H:10])[C@@:3]3([H:11])[C@:4]2([H:12])[N:5]2[C@:6]1([H:13])[C@@:7]32[H:14]>>[C:1]1([H:8])([H:9])[C:2][C@:4]2([H:12])[C:3]([H:10])([H:11])[C@@:7]3([H:14])[N:5]2[C@@:6]13[H:13]"
C        1.30128718      -0.31159275      -0.57919646
C        0.22916209      -1.30638591      -0.22792543
C       -1.24604584      -0.28476602      -0.23874292
C       -0.43452007      -0.76284263       0.96455165
N        0.01935630       0.65140919       1.27568389
C        0.80748753       0.95575074       0.07383951
C       -0.66124407       1.09167316       0.03050099
H        1.48303087      -0.21281224      -1.65042621
H        2.22696319      -0.66768893      -0.11461619
H       -0.82230534      -1.19663726      -1.16060854
H       -2.31253253      -0.46957075      -0.26344063
H       -0.82809936      -1.35980215       1.77468691
H        1.42681995       1.83998864       0.15078650
H       -1.18935989       2.03327691      -0.03509308
14
Frame=10 idx=011105 GeodesicLength=0.44537009952681594 rxn_smarts="[C:1]1([H:8])([H:9])[C@:2]2([H:10])[C@@:3]3([H:11])[C@:4]2([H:12])[N:5]2[C@:6]1([H:13])[C@@:7]32[H:14]>>[C:1]1([H:8])([H:9])[C:2][C@:4]2([H:12])[C:3]([H:10])([H:11])[C@@:7]3([H:14])[N:5]2[C@@:6]13[H:13]"
C        1.30394346      -0.30964856      -0.57863758
C        0.22939270      -1.30099248      -0.23046647
C       -1.24672810      -0.28391746      -0.24158373
C       -0.43349960      -0.76231606       0.96382874
N        0.01821496       0.65125562       1.27536799
C        0.80778688       0.95695180       0.07426453
C       -0.66112306       1.09214973       0.02964962
H        1.48785782      -0.21011907      -1.64947558
H        2.22863690      -0.66672487      -0.11254666
H       -0.83057996      -1.21875558      -1.16556368
H       -2.31473659      -0.46120360      -0.25452665
H       -0.82812901      -1.36196940       1.77146549
H        1.42730119       1.84085241       0.15311802
H       -1.18833760       2.03443752      -0.03489404
14
Frame=11 idx=011105 GeodesicLength=0.4897709999711386 rxn_smarts="[C:1]1([H:8])([H:9])[C@:2]2([H:10])[C@@:3]3([H:11])[C@:4]2([H:12])[N:5]2[C@:6]1([H:13])[C@@:7]32[H:14]>>[C:1]1([H:8])([H:9])[C:2][C@:4]2([H:12])[C:3]([H:10])([H:11])[C@@:7]3([H:14])[N:5]2[C@@:6]13[H:13]"
C        1.30658499      -0.30765104      -0.57810445
C        0.22953629      -1.29551185      -0.23316425
C       -1.24744006      -0.28296956      -0.24447354
C       -0.43248318      -0.76178010       0.96303284
N        0.01708562       0.65108978       1.27505881
C        0.80809853       0.95819213       0.07471037
C       -0.66098783       1.09269894       0.02883656
H        1.49267247      -0.20732638      -1.64854303
H        2.23025945      -0.66579634      -0.11051163
H       -0.83890154      -1.24141660      -1.17003921
H       -2.31678657      -0.45277891      -0.24583334
H       -0.82815823      -1.36416338       1.76812981
H        1.42781194       1.84173630       0.15550712
H       -1.18729186       2.03567700      -0.03460606
14
Frame=12 idx=011105 GeodesicLength=0.5342091003722288 rxn_smarts="[C:1]1([H:8])([H:9])[C@:2]2([H:10])[C@@:3]3([H:11])[C@:4]2([H:12])[N:5]2[C@:6]1([H:13])[C@@:7]32[H:14]>>[C:1]1([H:8])([H:9])[C:2][C@:4]2([H:12])[C:3]([H:10])([H:11])[C@@:7]3([H:14])[N:5]2[C@@:6]13[H:13]"
C        1.30921089      -0.30559809      -0.57759846
C        0.22959301      -1.28993627      -0.23602731
C       -1.24818464      -0.28191589      -0.24741505
C       -0.43147026      -0.76123274       0.96215482
N        0.01596680       0.65090887       1.27475230
C        0.80842207       0.95947166       0.07517808
C       -0.66083962       1.09332154       0.02806130
H        1.49747945      -0.20442863      -1.64762541
H        2.23182832      -0.66490666      -0.10851388
H       -0.84726457      -1.26465310      -1.17401687
H       -2.31868600      -0.44427990      -0.23735976
H       -0.82818225      -1.36638115       1.76466957
H        1.42835226       1.84263637       0.15796360
H       -1.18622544       2.03699399      -0.03422293
14
Frame=13 idx=011105 GeodesicLength=0.5785753863063203 rxn_smarts="[C:1]1([H:8])([H:9])[C@:2]2([H:10])[C@@:3]3([H:11])[C@:4]2([H:12])[N:5]2[C@:6]1([H:13])[C@@:7]32[H:14]>>[C:1]1([H:8])([H:9])[C:2][C@:4]2([H:12])[C:3]([H:10])([H:11])[C@@:7]3([H:14])[N:5]2[C@@:6]13[H:13]"
C        1.31182054      -0.30349447      -0.57711797
C        0.22956009      -1.28427251      -0.23905595
C       -1.24895986      -0.28075772      -0.25041374
C       -0.43046295      -0.76067875       0.96119264
N        0.01485911       0.65070972       1.27444883
C        0.80875621       0.96078681       0.07566560
C       -0.66067932       1.09401768       0.02732469
H        1.50228282      -0.20143126      -1.64672175
H        2.23333976      -0.66406166      -0.10654715
H       -0.85565990      -1.28840022      -1.17747701
H       -2.32044297      -0.43573672      -0.22911059
H       -0.82819689      -1.36862797       1.76108575
H        1.42891622       1.84355402       0.16047226
H       -1.18513285       2.03839306      -0.03374560
14
Frame=14 idx=011105 GeodesicLength=0.6229541147911113 rxn_smarts="[C:1]1([H:8])([H:9])[C@:2]2([H:10])[C@@:3]3([H:11])[C@:4]2([H:12])[N:5]2[C@:6]1([H:13])[C@@:7]32[H:14]>>[C:1]1([H:8])([H:9])[C:2][C@:4]2([H:12])[C:3]([H:10])([H:11])[C@@:7]3([H:14])[N:5]2[C@@:6]13[H:13]"
C        1.31441304      -0.30133602      -0.57666762
C        0.22943211      -1.27851232      -0.24226449
C       -1.24977046      -0.27948578      -0.25347237
C       -0.42946410      -0.76011825       0.96013772
N        0.01376121       0.65049023       1.27414931
C        0.80910183       0.96214138       0.07617532
C       -0.66050636       1.09479351       0.02663002
H        1.50708976      -0.19832289      -1.64583497
H        2.23479039      -0.66326257      -0.10461651
H       -0.86407312      -1.31272318      -1.18039330
H       -2.32206677      -0.42712951      -0.22108491
H       -0.82820596      -1.37090929       1.75736626
H        1.42950702       1.84449172       0.16304229
H       -1.18400858       2.03988296      -0.03316677
14
Frame=15 idx=011105 GeodesicLength=0.6673249272682358 rxn_smarts="[C:1]1([H:8])([H:9])[C@:2]2([H:10])[C@@:3]3([H:11])[C@:4]2([H:12])[N:5]2[C@:6]1([H:13])[C@@:7]32[H:14]>>[C:1]1([H:8])([H:9])[C:2][C@:4]2([H:12])[C:3]([H:10])([H:11])[C@@:7]3([H:14])[N:5]2[C@@:6]13[H:13]"
C        1.31698686      -0.29912205      -0.57625012
C        0.22920710      -1.27265297      -0.24566066
C       -1.25061708      -0.27809555      -0.25659666
C       -0.42847450      -0.75955261       0.95898263
N        0.01267196       0.65024679       1.27385121
C        0.80945917       0.96353440       0.07670763
C       -0.66032036       1.09565050       0.02597603
H        1.51190290      -0.19509606      -1.64496534
H        2.23617751      -0.66251104      -0.10272525
H       -0.87249230      -1.33762734      -1.18273077
H       -2.32356392      -0.41845772      -0.21328002
H       -0.82821339      -1.37322851       1.75349874
H        1.43012593       1.84544617       0.16567972
H       -1.18284986       2.04146600      -0.03248715
14
Frame=16 idx=011105 GeodesicLength=0.7116909228372007 rxn_smarts="[C:1]1([H:8])([H:9])[C@:2]2([H:10])[C@@:3]3([H:11])[C@:4]2([H:12])[N:5]2[C@:6]1([H:13])[C@@:7]32[H:14]>>[C:1]1([H:8])([H:9])[C:2][C@:4]2([H:12])[C:3]([H:10])([H:11])[C@@:7]3([H:14])[N:5]2[C@@:6]13[H:13]"
C        1.31954095      -0.29685105      -0.57586914
C        0.22888294      -1.26669096      -0.24925309
C       -1.25150111      -0.27658252      -0.25979206
C       -0.42749501      -0.75898305       0.95771981
N        0.01159005       0.64997700       1.27355199
C        0.80982837       0.96496643       0.07726187
C       -0.66012097       1.09659112       0.02536125
H        1.51672462      -0.19174382      -1.64411499
H        2.23749851      -0.66180840      -0.10087731
H       -0.88090483      -1.36312605      -1.18445884
H       -2.32494072      -0.40971967      -0.20569138
H       -0.82822467      -1.37558716       1.74947237
H        1.43077751       1.84641332       0.16839579
H       -1.18165563       2.04314481      -0.03170627
