19
Frame=0 idx=007702 GeodesicLength=0.0 rxn_smarts="[C:1]([C:2]([C:3]([H:12])([H:13])[H:14])([C@@:4]1([H:15])[O:5][C@:6]1([C:7]([H:17])([H:18])[H:19])[H:16])[H:11])([H:8])([H:9])[H:10]>>[C:1]([C:2]([C:3]([H:12])([H:13])[H:14])([C@@:4]1([H:15])[O+:5]=[C-:6]1)[H:11])([H:8])([H:9])[H:10].[C:7]([H:16])([H:17])([H:18])[H:19]"
C       -1.87940328      -0.88398021      -0.69595452
C       -0.71807017      -0.04204523      -0.17175840
C       -1.21457685       1.15185552       0.64035093
C        0.18254945      -0.89245630       0.68516537
O        1.09873565      -1.79472777       0.01540283
C        1.62891170      -0.84960260       0.82747192
C        2.30316711       0.70634384      -0.46259990
H       -2.52604046      -0.28823319      -1.34310984
H       -1.51761865      -1.73876251      -1.26948837
H       -2.49059728      -1.26231228       0.12827693
H       -0.14312451       0.31954653      -1.02529913
H       -1.77911230       0.81928761       1.51570989
H       -1.87491224       1.77920281       0.03924505
H       -0.38675346       1.76922359       0.99370667
H       -0.33737085      -1.36879467       1.51836589
H        2.54683988      -0.18160371       0.65717076
H        2.11167300       0.20669431      -1.40642756
H        3.35080307       1.00387296      -0.37982182
H        1.64490021       1.54649129      -0.26640675
19
Frame=1 idx=007702 GeodesicLength=0.08838051330482896 rxn_smarts="[C:1]([C:2]([C:3]([H:12])([H:13])[H:14])([C@@:4]1([H:15])[O:5][C@:6]1([C:7]([H:17])([H:18])[H:19])[H:16])[H:11])([H:8])([H:9])[H:10]>>[C:1]([C:2]([C:3]([H:12])([H:13])[H:14])([C@@:4]1([H:15])[O+:5]=[C-:6]1)[H:11])([H:8])([H:9])[H:10].[C:7]([H:16])([H:17])([H:18])[H:19]"
C       -1.88369025      -0.88926911      -0.69720116
C       -0.72377896      -0.04656736      -0.17102661
C       -1.22188776       1.14765891       0.63952070
C        0.17658625      -0.89577718       0.68710369
O        1.08893929      -1.80258881       0.01890712
C        1.62474585      -0.85062721       0.81731459
C        2.31919561       0.70818011      -0.45957617
H       -2.52939120      -0.29433811      -1.34603971
H       -1.52046471      -1.74416389      -1.26967302
H       -2.49605258      -1.26779083       0.12607723
H       -0.14776153       0.31549448      -1.02378981
H       -1.78858769       0.81566475       1.51369824
H       -1.88047933       1.77502290       0.03649403
H       -0.39444294       1.76481187       0.99413743
H       -0.33967872      -1.36654475       1.52556495
H        2.54929996      -0.15410350       0.68387906
H        2.08470526       0.24610296      -1.41320467
H        3.38031595       0.96294708      -0.41520526
H        1.70242751       1.57588770      -0.24698061
19
Frame=2 idx=007702 GeodesicLength=0.17674198370386215 rxn_smarts="[C:1]([C:2]([C:3]([H:12])([H:13])[H:14])([C@@:4]1([H:15])[O:5][C@:6]1([C:7]([H:17])([H:18])[H:19])[H:16])[H:11])([H:8])([H:9])[H:10]>>[C:1]([C:2]([C:3]([H:12])([H:13])[H:14])([C@@:4]1([H:15])[O+:5]=[C-:6]1)[H:11])([H:8])([H:9])[H:10].[C:7]([H:16])([H:17])([H:18])[H:19]"
C       -1.88854688      -0.89506841      -0.69797187
C       -0.72971121      -0.05153476      -0.17073376
C       -1.22880342       1.14342979       0.63801929
C        0.17075672      -0.89930298       0.68850420
O        1.07911180      -1.81056610       0.02161474
C        1.62074559      -0.85165396       0.80584811
C        2.33530860       0.71065188      -0.45625012
H       -2.53353305      -0.30113148      -1.34843258
H       -1.52424733      -1.75036410      -1.26917844
H       -2.50173293      -1.27333400       0.12481597
H       -0.15290273       0.31058564      -1.02309820
H       -1.79716556       0.81243766       1.51149910
H       -1.88594878       1.77060648       0.03319245
H       -0.40141214       1.76043301       0.99303587
H       -0.34140403      -1.36425842       1.53253684
H        2.54998332      -0.12549978       0.71056472
H        2.05812659       0.28997923      -1.41799378
H        3.40732469       0.91935171      -0.44953192
H        1.76405076       1.60523856      -0.22644062
19
Frame=3 idx=007702 GeodesicLength=0.26503153538643764 rxn_smarts="[C:1]([C:2]([C:3]([H:12])([H:13])[H:14])([C@@:4]1([H:15])[O:5][C@:6]1([C:7]([H:17])([H:18])[H:19])[H:16])[H:11])([H:8])([H:9])[H:10]>>[C:1]([C:2]([C:3]([H:12])([H:13])[H:14])([C@@:4]1([H:15])[O+:5]=[C-:6]1)[H:11])([H:8])([H:9])[H:10].[C:7]([H:16])([H:17])([H:18])[H:19]"
C       -1.89397429      -0.90141122      -0.69825004
C       -0.73586813      -0.05695596      -0.17089210
C       -1.23533491       1.13919771       0.63576864
C        0.16504871      -0.90299153       0.68941169
O        1.06922249      -1.81868021       0.02364248
C        1.61687146      -0.85264726       0.79310257
C        2.35137172       0.71393652      -0.45245583
H       -2.53845983      -0.30867490      -1.35030268
H       -1.52896435      -1.75741904      -1.26794916
H       -2.50764717      -1.27893806       0.12451975
H       -0.15854197       0.30475169      -1.02325755
H       -1.80489217       0.80967815       1.50902821
H       -1.89130093       1.76596730       0.02921329
H       -0.40768912       1.75612237       0.99035743
H       -0.34255974      -1.36183342       1.53933867
H        2.54928591      -0.09651969       0.73658470
H        2.03207022       0.33858224      -1.42033269
H        3.43138039       0.87350621      -0.48290856
H        1.82998171       1.63432911      -0.20461885
19
Frame=4 idx=007702 GeodesicLength=0.35320939615947616 rxn_smarts="[C:1]([C:2]([C:3]([H:12])([H:13])[H:14])([C@@:4]1([H:15])[O:5][C@:6]1([C:7]([H:17])([H:18])[H:19])[H:16])[H:11])([H:8])([H:9])[H:10]>>[C:1]([C:2]([C:3]([H:12])([H:13])[H:14])([C@@:4]1([H:15])[O+:5]=[C-:6]1)[H:11])([H:8])([H:9])[H:10].[C:7]([H:16])([H:17])([H:18])[H:19]"
C       -1.89994235      -0.90831792      -0.69804657
C       -0.74223858      -0.06282938      -0.17150888
C       -1.24150413       1.13499304       0.63269274
C        0.15944030      -0.90679781       0.68988218
O        1.05923857      -1.82695176       0.02514045
C        1.61306310      -0.85358012       0.77915124
C        2.36724069       0.71819592      -0.44802215
H       -2.54411992      -0.31701366      -1.35169791
H       -1.53456768      -1.76536689      -1.26595391
H       -2.51378810      -1.28459398       0.12516542
H       -0.16465137       0.29794543      -1.02427757
H       -1.81184226       0.80745060       1.50617934
H       -1.89651130       1.76112479       0.02442551
H       -0.41332851       1.75191275       0.98608774
H       -0.34318505      -1.35916580       1.54602024
H        2.54774356      -0.06786262       0.76145995
H        2.00651903       0.39208376      -1.41965400
H        3.45196805       0.82592770      -0.51575989
H        1.90046594       1.66284596      -0.18128394
19
Frame=5 idx=007702 GeodesicLength=0.4411762148602566 rxn_smarts="[C:1]([C:2]([C:3]([H:12])([H:13])[H:14])([C@@:4]1([H:15])[O:5][C@:6]1([C:7]([H:17])([H:18])[H:19])[H:16])[H:11])([H:8])([H:9])[H:10]>>[C:1]([C:2]([C:3]([H:12])([H:13])[H:14])([C@@:4]1([H:15])[O+:5]=[C-:6]1)[H:11])([H:8])([H:9])[H:10].[C:7]([H:16])([H:17])([H:18])[H:19]"
C       -1.90643023      -0.91578771      -0.69738431
C       -0.74881701      -0.06914121      -0.17259548
C       -1.24735223       1.13084212       0.62873982
C        0.15390362      -0.91068429       0.68997526
O        1.04917134      -1.83539628       0.02626085
C        1.60926160      -0.85443340       0.76408342
C        2.38280267       0.72355648      -0.44278186
H       -2.55049001      -0.32616556      -1.35266581
H       -1.54101112      -1.77421645      -1.26319002
H       -2.52015443      -1.29028603       0.12672564
H       -0.17118306       0.29013724      -1.02616550
H       -1.81810102       0.80580193       1.50288769
H       -1.90159984       1.75609476       0.01873497
H       -0.41840129       1.74783112       0.98023536
H       -0.34333014      -1.35616169       1.55264056
H        2.54594898      -0.04014338       0.78488602
H        1.98162941       0.45065662      -1.41544626
H        3.46851792       0.77714901      -0.54847042
H        1.97563484       1.69034673      -0.15646995
19
Frame=6 idx=007702 GeodesicLength=0.5289396197586732 rxn_smarts="[C:1]([C:2]([C:3]([H:12])([H:13])[H:14])([C@@:4]1([H:15])[O:5][C@:6]1([C:7]([H:17])([H:18])[H:19])[H:16])[H:11])([H:8])([H:9])[H:10]>>[C:1]([C:2]([C:3]([H:12])([H:13])[H:14])([C@@:4]1([H:15])[O+:5]=[C-:6]1)[H:11])([H:8])([H:9])[H:10].[C:7]([H:16])([H:17])([H:18])[H:19]"
C       -1.91336979      -0.92380834      -0.69633539
C       -0.75556539      -0.07587032      -0.17414319
C       -1.25291819       1.12676518       0.62385876
C        0.14842039      -0.91460906       0.68978771
O        1.03900107      -1.84404859       0.02723041
C        1.60542647      -0.85520449       0.74804220
C        2.39795726       0.73011152      -0.43661663
H       -2.55745745      -0.33612295      -1.35333868
H       -1.54817907      -1.78395151      -1.25969553
H       -2.52674397      -1.29600320       0.12908453
H       -0.17805220       0.28133836      -1.02889220
H       -1.82381648       0.80475433       1.49903448
H       -1.90652726       1.75091122       0.01200886
H       -0.42299148       1.74388622       0.97288602
H       -0.34306770      -1.35273058       1.55927650
H        2.54453537      -0.01382806       0.80677154
H        1.95715315       0.51427411      -1.40697785
H        3.48042597       0.72788548      -0.58192875
H        2.05576931       1.71625067      -0.13005278
19
Frame=7 idx=007702 GeodesicLength=0.6163748823179781 rxn_smarts="[C:1]([C:2]([C:3]([H:12])([H:13])[H:14])([C@@:4]1([H:15])[O:5][C@:6]1([C:7]([H:17])([H:18])[H:19])[H:16])[H:11])([H:8])([H:9])[H:10]>>[C:1]([C:2]([C:3]([H:12])([H:13])[H:14])([C@@:4]1([H:15])[O+:5]=[C-:6]1)[H:11])([H:8])([H:9])[H:10].[C:7]([H:16])([H:17])([H:18])[H:19]"
C       -1.92062559      -0.93233521      -0.69497142
C       -0.76242346      -0.08297855      -0.17613005
C       -1.25824047       1.12277249       0.61803785
C        0.14297424      -0.91851682       0.68939154
O        1.02872482      -1.85293051       0.02824965
C        1.60149414      -0.85588661       0.73112815
C        2.41260697       0.73786536      -0.42943840
H       -2.56484056      -0.34684780      -1.35380715
H       -1.55587550      -1.79450413      -1.25552851
H       -2.53347061      -1.30171351       0.13210061
H       -0.18514183       0.27158229      -1.03237333
H       -1.82912322       0.80431254       1.49451830
H       -1.91125366       1.74559208       0.00419192
H       -0.42721348       1.74007007       0.96417173
H       -0.34245721      -1.34875026       1.56596516
H        2.54395400       0.01081547       0.82716932
H        1.93293101       0.58283938      -1.39349360
H        3.48698591       0.67880301      -0.61688779
H        2.14099448       1.73981072      -0.10229396
19
Frame=8 idx=007702 GeodesicLength=0.7035534208295231 rxn_smarts="[C:1]([C:2]([C:3]([H:12])([H:13])[H:14])([C@@:4]1([H:15])[O:5][C@:6]1([C:7]([H:17])([H:18])[H:19])[H:16])[H:11])([H:8])([H:9])[H:10]>>[C:1]([C:2]([C:3]([H:12])([H:13])[H:14])([C@@:4]1([H:15])[O+:5]=[C-:6]1)[H:11])([H:8])([H:9])[H:10].[C:7]([H:16])([H:17])([H:18])[H:19]"
C       -1.92812478      -0.94132094      -0.69341017
C       -0.76935177      -0.09041455      -0.17853331
C       -1.26341145       1.11886527       0.61130661
C        0.13756430      -0.92235840       0.68890382
O        1.01837093      -1.86206538       0.02954809
C        1.59748259      -0.85647788       0.71348725
C        2.42677923       0.74679732      -0.42122390
H       -2.57254817      -0.35828582      -1.35424033
H       -1.56394728      -1.80579084      -1.25081959
H       -2.54033769      -1.30741967       0.13561121
H       -0.19232395       0.26095943      -1.03654495
H       -1.83424001       0.80443486       1.48930115
H       -1.91581495       1.74016120      -0.00476285
H       -0.43120903       1.73637406       0.95431105
H       -0.34155962      -1.34412389       1.57282408
H        2.54465934       0.03367843       0.84629453
H        1.90889963       0.65611936      -1.37423962
H        3.48761873       0.63067522      -0.65413118
H        2.23149396       1.76019223      -0.07368190
19
Frame=9 idx=007702 GeodesicLength=0.7901887052814935 rxn_smarts="[C:1]([C:2]([C:3]([H:12])([H:13])[H:14])([C@@:4]1([H:15])[O:5][C@:6]1([C:7]([H:17])([H:18])[H:19])[H:16])[H:11])([H:8])([H:9])[H:10]>>[C:1]([C:2]([C:3]([H:12])([H:13])[H:14])([C@@:4]1([H:15])[O+:5]=[C-:6]1)[H:11])([H:8])([H:9])[H:10].[C:7]([H:16])([H:17])([H:18])[H:19]"
C       -1.93562889      -0.95071761      -0.69174527
C       -0.77623250      -0.09808734      -0.18130688
C       -1.26838833       1.11508468       0.60370694
C        0.13219391      -0.92609491       0.68838481
O        1.00789927      -1.87151990       0.03138924
C        1.59329082      -0.85697545       0.69519738
C        2.44030087       0.75683629      -0.41196582
H       -2.58029814      -0.37035372      -1.35469488
H       -1.57212762      -1.81773066      -1.24566724
H       -2.54709620      -1.31318909       0.13939109
H       -0.19942853       0.24966139      -1.04120557
H       -1.83917210       0.80506027       1.48327992
H       -1.92008789       1.73470427      -0.01481044
H       -0.43505302       1.73286757       0.94353319
H       -0.34035885      -1.33877122       1.57983642
H        2.54668773       0.05482755       0.86428620
H        1.88523569       0.73386864      -1.34849836
H        3.48130037       0.58402692      -0.69404752
H        2.32696342       1.77650231      -0.04506322
19
Frame=10 idx=007702 GeodesicLength=0.8763903151659254 rxn_smarts="[C:1]([C:2]([C:3]([H:12])([H:13])[H:14])([C@@:4]1([H:15])[O:5][C@:6]1([C:7]([H:17])([H:18])[H:19])[H:16])[H:11])([H:8])([H:9])[H:10]>>[C:1]([C:2]([C:3]([H:12])([H:13])[H:14])([C@@:4]1([H:15])[O+:5]=[C-:6]1)[H:11])([H:8])([H:9])[H:10].[C:7]([H:16])([H:17])([H:18])[H:19]"
C       -1.94295176      -0.96037233      -0.69018535
C       -0.78300154      -0.10587878      -0.18432977
C       -1.27341683       1.11135474       0.59544176
C        0.12684537      -0.92959175       0.68806513
O        0.99737717      -1.88118931       0.03412852
C        1.58895245      -0.85730352       0.67655414
C        2.45338258       0.76775043      -0.40184535
H       -2.58783402      -0.38287859      -1.35544719
H       -1.58001831      -1.83001777      -1.24036321
H       -2.55374456      -1.31901610       0.14311794
H       -0.20621028       0.23794576      -1.04613539
H       -1.84443015       0.80598136       1.47651554
H       -1.92420146       1.72917809      -0.02584731
H       -0.43909787       1.72943563       0.93237811
H       -0.33903616      -1.33255776       1.58720453
H        2.55035323       0.07440133       0.88140929
H        1.86195267       0.81520487      -1.31554220
H        3.46763597       0.53985521      -0.73737207
H        2.42744348       1.78769848      -0.01774712
19
Frame=11 idx=007702 GeodesicLength=0.9620467556220356 rxn_smarts="[C:1]([C:2]([C:3]([H:12])([H:13])[H:14])([C@@:4]1([H:15])[O:5][C@:6]1([C:7]([H:17])([H:18])[H:19])[H:16])[H:11])([H:8])([H:9])[H:10]>>[C:1]([C:2]([C:3]([H:12])([H:13])[H:14])([C@@:4]1([H:15])[O+:5]=[C-:6]1)[H:11])([H:8])([H:9])[H:10].[C:7]([H:16])([H:17])([H:18])[H:19]"
C       -1.94981643      -0.97015882      -0.68890442
C       -0.78956285      -0.11363825      -0.18747004
C       -1.27866500       1.10764846       0.58670379
C        0.12152939      -0.93271228       0.68808723
O        0.98684819      -1.89099882       0.03810178
C        1.58445261      -0.85738734       0.65775677
C        2.46614895       0.77923003      -0.39104514
H       -2.59483102      -0.39570673      -1.35664625
H       -1.58717545      -1.84238916      -1.23515012
H       -2.56008254      -1.32496943       0.14641977
H       -0.21245324       0.22615470      -1.05098615
H       -1.85033312       0.80699688       1.46898698
H       -1.92824401       1.72358473      -0.03768675
H       -0.44366562       1.72607664       0.92133420
H       -0.33764729      -1.32533027       1.59496648
H        2.55566295       0.09270922       0.89784048
H        1.83937682       0.89938148      -1.27465406
H        3.44593273       0.49876839      -0.78436010
H        2.53252494       1.79274057       0.00670553
19
Frame=12 idx=007702 GeodesicLength=1.047371939811475 rxn_smarts="[C:1]([C:2]([C:3]([H:12])([H:13])[H:14])([C@@:4]1([H:15])[O:5][C@:6]1([C:7]([H:17])([H:18])[H:19])[H:16])[H:11])([H:8])([H:9])[H:10]>>[C:1]([C:2]([C:3]([H:12])([H:13])[H:14])([C@@:4]1([H:15])[O+:5]=[C-:6]1)[H:11])([H:8])([H:9])[H:10].[C:7]([H:16])([H:17])([H:18])[H:19]"
C       -1.95607783      -0.97999006      -0.68814210
C       -0.79587680      -0.12122005      -0.19060993
C       -1.28436603       1.10395963       0.57774033
C        0.11625843      -0.93536873       0.68867492
O        0.97638570      -1.90090184       0.04364654
C        1.57985901      -0.85719723       0.63912133
C        2.47889834       0.79094948      -0.37984546
H       -2.60112624      -0.40869196      -1.35859292
H       -1.59327891      -1.85464527      -1.23037502
H       -2.56607923      -1.33119201       0.14894863
H       -0.21797620       0.21467981      -1.05551878
H       -1.85728992       0.80788616       1.46082074
H       -1.93240356       1.71798039      -0.05016298
H       -0.44908202       1.72283692       0.91096612
H       -0.33627167      -1.31704758       1.60332330
H        2.56269119       0.11014026       0.91387808
H        1.81806805       0.98554198      -1.22529191
H        3.41579938       0.46157956      -0.83510576
H        2.64186831       1.79070054       0.02652487
19
Frame=13 idx=007702 GeodesicLength=1.131824549362209 rxn_smarts="[C:1]([C:2]([C:3]([H:12])([H:13])[H:14])([C@@:4]1([H:15])[O:5][C@:6]1([C:7]([H:17])([H:18])[H:19])[H:16])[H:11])([H:8])([H:9])[H:10]>>[C:1]([C:2]([C:3]([H:12])([H:13])[H:14])([C@@:4]1([H:15])[O+:5]=[C-:6]1)[H:11])([H:8])([H:9])[H:10].[C:7]([H:16])([H:17])([H:18])[H:19]"
C       -1.96127375      -0.98976567      -0.68801147
C       -0.80176708      -0.12845533      -0.19363878
C       -1.29052393       1.10037440       0.56873179
C        0.11105279      -0.93742393       0.68988576
O        0.96592933      -1.91086744       0.05098385
C        1.57501459      -0.85671756       0.62073070
C        2.49150962       0.80251976      -0.36848243
H       -2.60618509      -0.42172046      -1.36132341
H       -1.59777152      -1.86662899      -1.22621150
H       -2.57123044      -1.33773422       0.15041347
H       -0.22255742       0.20388124      -1.05938665
H       -1.86528445       0.80860625       1.45203105
H       -1.93662576       1.71244608      -0.06301763
H       -0.45558665       1.71988960       0.90159083
H       -0.33485140      -1.30748865       1.61223094
H        2.57116951       0.12692739       0.92949284
H        1.79913527       1.07273922      -1.16728960
H        3.37620606       0.42882983      -0.88928921
H        2.75364032       1.78058848       0.04055943
19
Frame=14 idx=007702 GeodesicLength=1.2158947463816006 rxn_smarts="[C:1]([C:2]([C:3]([H:12])([H:13])[H:14])([C@@:4]1([H:15])[O:5][C@:6]1([C:7]([H:17])([H:18])[H:19])[H:16])[H:11])([H:8])([H:9])[H:10]>>[C:1]([C:2]([C:3]([H:12])([H:13])[H:14])([C@@:4]1([H:15])[O+:5]=[C-:6]1)[H:11])([H:8])([H:9])[H:10].[C:7]([H:16])([H:17])([H:18])[H:19]"
C       -1.96538962      -0.99932093      -0.68876931
C       -0.80727256      -0.13521570      -0.19637100
C       -1.29751519       1.09671829       0.56003011
C        0.10587099      -0.93878853       0.69198164
O        0.95572431      -1.92054705       0.06038289
C        1.57006038      -0.85580775       0.60314928
C        2.50461110       0.81341198      -0.35747446
H       -2.60994353      -0.43454876      -1.36516703
H       -1.60037281      -1.87794200      -1.22304460
H       -2.57578324      -1.34470304       0.15041277
H       -0.22603146       0.19418235      -1.06228983
H       -1.87495426       0.80870605       1.44284604
H       -1.94126468       1.70686341      -0.07595550
H       -0.46355596       1.71704976       0.89382326
H       -0.33371259      -1.29686081       1.62181075
H        2.58095636       0.14397588       0.94510230
H        1.78343857       1.15971762      -1.10024940
H        3.32747631       0.40135917      -0.94637687
H        2.86765787       1.76175008       0.04615894
19
Frame=15 idx=007702 GeodesicLength=1.2997826713699605 rxn_smarts="[C:1]([C:2]([C:3]([H:12])([H:13])[H:14])([C@@:4]1([H:15])[O:5][C@:6]1([C:7]([H:17])([H:18])[H:19])[H:16])[H:11])([H:8])([H:9])[H:10]>>[C:1]([C:2]([C:3]([H:12])([H:13])[H:14])([C@@:4]1([H:15])[O+:5]=[C-:6]1)[H:11])([H:8])([H:9])[H:10].[C:7]([H:16])([H:17])([H:18])[H:19]"
C       -1.96833681      -1.00873260      -0.69047771
C       -0.81232877      -0.14146048      -0.19881015
C       -1.30525643       1.09311477       0.55160427
C        0.10072870      -0.93944860       0.69505231
O        0.94563904      -1.93007634       0.07203101
C        1.56498646      -0.85459660       0.58642858
C        2.51831662       0.82339405      -0.34703340
H       -2.61230054      -0.44726242      -1.37025265
H       -1.60102475      -1.88872055      -1.22092306
H       -2.57960966      -1.35222188       0.14889162
H       -0.22832500       0.18573443      -1.06418424
H       -1.88613685       0.80828214       1.43326590
H       -1.94627232       1.70132584      -0.08903934
H       -0.47293224       1.71456849       0.88755550
H       -0.33277207      -1.28499997       1.63223716
H        2.59235278       0.16125126       0.96063035
H        1.77262665       1.24610990      -1.02405988
H        3.26871166       0.38012768      -1.00597561
H        2.98193354       1.73361088       0.04305932
19
Frame=16 idx=007702 GeodesicLength=1.3831073225060913 rxn_smarts="[C:1]([C:2]([C:3]([H:12])([H:13])[H:14])([C@@:4]1([H:15])[O:5][C@:6]1([C:7]([H:17])([H:18])[H:19])[H:16])[H:11])([H:8])([H:9])[H:10]>>[C:1]([C:2]([C:3]([H:12])([H:13])[H:14])([C@@:4]1([H:15])[O+:5]=[C-:6]1)[H:11])([H:8])([H:9])[H:10].[C:7]([H:16])([H:17])([H:18])[H:19]"
C       -1.96968030      -1.01781659      -0.69315606
C       -0.81677239      -0.14714848      -0.20085702
C       -1.31373607       1.08950637       0.54354003
C        0.09563144      -0.93931438       0.69904911
O        0.93591558      -1.93909680       0.08583236
C        1.55969539      -0.85304215       0.57086746
C        2.53238545       0.83182216      -0.33752611
H       -2.61267075      -0.45969279      -1.37651600
H       -1.59914649      -1.89869630      -1.21985719
H       -2.58236205      -1.36003462       0.14564714
H       -0.22926939       0.17854472      -1.06482398
H       -1.89883801       0.80732570       1.42323779
H       -1.95157266       1.69571825      -0.10205637
H       -0.48384343       1.71231136       0.88278847
H       -0.33219955      -1.27194287       1.64318152
H        2.60472430       0.17942285       0.97611963
H        1.76748796       1.33072948      -0.93774379
H        3.19925170       0.36595040      -1.06697196
H        3.09499924       1.69545370       0.02924495
