12
Frame=0 idx=001894 GeodesicLength=0.0 rxn_smarts="[C:1]([C:2]([C:3](=[O:4])[N:5]([H:11])[H:12])([H:9])[H:10])([H:6])([H:7])[H:8]>>[C:1]([N:5]([H:11])[H:12])([H:6])([H:7])[H:8].[C:2](=[C:3]=[O:4])([H:9])[H:10]"
C       -1.22858589       0.25654474      -0.62554592
C        0.08139523      -0.67207419       1.26089023
C        0.87178582       0.27521470       0.61452181
O        1.40302626       1.29903127       1.00196381
N        0.85595532       0.06206856      -0.85465665
H       -1.89290278      -0.42277302      -0.11888864
H       -1.21853982       1.26163874      -0.22795167
H       -1.24754346       0.18367250      -1.70308365
H       -0.07451318      -1.64406497       0.81274405
H       -0.08226122      -0.57250763       2.32492257
H        1.19227499      -0.84250336      -1.15841932
H        1.33990872       0.81575270      -1.32649662
12
Frame=1 idx=001894 GeodesicLength=0.07491749392643274 rxn_smarts="[C:1]([C:2]([C:3](=[O:4])[N:5]([H:11])[H:12])([H:9])[H:10])([H:6])([H:7])[H:8]>>[C:1]([N:5]([H:11])[H:12])([H:6])([H:7])[H:8].[C:2](=[C:3]=[O:4])([H:9])[H:10]"
C       -1.22370145       0.25259361      -0.62052620
C        0.07102090      -0.66332801       1.26259793
C        0.88598746       0.27314773       0.62783034
O        1.39368207       1.30990108       1.00640685
N        0.86493028       0.05665759      -0.86253830
H       -1.90221063      -0.42869114      -0.13390770
H       -1.22680683       1.25732319      -0.22015844
H       -1.25745689       0.20019315      -1.69981199
H       -0.06778213      -1.64027016       0.81876824
H       -0.08078529      -0.57539300       2.32970072
H        1.19147879      -0.84922801      -1.17219611
H        1.35164372       0.80709397      -1.33616534
12
Frame=2 idx=001894 GeodesicLength=0.14981050093891207 rxn_smarts="[C:1]([C:2]([C:3](=[O:4])[N:5]([H:11])[H:12])([H:9])[H:10])([H:6])([H:7])[H:8]>>[C:1]([N:5]([H:11])[H:12])([H:6])([H:7])[H:8].[C:2](=[C:3]=[O:4])([H:9])[H:10]"
C       -1.21872845       0.24843327      -0.61507663
C        0.06185452      -0.65500568       1.26401313
C        0.90058206       0.27104366       0.64150404
O        1.38490096       1.32016459       1.01062098
N        0.87399221       0.05123459      -0.87067245
H       -1.91087594      -0.43452361      -0.14846795
H       -1.23518224       1.25256805      -0.21175466
H       -1.26752187       0.21664183      -1.69553392
H       -0.06029873      -1.63660875       0.82473000
H       -0.08264321      -0.57681203       2.33326478
H        1.19069858      -0.85571768      -1.18658591
H        1.36322210       0.79858177      -1.34604141
12
Frame=3 idx=001894 GeodesicLength=0.22468459177177985 rxn_smarts="[C:1]([C:2]([C:3](=[O:4])[N:5]([H:11])[H:12])([H:9])[H:10])([H:6])([H:7])[H:8]>>[C:1]([N:5]([H:11])[H:12])([H:6])([H:7])[H:8].[C:2](=[C:3]=[O:4])([H:9])[H:10]"
C       -1.21371783       0.24411995      -0.60938361
C        0.05361625      -0.64697627       1.26518443
C        0.91535896       0.26901628       0.65560429
O        1.37657652       1.32990259       1.01466020
N        0.88310599       0.04578473      -0.87900600
H       -1.91902357      -0.44017256      -0.16274903
H       -1.24372312       1.24743801      -0.20297092
H       -1.27765507       0.23296574      -1.69042593
H       -0.05229490      -1.63297200       0.83066013
H       -0.08683058      -0.57724610       2.33592848
H        1.18990293      -0.86201544      -1.20142909
H        1.37468442       0.79015509      -1.35607295
12
Frame=4 idx=001894 GeodesicLength=0.299539770136828 rxn_smarts="[C:1]([C:2]([C:3](=[O:4])[N:5]([H:11])[H:12])([H:9])[H:10])([H:6])([H:7])[H:8]>>[C:1]([N:5]([H:11])[H:12])([H:6])([H:7])[H:8].[C:2](=[C:3]=[O:4])([H:9])[H:10]"
C       -1.20870588       0.23969429      -0.60356591
C        0.04611840      -0.63915215       1.26614856
C        0.93017528       0.26714544       0.67017753
O        1.36864325       1.33918084       1.01856044
N        0.89224715       0.04029440      -0.88750809
H       -1.92672745      -0.44558223      -0.17687209
H       -1.25246383       1.24197232      -0.19394950
H       -1.28779754       0.24913473      -1.68460976
H       -0.04391997      -1.62928746       0.83657685
H       -0.09269003      -0.57701379       2.33789805
H        1.18905958      -0.86815399      -1.21662843
H        1.38606104       0.78176760      -1.36622764
12
Frame=5 idx=001894 GeodesicLength=0.3743765996488588 rxn_smarts="[C:1]([C:2]([C:3](=[O:4])[N:5]([H:11])[H:12])([H:9])[H:10])([H:6])([H:7])[H:8]>>[C:1]([N:5]([H:11])[H:12])([H:6])([H:7])[H:8].[C:2](=[C:3]=[O:4])([H:9])[H:10]"
C       -1.20371621       0.23519027      -0.59770162
C        0.03923417      -0.63147813       1.26692990
C        0.94493415       0.26548581       0.68526085
O        1.36105447       1.34805516       1.02234544
N        0.90140074       0.03475049      -0.89616354
H       -1.93403763      -0.45071816      -0.19090719
H       -1.26142403       1.23619830      -0.18477800
H       -1.29790525       0.26512548      -1.67817024
H       -0.03526882      -1.62551113       0.84248238
H       -0.09979119      -0.57632443       2.33931542
H        1.18814330      -0.87415832      -1.23212753
H        1.39737631       0.77338465      -1.37648585
12
Frame=6 idx=001894 GeodesicLength=0.449199636629106 rxn_smarts="[C:1]([C:2]([C:3](=[O:4])[N:5]([H:11])[H:12])([H:9])[H:10])([H:6])([H:7])[H:8]>>[C:1]([N:5]([H:11])[H:12])([H:6])([H:7])[H:8].[C:2](=[C:3]=[O:4])([H:9])[H:10]"
C       -1.19876116       0.23062949      -0.59182991
C        0.03288755      -0.62392482       1.26754864
C        0.95957963       0.26407158       0.70088470
O        1.35378491       1.35657471       1.02603040
N        0.91055619       0.02914236      -0.90496990
H       -1.94098225      -0.45556839      -0.20488350
H       -1.27060667       1.23013116      -0.17549634
H       -1.30794556       0.28092576      -1.67116666
H       -0.02638706      -1.62162139       0.84837388
H       -0.10790275      -0.57529596       2.34025671
H        1.18712813      -0.88004646      -1.24790806
H        1.40864903       0.76498197      -1.38683998
12
Frame=7 idx=001894 GeodesicLength=0.5240029083542855 rxn_smarts="[C:1]([C:2]([C:3](=[O:4])[N:5]([H:11])[H:12])([H:9])[H:10])([H:6])([H:7])[H:8]>>[C:1]([N:5]([H:11])[H:12])([H:6])([H:7])[H:8].[C:2](=[C:3]=[O:4])([H:9])[H:10]"
C       -1.19385510       0.22603690      -0.58598665
C        0.02700597      -0.61645679       1.26802404
C        0.97405683       0.26293779       0.71708168
O        1.34679934       1.36478723       1.02962471
N        0.91970440       0.02345441      -0.91392184
H       -1.94757367      -0.46012398      -0.21884993
H       -1.28001894       1.22378054      -0.16613949
H       -1.31788856       0.29653434      -1.66364586
H       -0.01732240      -1.61759027       0.85425538
H       -0.11678785      -0.57404971       2.34078865
H        1.18598137      -0.88583781      -1.26394955
H        1.41989862       0.75652736      -1.39728114
12
Frame=8 idx=001894 GeodesicLength=0.5987958901050205 rxn_smarts="[C:1]([C:2]([C:3](=[O:4])[N:5]([H:11])[H:12])([H:9])[H:10])([H:6])([H:7])[H:8]>>[C:1]([N:5]([H:11])[H:12])([H:6])([H:7])[H:8].[C:2](=[C:3]=[O:4])([H:9])[H:10]"
C       -1.18900079       0.22143040      -0.58018535
C        0.02155064      -0.60906463       1.26836548
C        0.98833997       0.26210167       0.73388055
O        1.34007720       1.37273352       1.03313226
N        0.92884130       0.01767480      -0.92302770
H       -1.95382572      -0.46439002      -0.23280560
H       -1.28965414       1.21715674      -0.15671292
H       -1.32770777       0.31194713      -1.65564494
H       -0.00808458      -1.61341409       0.86011462
H       -0.12635493      -0.57263415       2.34095475
H        1.18467881      -0.89154459      -1.28026253
H        1.43114001       0.74800322      -1.40780861
12
Frame=9 idx=001894 GeodesicLength=0.6735653106434816 rxn_smarts="[C:1]([C:2]([C:3](=[O:4])[N:5]([H:11])[H:12])([H:9])[H:10])([H:6])([H:7])[H:8]>>[C:1]([N:5]([H:11])[H:12])([H:6])([H:7])[H:8].[C:2](=[C:3]=[O:4])([H:9])[H:10]"
C       -1.18420896       0.21683377      -0.57444454
C        0.01647716      -0.60172454       1.26858432
C        1.00239033       0.26158963       0.75131306
O        1.33359469       1.38044580       1.03655555
N        0.93796116       0.01178895      -0.93228643
H       -1.95973984      -0.46837000      -0.24678196
H       -1.29951739       1.21026468      -0.14722885
H       -1.33737916       0.32716625      -1.64719343
H        0.00130224      -1.60907436       0.86595223
H       -0.13646133      -0.57112189       2.34079140
H        1.18319203      -0.89718101      -1.29684392
H        1.44238909       0.73938270      -1.41841742
12
Frame=10 idx=001894 GeodesicLength=0.7483259241405426 rxn_smarts="[C:1]([C:2]([C:3](=[O:4])[N:5]([H:11])[H:12])([H:9])[H:10])([H:6])([H:7])[H:8]>>[C:1]([N:5]([H:11])[H:12])([H:6])([H:7])[H:8].[C:2](=[C:3]=[O:4])([H:9])[H:10]"
C       -1.17947467       0.21225820      -0.56875849
C        0.01176947      -0.59443525       1.26868912
C        1.01620127       0.26141077       0.76941099
O        1.32733386       1.38796257       1.03989099
N        0.94706124       0.00578218      -0.94171235
H       -1.96531346      -0.47208068      -0.26077063
H       -1.30959476       1.20310716      -0.13767179
H       -1.34688113       0.34220051      -1.63831446
H        0.01085158      -1.60457363       0.87175918
H       -0.14709964      -0.56952647       2.34031080
H        1.18148854      -0.90275371      -1.31372113
H        1.45365772       0.73064835      -1.42911224
12
Frame=11 idx=001894 GeodesicLength=0.8230793300766984 rxn_smarts="[C:1]([C:2]([C:3](=[O:4])[N:5]([H:11])[H:12])([H:9])[H:10])([H:6])([H:7])[H:8]>>[C:1]([N:5]([H:11])[H:12])([H:6])([H:7])[H:8].[C:2](=[C:3]=[O:4])([H:9])[H:10]"
C       -1.17479956       0.20771971      -0.56312560
C        0.00740905      -0.58718418       1.26868916
C        1.02975457       0.26158609       0.78821065
O        1.32127713       1.39531273       1.04313432
N        0.95613758      -0.00036176      -0.95131218
H       -1.97053623      -0.47553477      -0.27478286
H       -1.31988232       1.19568268      -0.12803244
H       -1.35619459       0.35705973      -1.62902242
H        0.02056947      -1.59990249       0.87753429
H       -0.15822954      -0.56788094       2.33951466
H        1.17953466      -0.90827211      -1.33091309
H        1.46495978       0.72177532      -1.43989450
12
Frame=12 idx=001894 GeodesicLength=0.8978284012917805 rxn_smarts="[C:1]([C:2]([C:3](=[O:4])[N:5]([H:11])[H:12])([H:9])[H:10])([H:6])([H:7])[H:8]>>[C:1]([N:5]([H:11])[H:12])([H:6])([H:7])[H:8].[C:2](=[C:3]=[O:4])([H:9])[H:10]"
C       -1.17018247       0.20323280      -0.55754231
C        0.00338012      -0.57996245       1.26859119
C        1.04303310       0.26213355       0.80775009
O        1.31540869       1.40252295       1.04627905
N        0.96518643      -0.00665999      -0.96109573
H       -1.97539807      -0.47874804      -0.28882794
H       -1.33037472       1.18799195      -0.11830051
H       -1.36530041       0.37175546      -1.61933374
H        0.03046662      -1.59505472       0.88327435
H       -0.16982243      -0.56621083       2.33841460
H        1.17729580      -0.91374133      -1.34844273
H        1.47630734       0.71274065      -1.45076632
12
Frame=13 idx=001894 GeodesicLength=0.9725756333553989 rxn_smarts="[C:1]([C:2]([C:3](=[O:4])[N:5]([H:11])[H:12])([H:9])[H:10])([H:6])([H:7])[H:8]>>[C:1]([N:5]([H:11])[H:12])([H:6])([H:7])[H:8].[C:2](=[C:3]=[O:4])([H:9])[H:10]"
C       -1.16562069       0.19881126      -0.55200389
C       -0.00032753      -0.57276507       1.26839898
C        1.05601964       0.26307008       0.82806969
O        1.30972126       1.40961216       1.04931889
N        0.97420493      -0.01312800      -0.97107452
H       -1.97989575      -0.48173876      -0.30290126
H       -1.34106715       1.18003602      -0.10846241
H       -1.37417948       0.38629603      -1.60926660
H        0.04056008      -1.59002726       0.88897383
H       -0.18186947      -0.56452826       2.33701209
H        1.17474295      -0.91916390      -1.36633610
H        1.48771122       0.70352569      -1.46172870
12
Frame=14 idx=001894 GeodesicLength=1.0473218980851473 rxn_smarts="[C:1]([C:2]([C:3](=[O:4])[N:5]([H:11])[H:12])([H:9])[H:10])([H:6])([H:7])[H:8]>>[C:1]([N:5]([H:11])[H:12])([H:6])([H:7])[H:8].[C:2](=[C:3]=[O:4])([H:9])[H:10]"
C       -1.16111182       0.19446952      -0.54650269
C       -0.00372242      -0.56558115       1.26811867
C        1.06869382       0.26441894       0.84921394
O        1.30420303       1.41660112       1.05224428
N        0.98318891      -0.01978609      -0.98125885
H       -1.98401102      -0.48452508      -0.31701797
H       -1.35195698       1.17181079      -0.09850576
H       -1.38281582       0.40069871      -1.59883093
H        0.05086788      -1.58480977       0.89463358
H       -0.19435578      -0.56285808       2.33531021
H        1.17183587      -0.92454210      -1.38462102
H        1.49918435       0.69410320      -1.47278348
12
Frame=15 idx=001894 GeodesicLength=1.1220708966530224 rxn_smarts="[C:1]([C:2]([C:3](=[O:4])[N:5]([H:11])[H:12])([H:9])[H:10])([H:6])([H:7])[H:8]>>[C:1]([N:5]([H:11])[H:12])([H:6])([H:7])[H:8].[C:2](=[C:3]=[O:4])([H:9])[H:10]"
C       -1.15665025       0.19021856      -0.54102913
C       -0.00680636      -0.55840567       1.26775379
C        1.08103617       0.26620184       0.87123081
O        1.29885499       1.42350128       1.05504694
N        0.99213478      -0.02665186      -0.99166197
H       -1.98773445      -0.48712620      -0.33117558
H       -1.36304054       1.16331220      -0.08841362
H       -1.39119488       0.41497499      -1.58803648
H        0.06141857      -1.57939738       0.90025007
H       -0.20729660      -0.56120542       2.33329647
H        1.16854131      -0.92987457      -1.40332873
H        1.51073726       0.68445223      -1.48393257
12
Frame=16 idx=001894 GeodesicLength=1.1968222936697996 rxn_smarts="[C:1]([C:2]([C:3](=[O:4])[N:5]([H:11])[H:12])([H:9])[H:10])([H:6])([H:7])[H:8]>>[C:1]([N:5]([H:11])[H:12])([H:6])([H:7])[H:8].[C:2](=[C:3]=[O:4])([H:9])[H:10]"
C       -1.15223115       0.18607081      -0.53557401
C       -0.00958162      -0.55123014       1.26730747
C        1.09302129       0.26844552       0.89417127
O        1.29367552       1.43032431       1.05771652
N        1.00103814      -0.03374615      -1.00229675
H       -1.99105184      -0.48955951      -0.34538158
H       -1.37431565       1.15453566      -0.07817287
H       -1.39930362       0.42913905      -1.57689133
H        0.07224021      -1.57377989       0.90582311
H       -0.22069529      -0.55958787       2.33096587
H        1.16482122      -0.93515834      -1.42249094
H        1.52238279       0.67454655      -1.49517676
