15
Frame=0 idx=009923 GeodesicLength=0.0 rxn_smarts="[N:1]([C@@:2]([C:3]([C:4]([O:5][H:15])([H:13])[H:14])([H:11])[H:12])([C:6]#[N:7])[H:10])([H:8])[H:9]>>[H:9][H:12].[N:1](=[C:2](\[C@:3]([C:4]([O:5][H:15])([H:13])[H:14])([C:6]#[N:7])[H:11])[H:10])\[H:8]"
N       -2.11783967      -0.58313696       0.59745057
C       -0.88361091      -0.01908641       0.60167010
C        0.09944914      -0.20783846      -0.48629516
C        1.55954476       0.10444134      -0.38445867
O        2.00003109       0.37291719       0.91651129
C       -0.83575758       1.44021670       0.08615433
N       -0.88533339       2.56279148      -0.16891615
H       -2.47669637      -0.64151333      -0.35543213
H       -1.12498330      -2.03659037       0.09499508
H       -0.40218155       0.00382526       1.58152228
H       -0.30639709      -0.31302550      -1.48935804
H       -0.41356554      -2.10839524      -0.27589640
H        1.81891377       0.90876569      -1.08283146
H        2.08280974      -0.79095868      -0.73789786
H        1.88561696       1.30758729       1.10278217
15
Frame=1 idx=009923 GeodesicLength=0.10611060448305008 rxn_smarts="[N:1]([C@@:2]([C:3]([C:4]([O:5][H:15])([H:13])[H:14])([H:11])[H:12])([C:6]#[N:7])[H:10])([H:8])[H:9]>>[H:9][H:12].[N:1](=[C:2](\[C@:3]([C:4]([O:5][H:15])([H:13])[H:14])([C:6]#[N:7])[H:11])[H:10])\[H:8]"
N       -2.11426473      -0.59887404       0.59204022
C       -0.88942566      -0.01532833       0.60402654
C        0.09328261      -0.20099764      -0.48744395
C        1.55550074       0.10479813      -0.38408465
O        1.99820887       0.35977139       0.91923056
C       -0.82890290       1.45203578       0.06996610
N       -0.88320726       2.57731127      -0.17060349
H       -2.47429712      -0.66279090      -0.35980954
H       -1.13442318      -2.04488649       0.10935864
H       -0.40913917       0.01214469       1.58431884
H       -0.31084488      -0.30542881      -1.49132358
H       -0.40021115      -2.10213251      -0.27089519
H        1.81430788       0.91593312      -1.07485738
H        2.07599089      -0.78814801      -0.74718143
H        1.90742508       1.29659236       1.10725831
15
Frame=2 idx=009923 GeodesicLength=0.21225509183950358 rxn_smarts="[N:1]([C@@:2]([C:3]([C:4]([O:5][H:15])([H:13])[H:14])([H:11])[H:12])([C:6]#[N:7])[H:10])([H:8])[H:9]>>[H:9][H:12].[N:1](=[C:2](\[C@:3]([C:4]([O:5][H:15])([H:13])[H:14])([C:6]#[N:7])[H:11])[H:10])\[H:8]"
N       -2.11062047      -0.61454220       0.58663386
C       -0.89559868      -0.01143130       0.60612683
C        0.08693809      -0.19396201      -0.48870067
C        1.55127575       0.10524517      -0.38372341
O        1.99596655       0.34656038       0.92190068
C       -0.82184072       1.46411701       0.05366006
N       -0.88067959       2.59196842      -0.17209564
H       -2.47163653      -0.68462280      -0.36417846
H       -1.14381233      -2.05350765       0.12478543
H       -0.41645631       0.02050986       1.58686025
H       -0.31543056      -0.29767199      -1.49340567
H       -0.38630046      -2.09559666      -0.26631480
H        1.80976209       0.92309505      -1.06676268
H        2.06900251      -0.78514291      -0.75642662
H        1.92943066       1.28498161       1.11164085
15
Frame=3 idx=009923 GeodesicLength=0.31841705267669396 rxn_smarts="[N:1]([C@@:2]([C:3]([C:4]([O:5][H:15])([H:13])[H:14])([H:11])[H:12])([C:6]#[N:7])[H:10])([H:8])[H:9]>>[H:9][H:12].[N:1](=[C:2](\[C@:3]([C:4]([O:5][H:15])([H:13])[H:14])([C:6]#[N:7])[H:11])[H:10])\[H:8]"
N       -2.10691212      -0.63013147       0.58122127
C       -0.90212979      -0.00741704       0.60797135
C        0.08041962      -0.18673230      -0.49006298
C        1.54687090       0.10579534      -0.38337430
O        1.99329699       0.33330730       0.92451980
C       -0.81455498       1.47645624       0.03725908
N       -0.87774562       2.60674030      -0.17341469
H       -2.46867825      -0.70702106      -0.36855143
H       -1.15323549      -2.06246089       0.14134107
H       -0.42413397       0.02889944       1.58914835
H       -0.32015317      -0.28973938      -1.49560230
H       -0.37181276      -2.08876943      -0.26219205
H        1.80527257       0.93026159      -1.05855034
H        2.06185886      -0.78192477      -0.76563010
H        1.95163721       1.27273611       1.11591726
15
Frame=4 idx=009923 GeodesicLength=0.42457915574949007 rxn_smarts="[N:1]([C@@:2]([C:3]([C:4]([O:5][H:15])([H:13])[H:14])([H:11])[H:12])([C:6]#[N:7])[H:10])([H:8])[H:9]>>[H:9][H:12].[N:1](=[C:2](\[C@:3]([C:4]([O:5][H:15])([H:13])[H:14])([C:6]#[N:7])[H:11])[H:10])\[H:8]"
N       -2.10314634      -0.64563169       0.57578801
C       -0.90901776      -0.00330997       0.60955980
C        0.07373236      -0.17930957      -0.49152886
C        1.54228826       0.10646258      -0.38303677
O        1.99019340       0.32003971       0.92708590
C       -0.80703037       1.48904747       0.02078648
N       -0.87439836       2.62160555      -0.17457701
H       -2.46538140      -0.73000037      -0.37294561
H       -1.16278626      -2.07175653       0.15910992
H       -0.43217349       0.03728982       1.59118480
H       -0.32500994      -0.28161476      -1.49791195
H       -0.35673108      -2.08163000      -0.25857457
H        1.80083581       0.93744310      -1.05022452
H        2.05457632      -0.77847422      -0.77478703
H        1.97404885       1.25983888       1.12007141
15
Frame=5 idx=009923 GeodesicLength=0.5307204078715255 rxn_smarts="[N:1]([C@@:2]([C:3]([C:4]([O:5][H:15])([H:13])[H:14])([H:11])[H:12])([C:6]#[N:7])[H:10])([H:8])[H:9]>>[H:9][H:12].[N:1](=[C:2](\[C@:3]([C:4]([O:5][H:15])([H:13])[H:14])([C:6]#[N:7])[H:11])[H:10])\[H:8]"
N       -2.09933151      -0.66103226       0.57031462
C       -0.91626021       0.00086374       0.61088996
C        0.06688240      -0.17169491      -0.49309803
C        1.53753098       0.10726351      -0.38271187
O        1.98665163       0.30678412       0.92959600
C       -0.79925373       1.50188339       0.00426237
N       -0.87062680       2.63654453      -0.17559485
H       -2.46169887      -0.75358174      -0.37738199
H       -1.17256663      -2.08140086       0.17820269
H       -0.44057665       0.04565751       1.59296991
H       -0.32999680      -0.27328279      -1.50033544
H       -0.34104154      -2.07416007      -0.25551867
H        1.79644799       0.94465549      -1.04178814
H        2.04717337      -0.77476704      -0.78389780
H        1.99666636       1.24626737       1.12409122
15
Frame=6 idx=009923 GeodesicLength=0.636823762805887 rxn_smarts="[N:1]([C@@:2]([C:3]([C:4]([O:5][H:15])([H:13])[H:14])([H:11])[H:12])([C:6]#[N:7])[H:10])([H:8])[H:9]>>[H:9][H:12].[N:1](=[C:2](\[C@:3]([C:4]([O:5][H:15])([H:13])[H:14])([C:6]#[N:7])[H:11])[H:10])\[H:8]"
N       -2.09547790      -0.67632192       0.56477613
C       -0.92385289       0.00507403       0.61195882
C        0.05987786      -0.16388992      -0.49477060
C        1.53260405       0.10821549      -0.38240037
O        1.98266806       0.29357519       0.93204703
C       -0.79121243       1.51495422      -0.01229161
N       -0.86641873       2.65153829      -0.17647050
H       -2.45757702      -0.77778966      -0.38188827
H       -1.18269570      -2.09140559       0.19875390
H       -0.44934503       0.05397449       1.59450382
H       -0.33510650      -0.26472652      -1.50287396
H       -0.32473394      -2.06633665      -0.25309643
H        1.79210667       0.95191284      -1.03324699
H        2.03967177      -0.77077965      -0.79295818
H        2.01949171       1.23200537       1.12795720
15
Frame=7 idx=009923 GeodesicLength=0.7428866317084439 rxn_smarts="[N:1]([C@@:2]([C:3]([C:4]([O:5][H:15])([H:13])[H:14])([H:11])[H:12])([C:6]#[N:7])[H:10])([H:8])[H:9]>>[H:9][H:12].[N:1](=[C:2](\[C@:3]([C:4]([O:5][H:15])([H:13])[H:14])([C:6]#[N:7])[H:11])[H:10])\[H:8]"
N       -2.09159822      -0.69148799       0.55914035
C       -0.93178968       0.00928786       0.61276069
C        0.05272869      -0.15589672      -0.49654867
C        1.52751399       0.10933932      -0.38210512
O        1.97824189       0.28044826       0.93443426
C       -0.78289621       1.52824813      -0.02885691
N       -0.86175661       2.66656887      -0.17719734
H       -2.45295359      -0.80265630      -0.38649819
H       -1.19331609      -2.10177930       0.22092912
H       -0.45848038       0.06221074       1.59578460
H       -0.34032911      -0.25593066      -1.50553107
H       -0.30779405      -2.05813841      -0.25138764
H        1.78780862       0.95923536      -1.02460625
H        2.03209681      -0.76648233      -0.80196958
H        2.04252393       1.21703316       1.13165177
15
Frame=8 idx=009923 GeodesicLength=0.8489067311186572 rxn_smarts="[N:1]([C@@:2]([C:3]([C:4]([O:5][H:15])([H:13])[H:14])([H:11])[H:12])([C:6]#[N:7])[H:10])([H:8])[H:9]>>[H:9][H:12].[N:1](=[C:2](\[C@:3]([C:4]([O:5][H:15])([H:13])[H:14])([C:6]#[N:7])[H:11])[H:10])\[H:8]"
N       -2.08770824      -0.70651698       0.55336642
C       -0.94006237       0.01346840       0.61328704
C        0.04544699      -0.14771732      -0.49843687
C        1.52226963       0.11065871      -0.38183012
O        1.97337487       0.26744236       0.93675231
C       -0.77429749       1.54175133      -0.04541671
N       -0.85661788       2.68161894      -0.17775775
H       -2.44775388      -0.82822630      -0.39125383
H       -1.20459233      -2.11252746       0.24494043
H       -0.46798460       0.07033239       1.59680846
H       -0.34565132      -0.24687789      -1.50831362
H       -0.29021387      -2.04954357      -0.25049592
H        1.78355191       0.96664714      -1.01587154
H        2.02447809      -0.76184134      -0.81093478
H        2.06576048       1.20133159       1.13515648
15
Frame=9 idx=009923 GeodesicLength=0.9549286218905855 rxn_smarts="[N:1]([C@@:2]([C:3]([C:4]([O:5][H:15])([H:13])[H:14])([H:11])[H:12])([C:6]#[N:7])[H:10])([H:8])[H:9]>>[H:9][H:12].[N:1](=[C:2](\[C@:3]([C:4]([O:5][H:15])([H:13])[H:14])([C:6]#[N:7])[H:11])[H:10])\[H:8]"
N       -2.08382515      -0.72139468       0.54740211
C       -0.94865881       0.01757313       0.61352519
C        0.03804817      -0.13935441      -0.50044256
C        1.51688175       0.11220213      -0.38158153
O        1.96807127       0.25459987       0.93899330
C       -0.76541164       1.55544702      -0.06195621
N       -0.85097276       2.69667029      -0.17812138
H       -2.44188561      -0.85455785      -0.39620262
H       -1.21674044      -2.12364721       0.27104519
H       -0.47785854       0.07829929       1.59756779
H       -0.35105526      -0.23755091      -1.51123120
H       -0.27197234      -2.04053300      -0.25054129
H        1.77933321       0.97417971      -1.00704769
H        2.01685023      -0.75681500      -0.81986115
H        2.08919593       1.18488160       1.13845205
15
Frame=10 idx=009923 GeodesicLength=1.060941126115661 rxn_smarts="[N:1]([C@@:2]([C:3]([C:4]([O:5][H:15])([H:13])[H:14])([H:11])[H:12])([C:6]#[N:7])[H:10])([H:8])[H:9]>>[H:9][H:12].[N:1](=[C:2](\[C@:3]([C:4]([O:5][H:15])([H:13])[H:14])([C:6]#[N:7])[H:11])[H:10])\[H:8]"
N       -2.07997241      -0.73610470       0.54118370
C       -0.95756467       0.02155528       0.61345900
C        0.03055074      -0.13080923      -0.50257715
C        1.51136561       0.11400093      -0.38136729
O        1.96234004       0.24196775       0.94114900
C       -0.75623616       1.56931739      -0.07846041
N       -0.84478859       2.71170468      -0.17824270
H       -2.43523921      -0.88173166      -0.40140915
H       -1.22999645      -2.13513238       0.29957183
H       -0.48810308       0.08606447       1.59805358
H       -0.35651812      -0.22792634      -1.51429920
H       -0.25306964      -2.03108246      -0.25168065
H        1.77515379       0.98186789      -0.99814093
H        2.00925462      -0.75135756      -0.82875757
H        2.11282352       1.16766595       1.14151793
15
Frame=11 idx=009923 GeodesicLength=1.1669675691835155 rxn_smarts="[N:1]([C@@:2]([C:3]([C:4]([O:5][H:15])([H:13])[H:14])([H:11])[H:12])([C:6]#[N:7])[H:10])([H:8])[H:9]>>[H:9][H:12].[N:1](=[C:2](\[C@:3]([C:4]([O:5][H:15])([H:13])[H:14])([C:6]#[N:7])[H:11])[H:10])\[H:8]"
N       -2.07617450      -0.75063288       0.53463106
C       -0.96676048       0.02536014       0.61306603
C        0.02297758      -0.12208246      -0.50485706
C        1.50573969       0.11609316      -0.38119851
O        1.95619418       0.22959494       0.94320804
C       -0.74677316       1.58334195      -0.09491576
N       -0.83802473       2.72670155      -0.17806068
H       -2.42767555      -0.90985499      -0.40694488
H       -1.24466881      -2.14695530       0.33091762
H       -0.49871734       0.09357098       1.59825136
H       -0.36201124      -0.21797742      -1.51753859
H       -0.23349373      -2.02117213      -0.25409729
H        1.77101441       0.98975776      -0.98915534
H        2.00173964      -0.74541181      -0.83764038
H        2.13663404       1.14966652       1.14433434
15
Frame=12 idx=009923 GeodesicLength=1.2730323385128972 rxn_smarts="[N:1]([C@@:2]([C:3]([C:4]([O:5][H:15])([H:13])[H:14])([H:11])[H:12])([C:6]#[N:7])[H:10])([H:8])[H:9]>>[H:9][H:12].[N:1](=[C:2](\[C@:3]([C:4]([O:5][H:15])([H:13])[H:14])([C:6]#[N:7])[H:11])[H:10])\[H:8]"
N       -2.07245734      -0.76496733       0.52764524
C       -0.97621998       0.02892259       0.61231783
C        0.01535811      -0.11317455      -0.50730395
C        1.50002790       0.11852326      -0.38108956
O        1.94965250       0.21753712       0.94515554
C       -0.73702806       1.59749670      -0.11130637
N       -0.83063718       2.74163587      -0.17749405
H       -2.41902324      -0.93906666      -0.41289200
H       -1.26115307      -2.15906505       0.36555692
H       -0.50969697       0.10074723       1.59814191
H       -0.36749736      -0.20767236      -1.52097611
H       -0.21322366      -2.01078098      -0.25800694
H        1.76691709       0.99790414      -0.98009531
H        1.99436387      -0.73890995      -0.84653105
H        2.16061739       1.13086996       1.14687790
15
Frame=13 idx=009923 GeodesicLength=1.3791410959860841 rxn_smarts="[N:1]([C@@:2]([C:3]([C:4]([O:5][H:15])([H:13])[H:14])([H:11])[H:12])([C:6]#[N:7])[H:10])([H:8])[H:9]>>[H:9][H:12].[N:1](=[C:2](\[C@:3]([C:4]([O:5][H:15])([H:13])[H:14])([C:6]#[N:7])[H:11])[H:10])\[H:8]"
N       -2.06884741      -0.77910320       0.52010460
C       -0.98590963       0.03216581       0.61117715
C        0.00772861      -0.10408333      -0.50994893
C        1.49426168       0.12134525      -0.38106078
O        1.94274403       0.20584434       0.94697218
C       -0.72701280       1.61175534      -0.12761653
N       -0.82258066       2.75647728      -0.17644680
H       -2.40906346      -0.96955753      -0.41934037
H       -1.27994376      -2.17136050       0.40407408
H       -0.52103380       0.10750659       1.59769953
H       -0.37293120      -0.19697011      -1.52465013
H       -0.19223626      -1.99989086      -0.26367138
H        1.76286759       1.00638068      -0.97095957
H        1.98719817      -0.73176494      -0.85546800
H        2.18475888       1.11125518       1.14913494
15
Frame=14 idx=009923 GeodesicLength=1.4853175225489466 rxn_smarts="[N:1]([C@@:2]([C:3]([C:4]([O:5][H:15])([H:13])[H:14])([H:11])[H:12])([C:6]#[N:7])[H:10])([H:8])[H:9]>>[H:9][H:12].[N:1](=[C:2](\[C@:3]([C:4]([O:5][H:15])([H:13])[H:14])([C:6]#[N:7])[H:11])[H:10])\[H:8]"
N       -2.06536707      -0.79304582       0.51185721
C       -0.99578186       0.03499045       0.60959801
C        0.00013748      -0.09480863      -0.51282994
C        1.48848105       0.12462442      -0.38113784
O        1.93550673       0.19458325       0.94863060
C       -0.71674235       1.62608303      -0.14382017
N       -0.81380582       2.77118293      -0.17479008
H       -2.39752100      -1.00157179      -0.42638498
H       -1.30171839      -2.18368414       0.44714647
H       -0.53270979       0.11373033       1.59689050
H       -0.37825345      -0.18582367      -1.52860497
H       -0.17047319      -1.98848210      -0.27138884
H        1.75887069       1.01527455      -0.96174941
H        1.98033058      -0.72387135      -0.86449500
H        2.20904638       1.09081855       1.15107843
15
Frame=15 idx=009923 GeodesicLength=1.5915716054066127 rxn_smarts="[N:1]([C@@:2]([C:3]([C:4]([O:5][H:15])([H:13])[H:14])([H:11])[H:12])([C:6]#[N:7])[H:10])([H:8])[H:9]>>[H:9][H:12].[N:1](=[C:2](\[C@:3]([C:4]([O:5][H:15])([H:13])[H:14])([C:6]#[N:7])[H:11])[H:10])\[H:8]"
N       -2.06203426      -0.80681753       0.50271244
C       -1.00577528       0.03727185       0.60752181
C       -0.00735359      -0.08534744      -0.51599900
C        1.48273992       0.12844173      -0.38135664
O        1.92799549       0.18381712       0.95009449
C       -0.70624064       1.64043901      -0.15988083
N       -0.80427052       2.78569702      -0.17236903
H       -2.38403382      -1.03544940      -0.43412502
H       -1.32736518      -2.19577740       0.49560826
H       -0.54469719       0.11926450       1.59567217
H       -0.38339142      -0.17416956      -1.53290104
H       -0.14785393      -1.97653105      -0.28152300
H        1.75493616       1.02470090      -0.95246054
H        1.97387264      -0.71509233      -0.87368049
H        2.23347161       1.06955257       1.15268641
15
Frame=16 idx=009923 GeodesicLength=1.6979321126115656 rxn_smarts="[N:1]([C@@:2]([C:3]([C:4]([O:5][H:15])([H:13])[H:14])([H:11])[H:12])([C:6]#[N:7])[H:10])([H:8])[H:9]>>[H:9][H:12].[N:1](=[C:2](\[C@:3]([C:4]([O:5][H:15])([H:13])[H:14])([C:6]#[N:7])[H:11])[H:10])\[H:8]"
N       -2.05885141      -0.82046724       0.49242464
C       -1.01580286       0.03884278       0.60487488
C       -0.01466169      -0.07569986      -0.51952203
C        1.47710787       0.13290041      -0.38176688
O        1.92028385       0.17362420       0.95130988
C       -0.69553810       1.65476847      -0.17573857
N       -0.79394059       2.79994086      -0.16897828
H       -2.36812046      -1.07165161      -0.44265256
H       -1.35812339      -2.20723340       0.55044414
H       -0.55694758       0.12389433       1.59398850
H       -0.38825160      -0.16193288      -1.53761101
H       -0.12422911      -1.96401031      -0.29448742
H        1.75107029       1.03480822      -0.94308863
H        1.96796610      -0.70525024      -0.88311719
H        2.25803868       1.04746627       1.15392054
