19
Frame=0 idx=011005 GeodesicLength=0.0 rxn_smarts="[C:1]([C@@:2]1([H:11])[C:3]([H:12])([H:13])[O:4][C@:5]([C:6]([H:15])([H:16])[H:17])([H:14])[C:7]1([H:18])[H:19])([H:8])([H:9])[H:10]>>[C:1]([C:2](=[C:3]([H:12])[H:13])[C:7]([C@@:5]([O:4][H:11])([C:6]([H:15])([H:16])[H:17])[H:14])([H:18])[H:19])([H:8])([H:9])[H:10]"
C       -2.49290052       0.31825218       0.46357544
C       -1.07784860       0.04864353       0.03390361
C       -0.72533180      -0.67747224      -1.12087093
O        0.67855583      -1.49852558       0.05234273
C        1.26972697      -0.30028470       0.48212970
C        2.45269476       0.09278078      -0.38318563
C        0.12616165       0.80850188       0.51603294
H       -3.16294654      -0.48391062       0.14533236
H       -2.87572427       1.25137553       0.04061467
H       -2.56053917       0.39986560       1.54989926
H       -0.55187993      -1.09831170       0.44154095
H       -1.39907026      -1.44687190      -1.48929205
H        0.05604987      -0.38980910      -1.81508021
H        1.61968720      -0.45146848       1.50937642
H        3.19503597      -0.70594611      -0.39126084
H        2.91970756       1.00497228      -0.00339962
H        2.14673406       0.27734912      -1.41612051
H        0.40347989       1.64170686      -0.13633724
H       -0.02159260       1.20915261       1.52079889
19
Frame=1 idx=011005 GeodesicLength=0.07605873122835491 rxn_smarts="[C:1]([C@@:2]1([H:11])[C:3]([H:12])([H:13])[O:4][C@:5]([C:6]([H:15])([H:16])[H:17])([H:14])[C:7]1([H:18])[H:19])([H:8])([H:9])[H:10]>>[C:1]([C:2](=[C:3]([H:12])[H:13])[C:7]([C@@:5]([O:4][H:11])([C:6]([H:15])([H:16])[H:17])[H:14])([H:18])[H:19])([H:8])([H:9])[H:10]"
C       -2.49230222       0.33453695       0.44839968
C       -1.07674474       0.02838471       0.04755627
C       -0.72802328      -0.69651673      -1.11020536
O        0.69507975      -1.50401394       0.04866153
C        1.27816069      -0.30049844       0.48061411
C        2.45067769       0.10642778      -0.39136803
C        0.12543133       0.79190518       0.53151955
H       -3.17542877      -0.45331540       0.12263280
H       -2.84397321       1.27415155       0.01289213
H       -2.57766805       0.42561316       1.53281941
H       -0.54107330      -1.12915619       0.47348148
H       -1.40651136      -1.46193234      -1.47862340
H        0.04191595      -0.40495153      -1.81515054
H        1.63805101      -0.45542970       1.50413744
H        3.19827080      -0.68715112      -0.41134269
H        2.91437419       1.01881205      -0.00806045
H        2.13515055       0.29800412      -1.41989045
H        0.38463788       1.63818502      -0.11103314
H       -0.02002492       1.17694487       1.54295969
19
Frame=2 idx=011005 GeodesicLength=0.15204837065996563 rxn_smarts="[C:1]([C@@:2]1([H:11])[C:3]([H:12])([H:13])[O:4][C@:5]([C:6]([H:15])([H:16])[H:17])([H:14])[C:7]1([H:18])[H:19])([H:8])([H:9])[H:10]>>[C:1]([C:2](=[C:3]([H:12])[H:13])[C:7]([C@@:5]([O:4][H:11])([C:6]([H:15])([H:16])[H:17])[H:14])([H:18])[H:19])([H:8])([H:9])[H:10]"
C       -2.49076158       0.35068653       0.43305035
C       -1.07598148       0.00816029       0.06126683
C       -0.73090837      -0.71525034      -1.09968144
O        0.71094681      -1.50917040       0.04490732
C        1.28609005      -0.30054479       0.47911136
C        2.44802777       0.12006504      -0.39938460
C        0.12455003       0.77533970       0.54688255
H       -3.18643845      -0.42276936       0.09972640
H       -2.81115451       1.29575978      -0.01464110
H       -2.59348943       0.45180369       1.51516965
H       -0.52958763      -1.15997421       0.50573023
H       -1.41411576      -1.47668922      -1.46806490
H        0.02755460      -0.42008563      -1.81516023
H        1.65587932      -0.45909977       1.49881721
H        3.20064004      -0.66833918      -0.43126916
H        2.90854910       1.03254624      -0.01255756
H        2.12291249       0.31856364      -1.42334843
H        0.36580521       1.63434705      -0.08532500
H       -0.01851820       1.14465094       1.56477053
19
Frame=3 idx=011005 GeodesicLength=0.22798411800523577 rxn_smarts="[C:1]([C@@:2]1([H:11])[C:3]([H:12])([H:13])[O:4][C@:5]([C:6]([H:15])([H:16])[H:17])([H:14])[C:7]1([H:18])[H:19])([H:8])([H:9])[H:10]>>[C:1]([C:2](=[C:3]([H:12])[H:13])[C:7]([C@@:5]([O:4][H:11])([C:6]([H:15])([H:16])[H:17])[H:14])([H:18])[H:19])([H:8])([H:9])[H:10]"
C       -2.48829196       0.36666107       0.41756172
C       -1.07556760      -0.01197120       0.07498007
C       -0.73398791      -0.73363998      -1.08933512
O        0.72612873      -1.51398747       0.04108962
C        1.29350057      -0.30041527       0.47762294
C        2.44476022       0.13366876      -0.40722001
C        0.12351589       0.75883737       0.56208689
H       -3.19599044      -0.39233010       0.07666346
H       -2.77735917       1.31617706      -0.04192225
H       -2.60795932       0.47834912       1.49699610
H       -0.51740942      -1.19071764       0.53827772
H       -1.42188386      -1.49110912      -1.45765032
H        0.01299288      -0.43520074      -1.81513330
H        1.67313481      -0.46246472       1.49342767
H        3.20214815      -0.64954961      -0.45099834
H        2.90225639       1.04615104      -0.01688129
H        2.11006182       0.33899878      -1.42648815
H        0.34702411       1.63021189      -0.05926066
H       -0.01707389       1.11233075       1.58618327
19
Frame=4 idx=011005 GeodesicLength=0.30387890773637694 rxn_smarts="[C:1]([C@@:2]1([H:11])[C:3]([H:12])([H:13])[O:4][C@:5]([C:6]([H:15])([H:16])[H:17])([H:14])[C:7]1([H:18])[H:19])([H:8])([H:9])[H:10]>>[C:1]([C:2](=[C:3]([H:12])[H:13])[C:7]([C@@:5]([O:4][H:11])([C:6]([H:15])([H:16])[H:17])[H:14])([H:18])[H:19])([H:8])([H:9])[H:10]"
C       -2.48491362       0.38241844       0.40197377
C       -1.07550862      -0.03194731       0.08863661
C       -0.73726216      -0.75165066      -1.07920517
O        0.74059712      -1.51845764       0.03722001
C        1.30038047      -0.30010092       0.47614963
C        2.44089557       0.14721251      -0.41485883
C        0.12232913       0.74243470       0.57709432
H       -3.20410590      -0.36205890       0.05348571
H       -2.74269414       1.33538983      -0.06887755
H       -2.62104089       0.50514587       1.47835551
H       -0.50452516      -1.22133246       0.57111766
H       -1.42981585      -1.50515706      -1.44741465
H       -0.00173758      -0.45028738      -1.81509738
H        1.68978021      -0.46551032       1.48798153
H        3.20280427      -0.63082838      -0.47048394
H        2.89552609       1.05959999      -0.02102311
H        2.09664689       0.35927542      -1.42930563
H        0.32833873       1.62580305      -0.03289562
H       -0.01569457       1.08005121       1.60714714
19
Frame=5 idx=011005 GeodesicLength=0.379756863255523 rxn_smarts="[C:1]([C@@:2]1([H:11])[C:3]([H:12])([H:13])[O:4][C@:5]([C:6]([H:15])([H:16])[H:17])([H:14])[C:7]1([H:18])[H:19])([H:8])([H:9])[H:10]>>[C:1]([C:2](=[C:3]([H:12])[H:13])[C:7]([C@@:5]([O:4][H:11])([C:6]([H:15])([H:16])[H:17])[H:14])([H:18])[H:19])([H:8])([H:9])[H:10]"
C       -2.48065774       0.39792180       0.38632302
C       -1.07580682      -0.05170066       0.10217216
C       -0.74072847      -0.76925232      -1.06932828
O        0.75432540      -1.52257667       0.03331361
C        1.30672066      -0.29959571       0.47469419
C        2.43645734       0.16067071      -0.42228920
C        0.12099180       0.72616715       0.59186972
H       -3.21082129      -0.33201552       0.03024124
H       -2.70726268       1.35338737      -0.09544264
H       -2.63271123       0.53209275       1.45930491
H       -0.49092638      -1.25176737       0.60424908
H       -1.43791104      -1.51880382      -1.43739224
H       -0.01660229      -0.46534031      -1.81508256
H        1.70578413      -0.46822454       1.48249325
H        3.20262294      -0.61221862      -0.48969174
H        2.88839144       1.07286724      -0.02497754
H        2.08271923       0.37936828      -1.43179787
H        0.30979786       1.62114780      -0.00627873
H       -0.01438284       1.04787245       1.62761962
19
Frame=6 idx=011005 GeodesicLength=0.455624278301637 rxn_smarts="[C:1]([C@@:2]1([H:11])[C:3]([H:12])([H:13])[O:4][C@:5]([C:6]([H:15])([H:16])[H:17])([H:14])[C:7]1([H:18])[H:19])([H:8])([H:9])[H:10]>>[C:1]([C:2](=[C:3]([H:12])[H:13])[C:7]([C@@:5]([O:4][H:11])([C:6]([H:15])([H:16])[H:17])[H:14])([H:18])[H:19])([H:8])([H:9])[H:10]"
C       -2.47555927       0.41313029       0.37064443
C       -1.07646254      -0.07116447       0.11552108
C       -0.74438387      -0.78640898      -1.05974760
O        0.76728728      -1.52634013       0.02938673
C        1.31251505      -0.29889320       0.47325676
C        2.43147390       0.17401281      -0.42949777
C        0.11950640       0.71007330       0.60637621
H       -3.21615503      -0.30226924       0.00698052
H       -2.67119906       1.37015980      -0.12152654
H       -2.64296181       0.55909469       1.43989975
H       -0.47659688      -1.28196017       0.63767186
H       -1.44616747      -1.53201181      -1.42762403
H       -0.03156052      -0.48034959      -1.81512259
H        1.72111844      -0.47059604       1.47697692
H        3.20161988      -0.59377425      -0.50857719
H        2.88089157       1.08592170      -0.02873918
H        2.06833502       0.39923928      -1.43396697
H        0.29144571       1.61627674       0.02053192
H       -0.01314681       1.01585926       1.64755569
19
Frame=7 idx=011005 GeodesicLength=0.5314935642405292 rxn_smarts="[C:1]([C@@:2]1([H:11])[C:3]([H:12])([H:13])[O:4][C@:5]([C:6]([H:15])([H:16])[H:17])([H:14])[C:7]1([H:18])[H:19])([H:8])([H:9])[H:10]>>[C:1]([C:2](=[C:3]([H:12])[H:13])[C:7]([C@@:5]([O:4][H:11])([C:6]([H:15])([H:16])[H:17])[H:14])([H:18])[H:19])([H:8])([H:9])[H:10]"
C       -2.46966336       0.42801250       0.35497656
C       -1.07747071      -0.09027388       0.12861991
C       -0.74822353      -0.80309369      -1.05049932
O        0.77946384      -1.52974866       0.02546018
C        1.31776225      -0.29798988       0.47183992
C        2.42597728       0.18721307      -0.43647740
C        0.11787813       0.69418837       0.62058195
H       -3.22016908      -0.27287575      -0.01626113
H       -2.63461780       1.38572144      -0.14706330
H       -2.65179796       0.58604391       1.42020817
H       -0.46151942      -1.31186085       0.67138851
H       -1.45458253      -1.54475478      -1.41814200
H       -0.04657194      -0.49531366      -1.81525010
H        1.73576278      -0.47261688       1.47144815
H        3.19982058      -0.57554165      -0.52710961
H        2.87306774       1.09873955      -0.03230930
H        2.05355102       0.41886231      -1.43581583
H        0.27332684       1.61122065       0.04748483
H       -0.01199411       0.98406788       1.66691981
19
Frame=8 idx=011005 GeodesicLength=0.6073731500124743 rxn_smarts="[C:1]([C@@:2]1([H:11])[C:3]([H:12])([H:13])[O:4][C@:5]([C:6]([H:15])([H:16])[H:17])([H:14])[C:7]1([H:18])[H:19])([H:8])([H:9])[H:10]>>[C:1]([C:2](=[C:3]([H:12])[H:13])[C:7]([C@@:5]([O:4][H:11])([C:6]([H:15])([H:16])[H:17])[H:14])([H:18])[H:19])([H:8])([H:9])[H:10]"
C       -2.46301595       0.44253900       0.33934893
C       -1.07882822      -0.10897125       0.14140924
C       -0.75224291      -0.81928213      -1.04161875
O        0.79083906      -1.53280638       0.02155413
C        1.32246449      -0.29688434       0.47044430
C        2.41999749       0.20024550      -0.44322293
C        0.11610990       0.67854261       0.63446089
H       -3.22289501      -0.24388315      -0.03944986
H       -2.59763911       1.40008362      -0.17197835
H       -2.65924265       0.61285011       1.40028162
H       -0.44566903      -1.34141419       0.70541389
H       -1.46315332      -1.55700658      -1.40898071
H       -0.06159783      -0.51022776      -1.81549707
H        1.74970529      -0.47428115       1.46592036
H        3.19724762      -0.55756749      -0.54526195
H        2.86495856       1.11129601      -0.03568985
H        2.03841774       0.43820998      -1.43735264
H        0.25547773       1.60601062       0.07453623
H       -0.01093385       0.95254695       1.68568252
19
Frame=9 idx=011005 GeodesicLength=0.6833400395091181 rxn_smarts="[C:1]([C@@:2]1([H:11])[C:3]([H:12])([H:13])[O:4][C@:5]([C:6]([H:15])([H:16])[H:17])([H:14])[C:7]1([H:18])[H:19])([H:8])([H:9])[H:10]>>[C:1]([C:2](=[C:3]([H:12])[H:13])[C:7]([C@@:5]([O:4][H:11])([C:6]([H:15])([H:16])[H:17])[H:14])([H:18])[H:19])([H:8])([H:9])[H:10]"
C       -2.45571346       0.45671011       0.32377937
C       -1.08049820      -0.12721018       0.15383549
C       -0.75641150      -0.83497369      -1.03312044
O        0.80142862      -1.53551861       0.01771113
C        1.32665924      -0.29557869       0.46907477
C        2.41357897       0.21309516      -0.44975031
C        0.11422923       0.66315058       0.64800939
H       -3.22448916      -0.21527022      -0.06263411
H       -2.56039922       1.41335030      -0.19617517
H       -2.66541226       0.63939782       1.38016151
H       -0.42899058      -1.37061955       0.73980062
H       -1.47187549      -1.56875558      -1.40015293
H       -0.07657322      -0.52512503      -1.81588141
H        1.76299711      -0.47557474       1.46040190
H        3.19393978      -0.53987786      -0.56304758
H        2.85660743       1.12357841      -0.03891722
H        2.02298162       0.45725695      -1.43860155
H        0.23793100       1.60065996       0.10166111
H       -0.00998991       0.92130485       1.70384542
19
Frame=10 idx=011005 GeodesicLength=0.759319839629225 rxn_smarts="[C:1]([C@@:2]1([H:11])[C:3]([H:12])([H:13])[O:4][C@:5]([C:6]([H:15])([H:16])[H:17])([H:14])[C:7]1([H:18])[H:19])([H:8])([H:9])[H:10]>>[C:1]([C:2](=[C:3]([H:12])[H:13])[C:7]([C@@:5]([O:4][H:11])([C:6]([H:15])([H:16])[H:17])[H:14])([H:18])[H:19])([H:8])([H:9])[H:10]"
C       -2.44777351       0.47050081       0.30829601
C       -1.08249232      -0.14495879       0.16586345
C       -0.76074357      -0.85014231      -1.02504071
O        0.81121276      -1.53789990       0.01393161
C        1.33032936      -0.29407601       0.46773196
C        2.40673938       0.22574128      -0.45604728
C        0.11221832       0.64803720       0.66120470
H       -3.22492469      -0.18710372      -0.08572782
H       -2.52296498       1.42550628      -0.21967526
H       -2.67028119       0.66564243       1.35991586
H       -0.41146064      -1.39941952       0.77452729
H       -1.48074267      -1.57998413      -1.39169079
H       -0.09149285      -0.53997747      -1.81643512
H        1.77559250      -0.47651132       1.45490838
H        3.18991721      -0.52251327      -0.58043370
H        2.84804106       1.13556869      -0.04197360
H        2.00728168       0.47599599      -1.43956070
H        0.22069570       1.59520041       0.12882315
H       -0.00915156       0.89039336       1.72138257
19
Frame=11 idx=011005 GeodesicLength=0.8353227800253373 rxn_smarts="[C:1]([C@@:2]1([H:11])[C:3]([H:12])([H:13])[O:4][C@:5]([C:6]([H:15])([H:16])[H:17])([H:14])[C:7]1([H:18])[H:19])([H:8])([H:9])[H:10]>>[C:1]([C:2](=[C:3]([H:12])[H:13])[C:7]([C@@:5]([O:4][H:11])([C:6]([H:15])([H:16])[H:17])[H:14])([H:18])[H:19])([H:8])([H:9])[H:10]"
C       -2.43925378       0.48390921       0.29291448
C       -1.08479577      -0.16219060       0.17745989
C       -0.76522968      -0.86477871      -1.01739850
O        0.82019903      -1.53996466       0.01023519
C        1.33349041      -0.29238339       0.46641887
C        2.39950818       0.23817036      -0.46212205
C        0.11008255       0.63321164       0.67404421
H       -3.22427974      -0.15939837      -0.10872133
H       -2.48542200       1.43661239      -0.24246493
H       -2.67391429       0.69152403       1.33958965
H       -0.39302850      -1.42779549       0.80962591
H       -1.48974798      -1.59068404      -1.38361035
H       -0.10632583      -0.55478556      -1.81717990
H        1.78750305      -0.47709727       1.44945005
H        3.18521106      -0.50549906      -0.59742438
H        2.83928951       1.14725558      -0.04487349
H        1.99135428       0.49442087      -1.44024240
H        0.20378256       1.58964784       0.15600302
H       -0.00842307       0.85982523       1.73829607
19
Frame=12 idx=011005 GeodesicLength=0.9113500637175098 rxn_smarts="[C:1]([C@@:2]1([H:11])[C:3]([H:12])([H:13])[O:4][C@:5]([C:6]([H:15])([H:16])[H:17])([H:14])[C:7]1([H:18])[H:19])([H:8])([H:9])[H:10]>>[C:1]([C:2](=[C:3]([H:12])[H:13])[C:7]([C@@:5]([O:4][H:11])([C:6]([H:15])([H:16])[H:17])[H:14])([H:18])[H:19])([H:8])([H:9])[H:10]"
C       -2.43021063       0.49694306       0.27764156
C       -1.08739616      -0.17888682       0.18859747
C       -0.76986277      -0.87888611      -1.01020499
O        0.82840229      -1.54173173       0.00663854
C        1.33615888      -0.29050919       0.46513776
C        2.39191106       0.25037574      -0.46798243
C        0.10782470       0.61867562       0.68653102
H       -3.22261915      -0.13215072      -0.13161081
H       -2.44783813       1.44673611      -0.26453533
H       -2.67637943       0.71699504       1.31921946
H       -0.37364017      -1.45573977       0.84512331
H       -1.49888757      -1.60085297      -1.37592228
H       -0.12104931      -0.56955603      -1.81813179
H        1.79874919      -0.47734132       1.44403452
H        3.17985278      -0.48885030      -0.61402628
H        2.83037819       1.15863715      -0.04762999
H        1.97522508       0.51252636      -1.44066115
H        0.18719476       1.58401377       0.18318913
H       -0.00781360       0.82960212       1.75459230
19
Frame=13 idx=011005 GeodesicLength=0.9874085914582852 rxn_smarts="[C:1]([C@@:2]1([H:11])[C:3]([H:12])([H:13])[O:4][C@:5]([C:6]([H:15])([H:16])[H:17])([H:14])[C:7]1([H:18])[H:19])([H:8])([H:9])[H:10]>>[C:1]([C:2](=[C:3]([H:12])[H:13])[C:7]([C@@:5]([O:4][H:11])([C:6]([H:15])([H:16])[H:17])[H:14])([H:18])[H:19])([H:8])([H:9])[H:10]"
C       -2.42069435       0.50961490       0.26248269
C       -1.09028050      -0.19503711       0.19925668
C       -0.77463552      -0.89247019      -1.00346781
O        0.83583937      -1.54322247       0.00316023
C        1.33835279      -0.28846362       0.46389201
C        2.38396994       0.26235279      -0.47364095
C        0.10544668       0.60442422       0.69867430
H       -3.22002435      -0.10534223      -0.15441211
H       -2.41026141       1.45594834      -0.28588858
H       -2.67775318       0.74202118       1.29883571
H       -0.35322384      -1.48325174       0.88105672
H       -1.50815761      -1.61049575      -1.36863257
H       -0.13564273      -0.58429753      -1.81930440
H        1.80935544      -0.47725148       1.43866737
H        3.17387045      -0.47257651      -0.63025722
H        2.82132750       1.16971383      -0.05026072
H        1.95891337       0.53031660      -1.44082903
H        0.17092910       1.57830263       0.21038127
H       -0.00733117       0.79971415       1.77028642
19
Frame=14 idx=011005 GeodesicLength=1.0635000318421532 rxn_smarts="[C:1]([C@@:2]1([H:11])[C:3]([H:12])([H:13])[O:4][C@:5]([C:6]([H:15])([H:16])[H:17])([H:14])[C:7]1([H:18])[H:19])([H:8])([H:9])[H:10]>>[C:1]([C:2](=[C:3]([H:12])[H:13])[C:7]([C@@:5]([O:4][H:11])([C:6]([H:15])([H:16])[H:17])[H:14])([H:18])[H:19])([H:8])([H:9])[H:10]"
C       -2.41075266       0.52194326       0.24743090
C       -1.09344195      -0.21064003       0.20942316
C       -0.77954204      -0.90553664      -0.99719335
O        0.84252598      -1.54445908      -0.00017986
C        1.34008890      -0.28625750       0.46268507
C        2.37569966       0.27409787      -0.47910973
C        0.10294838       0.59044814       0.71048723
H       -3.21654684      -0.07894883      -0.17713937
H       -2.37273505       1.46431137      -0.30651855
H       -2.67810805       0.76658756       1.27845097
H       -0.33169020      -1.51033126       0.91746601
H       -1.51755479      -1.61961372      -1.36175100
H       -0.15008726      -0.59901558      -1.82070870
H        1.81934845      -0.47683476       1.43335406
H        3.16728382      -0.45668578      -0.64613546
H        2.81214981       1.18048729      -0.05278289
H        1.94242602       0.54779109      -1.44076071
H        0.15497622       1.57251384       0.23758563
H       -0.00698840       0.77014274       1.78539658
19
Frame=15 idx=011005 GeodesicLength=1.1396307687954719 rxn_smarts="[C:1]([C@@:2]1([H:11])[C:3]([H:12])([H:13])[O:4][C@:5]([C:6]([H:15])([H:16])[H:17])([H:14])[C:7]1([H:18])[H:19])([H:8])([H:9])[H:10]>>[C:1]([C:2](=[C:3]([H:12])[H:13])[C:7]([C@@:5]([O:4][H:11])([C:6]([H:15])([H:16])[H:17])[H:14])([H:18])[H:19])([H:8])([H:9])[H:10]"
C       -2.40042635       0.53395391       0.23247808
C       -1.09687423      -0.22569896       0.21908843
C       -0.78457748      -0.91809910      -0.99138139
O        0.84848145      -1.54546606      -0.00336236
C        1.34138384      -0.28390335       0.46152122
C        2.36711013       0.28561361      -0.48440263
C        0.10032740       0.57673012       0.72198950
H       -3.21225054      -0.05293089      -0.19982236
H       -2.33527686       1.47189667      -0.32643850
H       -2.67751830       0.79069039       1.25807580
H       -0.30893571      -1.53699203       0.95439080
H       -1.52707802      -1.62821723      -1.35527870
H       -0.16437061      -0.61372173      -1.82235134
H        1.82875862      -0.47609960       1.42809789
H        3.16011067      -0.44117709      -0.66168716
H        2.80285212       1.19096546      -0.05521533
H        1.92576117       0.56495781      -1.44046783
H        0.13932090       1.56664026       0.26481843
H       -0.00679820       0.74085780       1.79994746
19
Frame=16 idx=011005 GeodesicLength=1.215806925410842 rxn_smarts="[C:1]([C@@:2]1([H:11])[C:3]([H:12])([H:13])[O:4][C@:5]([C:6]([H:15])([H:16])[H:17])([H:14])[C:7]1([H:18])[H:19])([H:8])([H:9])[H:10]>>[C:1]([C:2](=[C:3]([H:12])[H:13])[C:7]([C@@:5]([O:4][H:11])([C:6]([H:15])([H:16])[H:17])[H:14])([H:18])[H:19])([H:8])([H:9])[H:10]"
C       -2.38975095       0.54567804       0.21760954
C       -1.10057527      -0.24021900       0.22824602
C       -0.78973838      -0.93017106      -0.98603018
O        0.85372254      -1.54626797      -0.00636388
C        1.34225134      -0.28141239       0.46040622
C        2.35820514       0.29690128      -0.48953377
C        0.09757879       0.56325106       0.73320355
H       -3.20718288      -0.02724112      -0.22249794
H       -2.29789697       1.47876974      -0.34565714
H       -2.67605336       0.81433178       1.23771292
H       -0.28483804      -1.56325098       0.99187004
H       -1.53672840      -1.63631433      -1.34921837
H       -0.17848112      -0.62842865      -1.82423641
H        1.83761636      -0.47504993       1.42290281
H        3.15236011      -0.42604870      -0.67694055
H        2.79343582       1.20115545      -0.05757822
H        1.90890857       0.58182227      -1.43996172
H        0.12394417       1.56067080       0.29210196
H       -0.00677748       0.71182372       1.81396510
