14
Frame=0 idx=006632 GeodesicLength=0.0 rxn_smarts="[O:1]=[C:2]([C@@:3]1([H:9])[C@@:4]2([H:10])[C:5]([H:11])([H:12])[C:6]([H:13])([H:14])[N:7]12)[H:8]>>[C:3]1([H:8])([H:9])[C@@:4]2([H:10])[C:5]([H:11])([H:12])[C:6]([H:13])([H:14])[N:7]12.[O+:1]#[C-:2]"
O        2.72463345       0.81231629       0.73281405
C        1.67004327       1.20313496       1.01832892
C        0.47500298       0.90408689      -0.60987372
C        0.19026138      -0.49311549      -0.94611003
C       -0.36610908      -1.25610595       0.24838862
C       -1.43540749      -0.14813960       0.32081027
N       -0.90839930       0.53801110      -0.90225481
H        0.61067919       1.49856987       0.97552670
H        0.92341853       1.52629162      -1.38242124
H        0.50303688      -0.94533585      -1.88000804
H        0.30388948      -1.39654506       1.09835216
H       -0.78977721      -2.22164366      -0.02173661
H       -1.45477413       0.48564621       1.21222912
H       -2.44649798      -0.50717133       0.13595462
14
Frame=1 idx=006632 GeodesicLength=0.10561298585297942 rxn_smarts="[O:1]=[C:2]([C@@:3]1([H:9])[C@@:4]2([H:10])[C:5]([H:11])([H:12])[C:6]([H:13])([H:14])[N:7]12)[H:8]>>[C:3]1([H:8])([H:9])[C@@:4]2([H:10])[C:5]([H:11])([H:12])[C:6]([H:13])([H:14])[N:7]12.[O+:1]#[C-:2]"
O        2.70571977       0.75192652       0.80969599
C        1.65915000       1.19784171       1.03714264
C        0.47104147       0.90481322      -0.61584508
C        0.18611327      -0.49228115      -0.95428876
C       -0.35813711      -1.26044343       0.24168253
C       -1.42689720      -0.15334221       0.33039809
N       -0.91444294       0.53474495      -0.89776401
H        0.62164621       1.59830385       0.90230409
H        0.90460750       1.52797598      -1.39604664
H        0.49137514      -0.93964601      -1.89307470
H        0.31860473      -1.40926673       1.08445999
H       -0.78449982      -2.22473606      -0.02937252
H       -1.43426972       0.47598413       1.22481462
H       -2.44001129      -0.51187477       0.15589375
14
Frame=2 idx=006632 GeodesicLength=0.21164125827997965 rxn_smarts="[O:1]=[C:2]([C@@:3]1([H:9])[C@@:4]2([H:10])[C:5]([H:11])([H:12])[C:6]([H:13])([H:14])[N:7]12)[H:8]>>[C:3]1([H:8])([H:9])[C@@:4]2([H:10])[C:5]([H:11])([H:12])[C:6]([H:13])([H:14])[N:7]12.[O+:1]#[C-:2]"
O        2.67903851       0.69873260       0.89527538
C        1.64332822       1.19491058       1.05775937
C        0.46787586       0.90497412      -0.62285984
C        0.18118206      -0.49169396      -0.96334792
C       -0.35033123      -1.26545704       0.23394964
C       -1.41670245      -0.15804562       0.34134667
N       -0.92019134       0.53201721      -0.89220921
H        0.64334742       1.69047945       0.82215930
H        0.88520090       1.52838387      -1.41176169
H        0.47729022      -0.93405055      -1.90744725
H        0.33402501      -1.42409850       1.06829755
H       -0.78084222      -2.22773862      -0.03817451
H       -1.41096606       0.46663084       1.23858729
H       -2.43225489      -0.51504438       0.17842522
14
Frame=3 idx=006632 GeodesicLength=0.31817518946413154 rxn_smarts="[O:1]=[C:2]([C@@:3]1([H:9])[C@@:4]2([H:10])[C:5]([H:11])([H:12])[C:6]([H:13])([H:14])[N:7]12)[H:8]>>[C:3]1([H:8])([H:9])[C@@:4]2([H:10])[C:5]([H:11])([H:12])[C:6]([H:13])([H:14])[N:7]12.[O+:1]#[C-:2]"
O        2.64514292       0.65313789       0.98817502
C        1.62361738       1.19435075       1.07973349
C        0.46534284       0.90492308      -0.63060324
C        0.17544030      -0.49110535      -0.97310814
C       -0.34268017      -1.27089271       0.22538063
C       -1.40535763      -0.16245008       0.35329957
N       -0.92577571       0.53004114      -0.88548607
H        0.67647894       1.77327487       0.73656571
H        0.86483978       1.52779781      -1.42932033
H        0.46086542      -0.92833945      -1.92290898
H        0.35009647      -1.44018350       1.05019737
H       -0.77835981      -2.23066359      -0.04785477
H       -1.38606913       0.45736403       1.25325659
H       -2.42358160      -0.51725489       0.20267316
14
Frame=4 idx=006632 GeodesicLength=0.4248940646775215 rxn_smarts="[O:1]=[C:2]([C@@:3]1([H:9])[C@@:4]2([H:10])[C:5]([H:11])([H:12])[C:6]([H:13])([H:14])[N:7]12)[H:8]>>[C:3]1([H:8])([H:9])[C@@:4]2([H:10])[C:5]([H:11])([H:12])[C:6]([H:13])([H:14])[N:7]12.[O+:1]#[C-:2]"
O        2.60448793       0.61549238       1.08707244
C        1.60106829       1.19630913       1.10244138
C        0.46330977       0.90490599      -0.63883604
C        0.16884571      -0.49029416      -0.98340282
C       -0.33515911      -1.27649740       0.21617062
C       -1.39327095      -0.16673321       0.36589931
N       -0.93122014       0.52900482      -0.87754654
H        0.72121275       1.84478111       0.64716751
H        0.84324055       1.52645192      -1.44843748
H        0.44205252      -0.92228388      -1.93924866
H        0.36680843      -1.45664665       1.03045816
H       -0.77664374      -2.23345444      -0.05808760
H       -1.36052136       0.44790355       1.26854856
H       -2.41421065      -0.51893917       0.22780116
14
Frame=5 idx=006632 GeodesicLength=0.5318479299746283 rxn_smarts="[O:1]=[C:2]([C@@:3]1([H:9])[C@@:4]2([H:10])[C:5]([H:11])([H:12])[C:6]([H:13])([H:14])[N:7]12)[H:8]>>[C:3]1([H:8])([H:9])[C@@:4]2([H:10])[C:5]([H:11])([H:12])[C:6]([H:13])([H:14])[N:7]12.[O+:1]#[C-:2]"
O        2.55655363       0.58536423       1.19121101
C        1.57615804       1.20066235       1.12538759
C        0.46153137       0.90525380      -0.64749747
C        0.16134196      -0.48895899      -0.99415299
C       -0.32756637      -1.28197965       0.20646627
C       -1.38064375      -0.17107286       0.37897740
N       -0.93661965       0.52902389      -0.86831940
H        0.77819583       1.90401170       0.55472433
H        0.82007446       1.52467818      -1.46892271
H        0.42085731      -0.91552277      -1.95630388
H        0.38431382      -1.47277681       1.00926306
H       -0.77508195      -2.23602533      -0.06858466
H       -1.33495601       0.43799898       1.28433212
H       -2.40415870      -0.52065672       0.25341932
14
Frame=6 idx=006632 GeodesicLength=0.6389355586801101 rxn_smarts="[O:1]=[C:2]([C@@:3]1([H:9])[C@@:4]2([H:10])[C:5]([H:11])([H:12])[C:6]([H:13])([H:14])[N:7]12)[H:8]>>[C:3]1([H:8])([H:9])[C@@:4]2([H:10])[C:5]([H:11])([H:12])[C:6]([H:13])([H:14])[N:7]12.[O+:1]#[C-:2]"
O        2.50044971       0.56166448       1.29936113
C        1.54976501       1.20749684       1.14786122
C        0.45950118       0.90651997      -0.65651270
C        0.15299260      -0.48671890      -1.00516827
C       -0.31961604      -1.28697056       0.19649640
C       -1.36777445      -0.17561402       0.39234027
N       -0.94222280       0.53008995      -0.85788010
H        0.84819997       1.94958812       0.46017487
H        0.79462672       1.52312846      -1.49053174
H        0.39779946      -0.90770976      -1.97369215
H        0.40270688      -1.48772448       0.98709833
H       -0.77282796      -2.23830559      -0.07901941
H       -1.31007702       0.42762009       1.30040046
H       -2.39352325      -0.52306459       0.27907169
14
Frame=7 idx=006632 GeodesicLength=0.7459320781017342 rxn_smarts="[O:1]=[C:2]([C@@:3]1([H:9])[C@@:4]2([H:10])[C:5]([H:11])([H:12])[C:6]([H:13])([H:14])[N:7]12)[H:8]>>[C:3]1([H:8])([H:9])[C@@:4]2([H:10])[C:5]([H:11])([H:12])[C:6]([H:13])([H:14])[N:7]12.[O+:1]#[C-:2]"
O        2.43575155       0.54550910       1.41104393
C        1.52220304       1.21689696       1.16955768
C        0.45710220       0.90877319      -0.66582944
C        0.14364226      -0.48344404      -1.01651153
C       -0.31120240      -1.29133157       0.18625579
C       -1.35477464      -0.18047561       0.40590586
N       -0.94808133       0.53227525      -0.84615136
H        0.93192084       1.97919747       0.36409134
H        0.76674870       1.52222589      -1.51273865
H        0.37250530      -0.89861683      -1.99149969
H        0.42229248      -1.50093520       0.96383378
H       -0.76961200      -2.24026040      -0.08927854
H       -1.28612159       0.41658368       1.31673272
H       -2.38237439      -0.52639789       0.30458810
14
Frame=8 idx=006632 GeodesicLength=0.852730659502627 rxn_smarts="[O:1]=[C:2]([C@@:3]1([H:9])[C@@:4]2([H:10])[C:5]([H:11])([H:12])[C:6]([H:13])([H:14])[N:7]12)[H:8]>>[C:3]1([H:8])([H:9])[C@@:4]2([H:10])[C:5]([H:11])([H:12])[C:6]([H:13])([H:14])[N:7]12.[O+:1]#[C-:2]"
O        2.36063616       0.53627201       1.52530108
C        1.49424685       1.22937516       1.18978965
C        0.45366067       0.91264071      -0.67538402
C        0.13331738      -0.47871571      -1.02806370
C       -0.30193389      -1.29471434       0.17588724
C       -1.34182978      -0.18576743       0.41962963
N       -0.95458621       0.53551138      -0.83319738
H        1.03093732       1.98987725       0.26667790
H        0.73547177       1.52312139      -1.53497343
H        0.34546730      -0.88783631      -2.00945937
H        0.44334564      -1.51162811       0.93986065
H       -0.76449795      -2.24185676      -0.09915694
H       -1.26350011       0.40500853       1.33322975
H       -2.37073517      -0.53128777       0.32985894
14
Frame=9 idx=006632 GeodesicLength=0.9591490201675033 rxn_smarts="[O:1]=[C:2]([C@@:3]1([H:9])[C@@:4]2([H:10])[C:5]([H:11])([H:12])[C:6]([H:13])([H:14])[N:7]12)[H:8]>>[C:3]1([H:8])([H:9])[C@@:4]2([H:10])[C:5]([H:11])([H:12])[C:6]([H:13])([H:14])[N:7]12.[O+:1]#[C-:2]"
O        2.27387830       0.53677607       1.64238255
C        1.46627866       1.24573072       1.20796453
C        0.44896227       0.91818992      -0.68500767
C        0.12161393      -0.47230746      -1.04010428
C       -0.29167554      -1.29702792       0.16519242
C       -1.32898936      -0.19171726       0.43355270
N       -0.96191229       0.53993952      -0.81880517
H        1.14689218       1.97588464       0.16781975
H        0.70071929       1.52702436      -1.55597818
H        0.31584426      -0.87481519      -2.02801051
H        0.46639409      -1.51903423       0.91474663
H       -0.75719739      -2.24312688      -0.10874340
H       -1.24217442       0.39256921       1.35001460
H       -2.35863399      -0.53808552       0.35497603
14
Frame=10 idx=006632 GeodesicLength=1.064610456473974 rxn_smarts="[O:1]=[C:2]([C@@:3]1([H:9])[C@@:4]2([H:10])[C:5]([H:11])([H:12])[C:6]([H:13])([H:14])[N:7]12)[H:8]>>[C:3]1([H:8])([H:9])[C@@:4]2([H:10])[C:5]([H:11])([H:12])[C:6]([H:13])([H:14])[N:7]12.[O+:1]#[C-:2]"
O        2.17276222       0.54909771       1.76100976
C        1.43999834       1.26809881       1.22264191
C        0.44220954       0.92586987      -0.69406000
C        0.10830119      -0.46365869      -1.05259211
C       -0.28002597      -1.29790932       0.15403700
C       -1.31649910      -0.19853670       0.44766026
N       -0.97059006       0.54562520      -0.80271749
H        1.28100353       1.92808918       0.06767558
H        0.66217388       1.53592911      -1.57351894
H        0.28357037      -0.85863282      -2.04707524
H        0.49207117      -1.52180630       0.88838322
H       -0.74661542      -2.24393025      -0.11825397
H       -1.22221230       0.37915016       1.36697838
H       -2.34614739      -0.54738597       0.37983163
14
Frame=11 idx=006632 GeodesicLength=1.1685858717057722 rxn_smarts="[O:1]=[C:2]([C@@:3]1([H:9])[C@@:4]2([H:10])[C:5]([H:11])([H:12])[C:6]([H:13])([H:14])[N:7]12)[H:8]>>[C:3]1([H:8])([H:9])[C@@:4]2([H:10])[C:5]([H:11])([H:12])[C:6]([H:13])([H:14])[N:7]12.[O+:1]#[C-:2]"
O        2.05881333       0.57700068       1.87598543
C        1.41864789       1.29787732       1.23196760
C        0.43356523       0.93571751      -0.70174854
C        0.09332732      -0.45261919      -1.06564433
C       -0.26708917      -1.29720330       0.14235825
C       -1.30469935      -0.20619535       0.46151564
N       -0.98041396       0.55273861      -0.78529866
H        1.42553599       1.83669297      -0.02914722
H        0.62265750       1.55214619      -1.58438115
H        0.24897582      -0.83884389      -2.06682546
H        0.52006988      -1.51855048       0.86134992
H       -0.73250641      -2.24441981      -0.12763710
H       -1.20329103       0.36490759       1.38371864
H       -2.33359303      -0.55924885       0.40378698
14
Frame=12 idx=006632 GeodesicLength=1.2721598994076346 rxn_smarts="[O:1]=[C:2]([C@@:3]1([H:9])[C@@:4]2([H:10])[C:5]([H:11])([H:12])[C:6]([H:13])([H:14])[N:7]12)[H:8]>>[C:3]1([H:8])([H:9])[C@@:4]2([H:10])[C:5]([H:11])([H:12])[C:6]([H:13])([H:14])[N:7]12.[O+:1]#[C-:2]"
O        1.94057925       0.62161231       1.97803686
C        1.40614935       1.33364782       1.23475345
C        0.42530852       0.94589435      -0.70727792
C        0.07725936      -0.44034898      -1.07912221
C       -0.25367494      -1.29540302       0.13015811
C       -1.29361031      -0.21408191       0.47419640
N       -0.98961726       0.56142030      -0.76725735
H        1.55855119       1.70480545      -0.11275551
H        0.58914718       1.57452778      -1.58615239
H        0.21288230      -0.81650491      -2.08699304
H        0.54875996      -1.50931124       0.83464688
H       -0.71621440      -2.24472142      -0.13694788
H       -1.18418450       0.35027586       1.39927593
H       -2.32133572      -0.57181240       0.42543867
14
Frame=13 idx=006632 GeodesicLength=1.3775002679319308 rxn_smarts="[O:1]=[C:2]([C@@:3]1([H:9])[C@@:4]2([H:10])[C:5]([H:11])([H:12])[C:6]([H:13])([H:14])[N:7]12)[H:8]>>[C:3]1([H:8])([H:9])[C@@:4]2([H:10])[C:5]([H:11])([H:12])[C:6]([H:13])([H:14])[N:7]12.[O+:1]#[C-:2]"
O        1.82880884       0.67597494       2.05888809
C        1.40333971       1.37081634       1.23293531
C        0.42034126       0.95417957      -0.71087887
C        0.06154326      -0.42873922      -1.09227484
C       -0.24100050      -1.29344938       0.11798137
C       -1.28292630      -0.22132918       0.48513255
N       -0.99590879       0.57111675      -0.74957314
H        1.65947063       1.55583954      -0.17545400
H        0.56710069       1.59818499      -1.58080353
H        0.17751989      -0.79424270      -2.10641122
H        0.57558927      -1.49681665       0.80964721
H       -0.70026390      -2.24498054      -0.14602279
H       -1.16400511       0.33615788       1.41293376
H       -2.30960893      -0.58271232       0.44390011
14
Frame=14 idx=006632 GeodesicLength=1.48410544993609 rxn_smarts="[O:1]=[C:2]([C@@:3]1([H:9])[C@@:4]2([H:10])[C:5]([H:11])([H:12])[C:6]([H:13])([H:14])[N:7]12)[H:8]>>[C:3]1([H:8])([H:9])[C@@:4]2([H:10])[C:5]([H:11])([H:12])[C:6]([H:13])([H:14])[N:7]12.[O+:1]#[C-:2]"
O        1.72964285       0.73310510       2.11972440
C        1.40745954       1.40476154       1.22964711
C        0.41919259       0.95995209      -0.71327452
C        0.04712189      -0.41883465      -1.10440943
C       -0.22982973      -1.29212972       0.10633941
C       -1.27259071      -0.22762434       0.49427795
N       -0.99883444       0.58097683      -0.73303787
H        1.72668184       1.41153164      -0.21908183
H        0.55532152       1.61961296      -1.57203410
H        0.14471904      -0.77381803      -2.12407680
H        0.59906010      -1.48406243       0.78713460
H       -0.68637423      -2.24547498      -0.15485937
H       -1.14291204       0.32296195       1.42457265
H       -2.29865824      -0.59095793       0.45907779
14
Frame=15 idx=006632 GeodesicLength=1.5908641411957118 rxn_smarts="[O:1]=[C:2]([C@@:3]1([H:9])[C@@:4]2([H:10])[C:5]([H:11])([H:12])[C:6]([H:13])([H:14])[N:7]12)[H:8]>>[C:3]1([H:8])([H:9])[C@@:4]2([H:10])[C:5]([H:11])([H:12])[C:6]([H:13])([H:14])[N:7]12.[O+:1]#[C-:2]"
O        1.64242806       0.78933191       2.16494496
C        1.41475600       1.43491485       1.22697397
C        0.42109563       0.96369630      -0.71504195
C        0.03423960      -0.41052552      -1.11533690
C       -0.22010720      -1.29154252       0.09537221
C       -1.26255370      -0.23310963       0.50210589
N       -0.99901223       0.59047516      -0.71765066
H        1.76909170       1.27872278      -0.24937968
H        0.55039233       1.63823637      -1.56202839
H        0.11493966      -0.75539072      -2.13982241
H        0.61938579      -1.47228602       0.76683188
H       -0.67472926      -2.24617512      -0.16348804
H       -1.12147411       0.31055873       1.43468368
H       -2.28845227      -0.59690657       0.47183544
14
Frame=16 idx=006632 GeodesicLength=1.6977921761487311 rxn_smarts="[O:1]=[C:2]([C@@:3]1([H:9])[C@@:4]2([H:10])[C:5]([H:11])([H:12])[C:6]([H:13])([H:14])[N:7]12)[H:8]>>[C:3]1([H:8])([H:9])[C@@:4]2([H:10])[C:5]([H:11])([H:12])[C:6]([H:13])([H:14])[N:7]12.[O+:1]#[C-:2]"
O        1.56328539       0.84419386       2.19909662
C        1.42390780       1.46220848       1.22525709
C        0.42529258       0.96597324      -0.71636835
C        0.02260766      -0.40335717      -1.12520025
C       -0.21146361      -1.29163864       0.08491650
C       -1.25263205      -0.23810343       0.50911824
N       -0.99707194       0.59960170      -0.70292885
H        1.79490244       1.15630307      -0.27131374
H        0.54970484       1.65467794      -1.55139218
H        0.08751680      -0.73836010      -2.15394954
H        0.63733901      -1.46177735       0.74809287
H       -0.66484967      -2.24708514      -0.17211103
H       -1.09983558       0.29860909       1.44378027
H       -2.27870366      -0.60124555       0.48300234
