9
Frame=0 idx=001603 GeodesicLength=0.0 rxn_smarts="[O:1]=[C:2]([O:3][C:4]([C:5]#[N:6])([H:8])[H:9])[H:7]>>[O:1]=[C:2]1[O:3][C:4]([H:8])([H:9])[C-:5]=[N+:6]1[H:7]"
O        2.48747709       0.22887217      -0.15466323
C        1.31197599       0.15861926      -0.08433310
O        0.57262765      -0.92657894       0.07525930
C       -0.83849419      -0.80361447       0.13199977
C       -1.26554942       0.64063308      -0.00351123
N       -0.38621677       1.46694409      -0.14002142
H        0.56917499       1.81442601      -0.23089843
H       -1.26914430      -1.38455480      -0.68267767
H       -1.18185105      -1.19474644       1.08884600
9
Frame=1 idx=001603 GeodesicLength=0.12391923090484477 rxn_smarts="[O:1]=[C:2]([O:3][C:4]([C:5]#[N:6])([H:8])[H:9])[H:7]>>[O:1]=[C:2]1[O:3][C:4]([H:8])([H:9])[C-:5]=[N+:6]1[H:7]"
O        2.47955183       0.20584308      -0.24366336
C        1.30966082       0.16911674      -0.08498039
O        0.57692890      -0.90147822       0.17325968
C       -0.83674004      -0.80061145       0.13426954
C       -1.27680274       0.63506679      -0.02226396
N       -0.40258666       1.47195471      -0.13445309
H        0.59150259       1.80836953      -0.19209320
H       -1.21867423      -1.38697396      -0.70081950
H       -1.22284045      -1.20128722       1.07074428
9
Frame=2 idx=001603 GeodesicLength=0.2474308512239839 rxn_smarts="[O:1]=[C:2]([O:3][C:4]([C:5]#[N:6])([H:8])[H:9])[H:7]>>[O:1]=[C:2]1[O:3][C:4]([H:8])([H:9])[C-:5]=[N+:6]1[H:7]"
O        2.46175219       0.17609668      -0.32431441
C        1.30771124       0.18051868      -0.07215265
O        0.57803443      -0.87051348       0.26371941
C       -0.83256034      -0.79716086       0.13585074
C       -1.28669709       0.63040492      -0.03092633
N       -0.41928527       1.47843092      -0.11967833
H        0.61298269       1.80008174      -0.18025888
H       -1.16602079      -1.38248607      -0.72048760
H       -1.25591707      -1.21537254       1.04824805
9
Frame=3 idx=001603 GeodesicLength=0.3714949830465021 rxn_smarts="[O:1]=[C:2]([O:3][C:4]([C:5]#[N:6])([H:8])[H:9])[H:7]>>[O:1]=[C:2]1[O:3][C:4]([H:8])([H:9])[C-:5]=[N+:6]1[H:7]"
O        2.43897675       0.14262212      -0.39170980
C        1.30586813       0.19185866      -0.05926605
O        0.57673179      -0.83718991       0.34116815
C       -0.82706909      -0.79356378       0.13712358
C       -1.29655803       0.62613040      -0.03494455
N       -0.43697587       1.48490659      -0.10985828
H        0.63475959       1.79249223      -0.17193953
H       -1.11715649      -1.37578586      -0.73702716
H       -1.27857678      -1.23147045       1.02645363
9
Frame=4 idx=001603 GeodesicLength=0.4957690574937228 rxn_smarts="[O:1]=[C:2]([O:3][C:4]([C:5]#[N:6])([H:8])[H:9])[H:7]>>[O:1]=[C:2]1[O:3][C:4]([H:8])([H:9])[C-:5]=[N+:6]1[H:7]"
O        2.41265337       0.10706084      -0.44814616
C        1.30404584       0.20294755      -0.04763390
O        0.57370920      -0.80265486       0.40808687
C       -0.82070727      -0.78983610       0.13808439
C       -1.30653011       0.62189458      -0.03605085
N       -0.45539702       1.49110944      -0.10389145
H        0.65717931       1.78553685      -0.16512853
H       -1.07194844      -1.36750639      -0.75109708
H       -1.29300488      -1.24855192       1.00577671
9
Frame=5 idx=001603 GeodesicLength=0.6204387815369865 rxn_smarts="[O:1]=[C:2]([O:3][C:4]([C:5]#[N:6])([H:8])[H:9])[H:7]>>[O:1]=[C:2]1[O:3][C:4]([H:8])([H:9])[C-:5]=[N+:6]1[H:7]"
O        2.38466979       0.07079405      -0.49413651
C        1.30208499       0.21355406      -0.03791015
O        0.56941123      -0.76780978       0.46611824
C       -0.81393143      -0.78606748       0.13871771
C       -1.31682353       0.61764516      -0.03442229
N       -0.47451884       1.49709141      -0.09935638
H        0.68047150       1.77901355      -0.16162637
H       -1.03050916      -1.35761806      -0.76355873
H       -1.30085456      -1.26660291       0.98617449
9
Frame=6 idx=001603 GeodesicLength=0.7451854575444845 rxn_smarts="[O:1]=[C:2]([O:3][C:4]([C:5]#[N:6])([H:8])[H:9])[H:7]>>[O:1]=[C:2]1[O:3][C:4]([H:8])([H:9])[C-:5]=[N+:6]1[H:7]"
O        2.35606509       0.03466925      -0.53187177
C        1.29987427       0.22352372      -0.03061330
O        0.56419310      -0.73306711       0.51658577
C       -0.80703070      -0.78231486       0.13908160
C       -1.32752015       0.61317767      -0.03141248
N       -0.49434213       1.50263807      -0.09703018
H        0.70496661       1.77309377      -0.15835629
H       -0.99284551      -1.34697709      -0.77445144
H       -1.30336057      -1.28474342       0.96806810
9
Frame=7 idx=001603 GeodesicLength=0.8701366407411615 rxn_smarts="[O:1]=[C:2]([O:3][C:4]([C:5]#[N:6])([H:8])[H:9])[H:7]>>[O:1]=[C:2]1[O:3][C:4]([H:8])([H:9])[C-:5]=[N+:6]1[H:7]"
O        2.32781782      -0.00087478      -0.56218300
C        1.29724649       0.23284944      -0.02574564
O        0.55826061      -0.69865313       0.56061520
C       -0.80019708      -0.77861111       0.13917603
C       -1.33869272       0.60843025      -0.02710031
N       -0.51500585       1.50778950      -0.09592412
H        0.73087112       1.76767115      -0.15590771
H       -0.95880947      -1.33566609      -0.78423435
H       -1.30149093      -1.30293523       0.95130389
9
Frame=8 idx=001603 GeodesicLength=0.9951850765810758 rxn_smarts="[O:1]=[C:2]([O:3][C:4]([C:5]#[N:6])([H:8])[H:9])[H:7]>>[O:1]=[C:2]1[O:3][C:4]([H:8])([H:9])[C-:5]=[N+:6]1[H:7]"
O        2.29996150      -0.03567966      -0.58694895
C        1.29423445       0.24158703      -0.02288606
O        0.55176914      -0.66459383       0.59933689
C       -0.79350566      -0.77498430       0.13904739
C       -1.35034740       0.60328474      -0.02219750
N       -0.53656364       1.51246167      -0.09628779
H        0.75850361       1.76289179      -0.15292339
H       -0.92797524      -1.32411704      -0.79304188
H       -1.29607675      -1.32085040       0.93590128
9
Frame=9 idx=001603 GeodesicLength=1.119906194757038 rxn_smarts="[O:1]=[C:2]([O:3][C:4]([C:5]#[N:6])([H:8])[H:9])[H:7]>>[O:1]=[C:2]1[O:3][C:4]([H:8])([H:9])[C-:5]=[N+:6]1[H:7]"
O        2.27207035      -0.06960860      -0.60804051
C        1.29090848       0.24979635      -0.02172985
O        0.54483613      -0.63081302       0.63359548
C       -0.78698152      -0.77145575       0.13877433
C       -1.36243593       0.59762637      -0.01744661
N       -0.55892615       1.51644718      -0.09906009
H        0.78820840       1.75896514      -0.14728404
H       -0.89995767      -1.31285952      -0.80081561
H       -1.28772209      -1.33809814       0.92200690
9
Frame=10 idx=001603 GeodesicLength=1.2448058327410039 rxn_smarts="[O:1]=[C:2]([O:3][C:4]([C:5]#[N:6])([H:8])[H:9])[H:7]>>[O:1]=[C:2]1[O:3][C:4]([H:8])([H:9])[C-:5]=[N+:6]1[H:7]"
O        2.24480572      -0.10262623      -0.62521217
C        1.28708086       0.25754584      -0.02232051
O        0.53748331      -0.59728798       0.66390220
C       -0.78071089      -0.76803371       0.13832330
C       -1.37507531       0.59144516      -0.01241534
N       -0.58241795       1.51991767      -0.10303457
H        0.82026829       1.75567372      -0.14060627
H       -0.87463247      -1.30166661      -0.80794899
H       -1.27680156      -1.35496786       0.90931234
9
Frame=11 idx=001603 GeodesicLength=1.369712883845368 rxn_smarts="[O:1]=[C:2]([O:3][C:4]([C:5]#[N:6])([H:8])[H:9])[H:7]>>[O:1]=[C:2]1[O:3][C:4]([H:8])([H:9])[C-:5]=[N+:6]1[H:7]"
O        2.21808102      -0.13468064      -0.63924847
C        1.28271013       0.26490992      -0.02457914
O        0.52974832      -0.56390507       0.69072083
C       -0.77472483      -0.76472696       0.13772802
C       -1.38831808       0.58467473      -0.00731815
N       -0.60712829       1.52278458      -0.10841436
H        0.85504536       1.75303260      -0.13222559
H       -0.85179112      -1.29073588      -0.81448791
H       -1.26362252      -1.37135327       0.89782477
9
Frame=12 idx=001603 GeodesicLength=1.4946213808098512 rxn_smarts="[O:1]=[C:2]([O:3][C:4]([C:5]#[N:6])([H:8])[H:9])[H:7]>>[O:1]=[C:2]1[O:3][C:4]([H:8])([H:9])[C-:5]=[N+:6]1[H:7]"
O        2.19183191      -0.16572476      -0.65072130
C        1.27772278       0.27199441      -0.02848976
O        0.52164925      -0.53052773       0.71438322
C       -0.76905120      -0.76154044       0.13701665
C       -1.40223379       0.57724603      -0.00226667
N       -0.63322288       1.52499033      -0.11535821
H        0.89297766       1.75097182      -0.12163876
H       -0.83127474      -1.28021920      -0.82047082
H       -1.24839900      -1.38719047       0.88754565
9
Frame=13 idx=001603 GeodesicLength=1.6195541023210926 rxn_smarts="[O:1]=[C:2]([O:3][C:4]([C:5]#[N:6])([H:8])[H:9])[H:7]>>[O:1]=[C:2]1[O:3][C:4]([H:8])([H:9])[C-:5]=[N+:6]1[H:7]"
O        2.16603685      -0.19570391      -0.65999952
C        1.27200832       0.27893285      -0.03410071
O        0.51318281      -0.49699282       0.73511762
C       -0.76371859      -0.75847373       0.13620590
C       -1.41691683       0.56908633       0.00268547
N       -0.66093176       1.52648622      -0.12389798
H        0.93457453       1.74933252      -0.10853780
H       -0.81296312      -1.27022704      -0.82593852
H       -1.23127221      -1.40244044       0.87846554
9
Frame=14 idx=001603 GeodesicLength=1.7444816369390757 rxn_smarts="[O:1]=[C:2]([O:3][C:4]([C:5]#[N:6])([H:8])[H:9])[H:7]>>[O:1]=[C:2]1[O:3][C:4]([H:8])([H:9])[C-:5]=[N+:6]1[H:7]"
O        2.14054370      -0.22452859      -0.66755681
C        1.26545546       0.28590725      -0.04150309
O        0.50434606      -0.46308930       0.75307238
C       -0.75874845      -0.75551969       0.13532901
C       -1.43247594       0.56011081       0.00744333
N       -0.69049983       1.52717511      -0.13434072
H        0.98044593       1.74787913      -0.09222755
H       -0.79674863      -1.26092302      -0.83086797
H       -1.21231829      -1.41701171       0.87065143
9
Frame=15 idx=001603 GeodesicLength=1.8694066508872857 rxn_smarts="[O:1]=[C:2]([O:3][C:4]([C:5]#[N:6])([H:8])[H:9])[H:7]>>[O:1]=[C:2]1[O:3][C:4]([H:8])([H:9])[C-:5]=[N+:6]1[H:7]"
O        2.11524179      -0.25207173      -0.67369379
C        1.25790151       0.29315951      -0.05085064
O        0.49511070      -0.42855954       0.76831568
C       -0.75416432      -0.75266206       0.13440702
C       -1.44905866       0.55021869       0.01195396
N       -0.72227351       1.52696303      -0.14684839
H        1.03133684       1.74621305      -0.07219534
H       -0.78254312      -1.25243494      -0.83524538
H       -1.19155123      -1.43082601       0.86415687
9
Frame=16 idx=001603 GeodesicLength=1.9943181242626873 rxn_smarts="[O:1]=[C:2]([O:3][C:4]([C:5]#[N:6])([H:8])[H:9])[H:7]>>[O:1]=[C:2]1[O:3][C:4]([H:8])([H:9])[C-:5]=[N+:6]1[H:7]"
O        2.08994983      -0.27814187      -0.67870725
C        1.24914629       0.30102563      -0.06235030
O        0.48542818      -0.39306680       0.78084651
C       -0.74998496      -0.74987013       0.13346561
C       -1.46685610       0.53928212       0.01616264
N       -0.75669611       1.52572292      -0.16166987
H        1.08817688       1.74372293      -0.04778778
H       -0.77025346      -1.24489846      -0.83902942
H       -1.16891056      -1.44377634       0.85906987
