12
Frame=0 idx=003154 GeodesicLength=0.0 rxn_smarts="[O:1]=[C:2]1[C:3]([H:7])([H:8])[C:4]([H:9])([H:10])[C:5]([H:11])=[C:6]1[H:12]>>[H:10][H:12].[O-:1][C:2]1=[C+:6][C:5]([H:11])=[C:4]([H:9])[C:3]1([H:7])[H:8]"
O        2.40149237      -0.54955072       0.17290329
C        1.24492855      -0.33479257      -0.00820127
C        0.07863157      -1.22955458      -0.34254942
C       -0.90292646      -0.06208637      -0.31201052
C       -0.45275181       1.12244251      -0.89056074
C        0.51039006       0.99010681       0.12522440
H       -0.06660470      -1.92656708       0.48528583
H        0.10439453      -1.77655681      -1.28584772
H       -1.86330365      -0.12799527       0.20335648
H       -0.34358912       0.55907733       1.69539520
H       -1.04170958       1.99972644      -1.10817498
H        0.33104826       1.33575028       1.26517941
12
Frame=1 idx=003154 GeodesicLength=0.09904826188281735 rxn_smarts="[O:1]=[C:2]1[C:3]([H:7])([H:8])[C:4]([H:9])([H:10])[C:5]([H:11])=[C:6]1[H:12]>>[H:10][H:12].[O-:1][C:2]1=[C+:6][C:5]([H:11])=[C:4]([H:9])[C:3]1([H:7])[H:8]"
O        2.41167250      -0.55517857       0.14312823
C        1.25400427      -0.33067307      -0.02243824
C        0.07848979      -1.22536796      -0.33404482
C       -0.90638582      -0.06196338      -0.29672162
C       -0.44668220       1.12036355      -0.88032534
C        0.53196142       0.99860624       0.12049437
H       -0.05556238      -1.91705536       0.50018387
H        0.09676645      -1.78054187      -1.27262530
H       -1.88805544      -0.13820820       0.17284236
H       -0.37730854       0.55381957       1.68857675
H       -1.03318994       1.99917895      -1.10062825
H        0.33428988       1.33702009       1.28155798
12
Frame=2 idx=003154 GeodesicLength=0.19793143491426574 rxn_smarts="[O:1]=[C:2]1[C:3]([H:7])([H:8])[C:4]([H:9])([H:10])[C:5]([H:11])=[C:6]1[H:12]>>[H:10][H:12].[O-:1][C:2]1=[C+:6][C:5]([H:11])=[C:4]([H:9])[C:3]1([H:7])[H:8]"
O        2.42119481      -0.56101084       0.11291498
C        1.26275269      -0.32659374      -0.03697309
C        0.07823206      -1.22099194      -0.32517190
C       -0.91014359      -0.06181257      -0.28080627
C       -0.44081032       1.11829979      -0.86936622
C        0.55361003       1.00703653       0.11559773
H       -0.04439279      -1.90716404       0.51539652
H        0.08889913      -1.78443504      -1.25879929
H       -1.91196880      -0.14940468       0.13941549
H       -0.41044886       0.54929899       1.68201625
H       -1.02488286       1.99855756      -1.09244250
H        0.33795847       1.33821998       1.29821831
12
Frame=3 idx=003154 GeodesicLength=0.2967668781485078 rxn_smarts="[O:1]=[C:2]1[C:3]([H:7])([H:8])[C:4]([H:9])([H:10])[C:5]([H:11])=[C:6]1[H:12]>>[H:10][H:12].[O-:1][C:2]1=[C+:6][C:5]([H:11])=[C:4]([H:9])[C:3]1([H:7])[H:8]"
O        2.43006432      -0.56709409       0.08233845
C        1.27115857      -0.32258032      -0.05180365
C        0.07783338      -1.21647103      -0.31594975
C       -0.91428922      -0.06164329      -0.26427938
C       -0.43521981       1.11629069      -0.85770781
C        0.57532111       1.01543972       0.11047645
H       -0.03308218      -1.89696445       0.53090381
H        0.08076564      -1.78831599      -1.24440182
H       -1.93469607      -0.16149634       0.10303609
H       -0.44301273       0.54546243       1.67586236
H       -1.01690425       1.99793313      -1.08367290
H        0.34206126       1.33943954       1.31519814
12
Frame=4 idx=003154 GeodesicLength=0.3955173698494179 rxn_smarts="[O:1]=[C:2]1[C:3]([H:7])([H:8])[C:4]([H:9])([H:10])[C:5]([H:11])=[C:6]1[H:12]>>[H:10][H:12].[O-:1][C:2]1=[C+:6][C:5]([H:11])=[C:4]([H:9])[C:3]1([H:7])[H:8]"
O        2.43819588      -0.57341411       0.05137737
C        1.27915533      -0.31862728      -0.06694778
C        0.07726360      -1.21177592      -0.30637400
C       -0.91887240      -0.06146113      -0.24716192
C       -0.42992121       1.11432229      -0.84535396
C        0.59705978       1.02380279       0.10505032
H       -0.02166534      -1.88640862       0.54670240
H        0.07236764      -1.79216827      -1.22939602
H       -1.95579603      -0.17438984       0.06377168
H       -0.47508919       0.54219187       1.67019281
H       -1.00925218       1.99727489      -1.07434543
H        0.34655414       1.34065333       1.33248453
12
Frame=5 idx=003154 GeodesicLength=0.4941896561840013 rxn_smarts="[O:1]=[C:2]1[C:3]([H:7])([H:8])[C:4]([H:9])([H:10])[C:5]([H:11])=[C:6]1[H:12]>>[H:10][H:12].[O-:1][C:2]1=[C+:6][C:5]([H:11])=[C:4]([H:9])[C:3]1([H:7])[H:8]"
O        2.44552339      -0.57996896       0.02005151
C        1.28668708      -0.31473654      -0.08241832
C        0.07649684      -1.20689764      -0.29646046
C       -0.92395821      -0.06127953      -0.22952236
C       -0.42493471       1.11239698      -0.83232595
C        0.61878654       1.03212339       0.09923723
H       -0.01017671      -1.87547266       0.56277338
H        0.06372101      -1.79600932      -1.21377275
H       -1.97480483      -0.18794904       0.02179785
H       -0.50678238       0.53936143       1.66507256
H       -1.00194618       1.99657810      -1.06450466
H        0.35138814       1.34185379       1.35007197
12
Frame=6 idx=003154 GeodesicLength=0.5927942456798538 rxn_smarts="[O:1]=[C:2]1[C:3]([H:7])([H:8])[C:4]([H:9])([H:10])[C:5]([H:11])=[C:6]1[H:12]>>[H:10][H:12].[O-:1][C:2]1=[C+:6][C:5]([H:11])=[C:4]([H:9])[C:3]1([H:7])[H:8]"
O        2.45199008      -0.58675601      -0.01160107
C        1.29370413      -0.31091224      -0.09822505
C        0.07551949      -1.20183344      -0.28624420
C       -0.92960242      -0.06112315      -0.21149600
C       -0.42026433       1.11052569      -0.81866245
C        0.64046135       1.04039532       0.09295173
H        0.00134428      -1.86413542       0.57908025
H        0.05487253      -1.79986710      -1.19753795
H       -1.99126694      -0.20198232      -0.02251440
H       -0.53824822       0.53682286       1.66051394
H       -0.99499111       1.99584640      -1.05421507
H        0.35648113       1.34301939       1.36795026
12
Frame=7 idx=003154 GeodesicLength=0.6913717182972567 rxn_smarts="[O:1]=[C:2]1[C:3]([H:7])([H:8])[C:4]([H:9])([H:10])[C:5]([H:11])=[C:6]1[H:12]>>[H:10][H:12].[O-:1][C:2]1=[C+:6][C:5]([H:11])=[C:4]([H:9])[C:3]1([H:7])[H:8]"
O        2.45756401      -0.59376863      -0.04353859
C        1.30017482      -0.30715878      -0.11437659
C        0.07433299      -1.19658793      -0.27577881
C       -0.93585328      -0.06102719      -0.19328135
C       -0.41589294       1.10872363      -0.80441822
C        0.66205145       1.04861185       0.08610978
H        0.01285473      -1.85236873       0.59557853
H        0.04590052      -1.80378878      -1.18071637
H       -2.00479166      -0.21625002      -0.06862417
H       -0.56969767       0.53441616       1.65648425
H       -0.98837311       1.99508591      -1.04355578
H        0.36173013       1.34411252       1.38611733
12
Frame=8 idx=003154 GeodesicLength=0.7900306035119062 rxn_smarts="[O:1]=[C:2]1[C:3]([H:7])([H:8])[C:4]([H:9])([H:10])[C:5]([H:11])=[C:6]1[H:12]>>[H:10][H:12].[O-:1][C:2]1=[C+:6][C:5]([H:11])=[C:4]([H:9])[C:3]1([H:7])[H:8]"
O        2.46226250      -0.60098450      -0.07568819
C        1.30610310      -0.30346948      -0.13088914
C        0.07295132      -1.19116031      -0.26512110
C       -0.94275138      -0.06103716      -0.17512024
C       -0.41179427       1.10701886      -0.78968235
C        0.68355653       1.05676730       0.07861428
H        0.02432169      -1.84013880       0.61225578
H        0.03689321      -1.80780211      -1.16334361
H       -2.01515826      -0.23047683      -0.11588742
H       -0.60136025       0.53192394       1.65293144
H       -0.98207603       1.99431230      -1.03265314
H        0.36705184       1.34504678       1.40458369
12
Frame=9 idx=003154 GeodesicLength=0.8889600087371318 rxn_smarts="[O:1]=[C:2]1[C:3]([H:7])([H:8])[C:4]([H:9])([H:10])[C:5]([H:11])=[C:6]1[H:12]>>[H:10][H:12].[O-:1][C:2]1=[C+:6][C:5]([H:11])=[C:4]([H:9])[C:3]1([H:7])[H:8]"
O        2.46619452      -0.60841138      -0.10808036
C        1.31154637      -0.29986283      -0.14777525
C        0.07141751      -1.18557244      -0.25435710
C       -0.95032416      -0.06118857      -0.15728031
C       -0.40789886       1.10541660      -0.77451289
C        0.70501277       1.06485715       0.07041277
H        0.03570882      -1.82737788       0.62906651
H        0.02797353      -1.81201884      -1.14550132
H       -2.02233050      -0.24442265      -0.16358740
H       -0.63358312       0.52927261       1.64977126
H       -0.97604566       1.99351796      -1.02158254
H        0.37232877       1.34579028       1.42342662
12
Frame=10 idx=003154 GeodesicLength=0.9868882394462662 rxn_smarts="[O:1]=[C:2]1[C:3]([H:7])([H:8])[C:4]([H:9])([H:10])[C:5]([H:11])=[C:6]1[H:12]>>[H:10][H:12].[O-:1][C:2]1=[C+:6][C:5]([H:11])=[C:4]([H:9])[C:3]1([H:7])[H:8]"
O        2.46901386      -0.61612026      -0.13927972
C        1.31638534      -0.29633421      -0.16502424
C        0.06997474      -1.17987283      -0.24404148
C       -0.95816438      -0.06161934      -0.14080680
C       -0.40397031       1.10397942      -0.75925933
C        0.72624118       1.07286039       0.06125672
H        0.04692948      -1.81425989       0.64521110
H        0.01985455      -1.81633438      -1.12765269
H       -2.02641092      -0.25708728      -0.20766710
H       -0.66663580       0.52587337       1.64593812
H       -0.97004596       1.99272444      -1.01071162
H        0.37682821       1.34619055       1.44203701
12
Frame=11 idx=003154 GeodesicLength=1.084887930296284 rxn_smarts="[O:1]=[C:2]1[C:3]([H:7])([H:8])[C:4]([H:9])([H:10])[C:5]([H:11])=[C:6]1[H:12]>>[H:10][H:12].[O-:1][C:2]1=[C+:6][C:5]([H:11])=[C:4]([H:9])[C:3]1([H:7])[H:8]"
O        2.47083052      -0.62395165      -0.17194935
C        1.32057227      -0.29289064      -0.18259605
C        0.06838993      -1.17394619      -0.23312059
C       -0.96663903      -0.06214620      -0.12434807
C       -0.40024498       1.10276216      -0.74316587
C        0.74736864       1.08078528       0.05136792
H        0.05831868      -1.80033374       0.66207870
H        0.01161338      -1.82093130      -1.10851630
H       -2.02706535      -0.26967319      -0.25404832
H       -0.70048272       0.52221416       1.64245808
H       -0.96422060       1.99205865      -0.99928394
H        0.38155927       1.34605268       1.46112379
12
Frame=12 idx=003154 GeodesicLength=1.1831130899729525 rxn_smarts="[O:1]=[C:2]1[C:3]([H:7])([H:8])[C:4]([H:9])([H:10])[C:5]([H:11])=[C:6]1[H:12]>>[H:10][H:12].[O-:1][C:2]1=[C+:6][C:5]([H:11])=[C:4]([H:9])[C:3]1([H:7])[H:8]"
O        2.47199003      -0.63198209      -0.20477660
C        1.32438118      -0.28953203      -0.20056481
C        0.06684341      -1.16787188      -0.22223415
C       -0.97563042      -0.06291518      -0.10882456
C       -0.39651059       1.10172434      -0.72669272
C        0.76855502       1.08865872       0.04053312
H        0.06969488      -1.78570648       0.67901514
H        0.00381144      -1.82583323      -1.08893466
H       -2.02514106      -0.28138526      -0.29913210
H       -0.73559278       0.51798965       1.63887491
H       -0.95845791       1.99139851      -0.98785890
H        0.38605681       1.34545493       1.48059532
12
Frame=13 idx=003154 GeodesicLength=1.2814299256722623 rxn_smarts="[O:1]=[C:2]1[C:3]([H:7])([H:8])[C:4]([H:9])([H:10])[C:5]([H:11])=[C:6]1[H:12]>>[H:10][H:12].[O-:1][C:2]1=[C+:6][C:5]([H:11])=[C:4]([H:9])[C:3]1([H:7])[H:8]"
O        2.47243780      -0.64019539      -0.23781335
C        1.32779730      -0.28623947      -0.21893788
C        0.06537641      -1.16162379      -0.21134080
C       -0.98506410      -0.06392704      -0.09427430
C       -0.39271551       1.10091370      -0.70976839
C        0.78982976       1.09650371       0.02865042
H        0.08111301      -1.77031479       0.69607448
H       -0.00352422      -1.83101381      -1.06878480
H       -2.02084257      -0.29221283      -0.34284739
H       -0.77208939       0.51306622       1.63504059
H       -0.95269062       1.99077267      -0.97643355
H        0.39037213       1.34427081       1.50043496
12
Frame=14 idx=003154 GeodesicLength=1.379771953150299 rxn_smarts="[O:1]=[C:2]1[C:3]([H:7])([H:8])[C:4]([H:9])([H:10])[C:5]([H:11])=[C:6]1[H:12]>>[H:10][H:12].[O-:1][C:2]1=[C+:6][C:5]([H:11])=[C:4]([H:9])[C:3]1([H:7])[H:8]"
O        2.47215926      -0.64860797      -0.27110206
C        1.33082501      -0.28301223      -0.23774542
C        0.06402793      -1.15517923      -0.20041216
C       -0.99489194      -0.06517698      -0.08070046
C       -0.38882777       1.10035389      -0.69228632
C        0.81122637       1.10433726       0.01561169
H        0.09263451      -1.75406781       0.71329492
H       -0.01036528      -1.83647191      -1.04797470
H       -2.01438358      -0.30214497      -0.38522766
H       -0.81009762       0.50737216       1.63085828
H       -0.94688500       1.99017276      -0.96497872
H        0.39457812       1.34242501       1.52066262
12
Frame=15 idx=003154 GeodesicLength=1.478124594573417 rxn_smarts="[O:1]=[C:2]1[C:3]([H:7])([H:8])[C:4]([H:9])([H:10])[C:5]([H:11])=[C:6]1[H:12]>>[H:10][H:12].[O-:1][C:2]1=[C+:6][C:5]([H:11])=[C:4]([H:9])[C:3]1([H:7])[H:8]"
O        2.47115428      -0.65723203      -0.30469458
C        1.33347280      -0.27984646      -0.25702485
C        0.06282696      -1.14851128      -0.18941354
C       -1.00508417      -0.06665918      -0.06809185
C       -0.38481977       1.10006920      -0.67412355
C        0.83278211       1.11217930       0.00129474
H        0.10431573      -1.73686319       0.73073012
H       -0.01669894      -1.84220467      -1.02640929
H       -2.00596065      -0.31118263      -0.42637175
H       -0.84974965       0.50083198       1.62625863
H       -0.94101446       1.98957876      -0.95348099
H        0.39877575       1.33984021       1.54132690
12
Frame=16 idx=003154 GeodesicLength=1.5764842159683752 rxn_smarts="[O:1]=[C:2]1[C:3]([H:7])([H:8])[C:4]([H:9])([H:10])[C:5]([H:11])=[C:6]1[H:12]>>[H:10][H:12].[O-:1][C:2]1=[C+:6][C:5]([H:11])=[C:4]([H:9])[C:3]1([H:7])[H:8]"
O        2.46941362      -0.66607727      -0.33865276
C        1.33573999      -0.27673618      -0.27681715
C        0.06179578      -1.14158793      -0.17830243
C       -1.01562076      -0.06836597      -0.05642986
C       -0.38066600       1.10008742      -0.65513187
C        0.85452421       1.12005077      -0.01443891
H        0.11621181      -1.71858572       0.74844194
H       -0.02251982      -1.84820509      -1.00397901
H       -1.99572385      -0.31932622      -0.46641972
H       -0.89118699       0.49335990       1.62117650
H       -0.93505441       1.98895843      -0.94194053
H        0.40308640       1.33642786       1.56249379
