16
Frame=0 idx=000676 GeodesicLength=0.0 rxn_smarts="[C:1]([C:2]([C:3]([H:11])([H:12])[H:13])([C:4](=[O:5])[C:6]([H:14])([H:15])[H:16])[H:10])([H:7])([H:8])[H:9]>>[C:1]([C:2]([C:3]([H:11])([H:12])[H:13])=[C:4]([O:5][H:10])[C:6]([H:14])([H:15])[H:16])([H:7])([H:8])[H:9]"
C       -1.48699131       0.96371185      -0.47199666
C       -0.53986942      -0.20313434      -0.18237669
C       -0.75666157      -0.81276804       1.18193887
C        0.78360120      -0.07033508      -0.67905459
O        0.77919720      -0.12948940      -1.96409235
C        2.07525082      -0.01032806       0.05101565
H       -1.26810856       1.45896976      -1.41838261
H       -1.43412772       1.71669927       0.32542181
H       -2.51966712       0.61127389      -0.51541481
H       -0.36076754      -0.52941549      -1.64088705
H       -0.63693737      -0.07711746       1.98907654
H       -0.07523288      -1.64248543       1.37936029
H       -1.77223837      -1.20661596       1.26065775
H        1.99625928       0.56484792       0.97277042
H        2.37014611      -1.02989696       0.31432643
H        2.84614721       0.39608349      -0.60236305
16
Frame=1 idx=000676 GeodesicLength=0.05825373019239976 rxn_smarts="[C:1]([C:2]([C:3]([H:11])([H:12])[H:13])([C:4](=[O:5])[C:6]([H:14])([H:15])[H:16])[H:10])([H:7])([H:8])[H:9]>>[C:1]([C:2]([C:3]([H:11])([H:12])[H:13])=[C:4]([O:5][H:10])[C:6]([H:14])([H:15])[H:16])([H:7])([H:8])[H:9]"
C       -1.50442566       0.95432703      -0.48126880
C       -0.53599388      -0.19120669      -0.18015256
C       -0.75083185      -0.79210991       1.18852730
C        0.78797477      -0.03748790      -0.67060429
O        0.78756206      -0.08551178      -1.95666420
C        2.08551674      -0.03348623       0.05234545
H       -1.30077207       1.44370300      -1.43419818
H       -1.46292310       1.71683457       0.30698859
H       -2.53100614       0.58379447      -0.52215849
H       -0.35707294      -0.52558760      -1.63983001
H       -0.64682969      -0.04709867       1.98880505
H       -0.05977425      -1.61007180       1.39984603
H       -1.76025977      -1.20181581       1.26632551
H        2.01812191       0.49000800       1.00516453
H        2.37473974      -1.06767481       0.25853022
H        2.85597414       0.40338412      -0.58165615
16
Frame=2 idx=000676 GeodesicLength=0.11583059150931713 rxn_smarts="[C:1]([C:2]([C:3]([H:11])([H:12])[H:13])([C:4](=[O:5])[C:6]([H:14])([H:15])[H:16])[H:10])([H:7])([H:8])[H:9]>>[C:1]([C:2]([C:3]([H:11])([H:12])[H:13])=[C:4]([O:5][H:10])[C:6]([H:14])([H:15])[H:16])([H:7])([H:8])[H:9]"
C       -1.52116887       0.94444010      -0.49028540
C       -0.53193781      -0.17936152      -0.17781587
C       -0.74499366      -0.77147918       1.19520599
C        0.79261188      -0.00440459      -0.66111922
O        0.79613810      -0.04035288      -1.94817397
C        2.09475954      -0.05640539       0.05292734
H       -1.33208634       1.42772668      -1.44941503
H       -1.49149501       1.71602475       0.28888215
H       -2.54129886       0.55587041      -0.52894299
H       -0.35234082      -0.52134469      -1.63863809
H       -0.65612633      -0.01750021       1.98845683
H       -0.04486053      -1.57774403       1.42009037
H       -1.74818670      -1.19648650       1.27247135
H        2.03802709       0.41471236       1.03326259
H        2.37682225      -1.10214342       0.20284239
H        2.86613605       0.40844812      -0.55974844
16
Frame=3 idx=000676 GeodesicLength=0.17270405571385725 rxn_smarts="[C:1]([C:2]([C:3]([H:11])([H:12])[H:13])([C:4](=[O:5])[C:6]([H:14])([H:15])[H:16])[H:10])([H:7])([H:8])[H:9]>>[C:1]([C:2]([C:3]([H:11])([H:12])[H:13])=[C:4]([O:5][H:10])[C:6]([H:14])([H:15])[H:16])([H:7])([H:8])[H:9]"
C       -1.53701718       0.93415623      -0.49898837
C       -0.52775491      -0.16778240      -0.17540727
C       -0.73922823      -0.75106708       1.20193175
C        0.79745668       0.02846049      -0.65066304
O        0.80485797       0.00553467      -1.93865144
C        2.10289285      -0.07885895       0.05277537
H       -1.36177755       1.41114632      -1.46399912
H       -1.51938056       1.71434696       0.27118575
H       -2.55043513       0.52786037      -0.53562844
H       -0.34675808      -0.51679326      -1.63740295
H       -0.66488495       0.01147934       1.98803946
H       -0.03055797      -1.54573887       1.44003041
H       -1.73615287      -1.19074577       1.27900952
H        2.05563523       0.33968672       1.05707721
H        2.37672567      -1.13314924       0.14769954
H        2.87637901       0.41146447      -0.53700836
16
Frame=4 idx=000676 GeodesicLength=0.22886179774135254 rxn_smarts="[C:1]([C:2]([C:3]([H:11])([H:12])[H:13])([C:4](=[O:5])[C:6]([H:14])([H:15])[H:16])[H:10])([H:7])([H:8])[H:9]>>[C:1]([C:2]([C:3]([H:11])([H:12])[H:13])=[C:4]([O:5][H:10])[C:6]([H:14])([H:15])[H:16])([H:7])([H:8])[H:9]"
C       -1.55173451       0.92358633      -0.50730562
C       -0.52353703      -0.15668129      -0.17297707
C       -0.73363182      -0.73108196       1.20861332
C        0.80240863       0.06057109      -0.63934035
O        0.81357444       0.05152287      -1.92812785
C        2.10986304      -0.10059955       0.05193188
H       -1.38949517       1.39411876      -1.47783944
H       -1.54600481       1.71185122       0.25400911
H       -2.55833258       0.50018214      -0.54209989
H       -0.34069104      -0.51209969      -1.63618663
H       -0.67313331       0.03960510       1.98749686
H       -0.01696042      -1.51426811       1.45954538
H       -1.72433691      -1.18471274       1.28579065
H        2.07073099       0.26571846       1.07666899
H        2.37488175      -1.16050909       0.09356880
H        2.88639874       0.41279645      -0.51374815
16
Frame=5 idx=000676 GeodesicLength=0.2845108758535727 rxn_smarts="[C:1]([C:2]([C:3]([H:11])([H:12])[H:13])([C:4](=[O:5])[C:6]([H:14])([H:15])[H:16])[H:10])([H:7])([H:8])[H:9]>>[C:1]([C:2]([C:3]([H:11])([H:12])[H:13])=[C:4]([O:5][H:10])[C:6]([H:14])([H:15])[H:16])([H:7])([H:8])[H:9]"
C       -1.56542497       0.91276438      -0.51530606
C       -0.51927419      -0.14604313      -0.17051661
C       -0.72820728      -0.71148173       1.21532768
C        0.80747227       0.09195610      -0.62718120
O        0.82230427       0.09765783      -1.91664895
C        2.11577511      -0.12169493       0.05042726
H       -1.41540410       1.37666923      -1.49109916
H       -1.57151729       1.70865957       0.23726425
H       -2.56509525       0.47280293      -0.54839257
H       -0.33413229      -0.50729087      -1.63504883
H       -0.68100721       0.06700603       1.98691738
H       -0.00398280      -1.48327722       1.47878732
H       -1.71273336      -1.17843108       1.29286835
H        2.08345619       0.19269283       1.09242072
H        2.37160165      -1.18457701       0.04027054
H        2.89616925       0.41258707      -0.49009010
16
Frame=6 idx=000676 GeodesicLength=0.33979091917404175 rxn_smarts="[C:1]([C:2]([C:3]([H:11])([H:12])[H:13])([C:4](=[O:5])[C:6]([H:14])([H:15])[H:16])[H:10])([H:7])([H:8])[H:9]>>[C:1]([C:2]([C:3]([H:11])([H:12])[H:13])=[C:4]([O:5][H:10])[C:6]([H:14])([H:15])[H:16])([H:7])([H:8])[H:9]"
C       -1.57810405       0.90166851      -0.52302579
C       -0.51494993      -0.13584148      -0.16799495
C       -0.72294876      -0.69218698       1.22207850
C        0.81262618       0.12264967      -0.61415869
O        0.83100202       0.14396352      -1.90411457
C        2.12067083      -0.14217909       0.04828909
H       -1.43956690       1.35874164      -1.50383586
H       -1.59593361       1.70479864       0.22084467
H       -2.57073106       0.44563326      -0.55452519
H       -0.32713318      -0.50238507      -1.63391797
H       -0.68859386       0.09381472       1.98625575
H        0.00841510      -1.45261475       1.49783115
H       -1.70131542      -1.17191616       1.30020395
H        2.09390023       0.12044189       1.10458394
H        2.36705388      -1.20555155      -0.01243061
H        2.90560852       0.41096324      -0.46608341
16
Frame=7 idx=000676 GeodesicLength=0.3946898691583822 rxn_smarts="[C:1]([C:2]([C:3]([H:11])([H:12])[H:13])([C:4](=[O:5])[C:6]([H:14])([H:15])[H:16])[H:10])([H:7])([H:8])[H:9]>>[C:1]([C:2]([C:3]([H:11])([H:12])[H:13])=[C:4]([O:5][H:10])[C:6]([H:14])([H:15])[H:16])([H:7])([H:8])[H:9]"
C       -1.58970354       0.89044381      -0.53042855
C       -0.51062857      -0.12620111      -0.16545810
C       -0.71790726      -0.67335928       1.22882650
C        0.81780725       0.15232432      -0.60043082
O        0.83960366       0.18991248      -1.89067164
C        2.12459544      -0.16190973       0.04557249
H       -1.46185900       1.34052772      -1.51602635
H       -1.61897634       1.70040745       0.20484377
H       -2.57529962       0.41902917      -0.56040917
H       -0.31996491      -0.49757263      -1.63288421
H       -0.69596398       0.11985547       1.98553670
H        0.02024333      -1.42244904       1.51660452
H       -1.69018057      -1.16529508       1.30771077
H        2.10203243       0.04950858       1.11331440
H        2.36163624      -1.22342054      -0.06418676
H        2.91456544       0.40819843      -0.44191355
16
Frame=8 idx=000676 GeodesicLength=0.44934860201449833 rxn_smarts="[C:1]([C:2]([C:3]([H:11])([H:12])[H:13])([C:4](=[O:5])[C:6]([H:14])([H:15])[H:16])[H:10])([H:7])([H:8])[H:9]>>[C:1]([C:2]([C:3]([H:11])([H:12])[H:13])=[C:4]([O:5][H:10])[C:6]([H:14])([H:15])[H:16])([H:7])([H:8])[H:9]"
C       -1.60030748       0.87907072      -0.53756921
C       -0.50628866      -0.11706841      -0.16287733
C       -0.71306542      -0.65490057       1.23560902
C        0.82301488       0.18108392      -0.58598292
O        0.84809816       0.23560663      -1.87627261
C        2.12762648      -0.18097212       0.04230024
H       -1.48241713       1.32199234      -1.52776069
H       -1.64078949       1.69552665       0.18915644
H       -2.57886699       0.39286530      -0.56609616
H       -0.31263066      -0.49286983      -1.63190597
H       -0.70320045       0.14528371       1.98476040
H        0.03156873      -1.39261772       1.53521593
H       -1.67928630      -1.15856593       1.31540432
H        2.10800992      -0.02039328       1.11884711
H        2.35550049      -1.23841070      -0.11527100
H        2.92303391       0.40436930      -0.41755755
16
Frame=9 idx=000676 GeodesicLength=0.5038818811640109 rxn_smarts="[C:1]([C:2]([C:3]([H:11])([H:12])[H:13])([C:4](=[O:5])[C:6]([H:14])([H:15])[H:16])[H:10])([H:7])([H:8])[H:9]>>[C:1]([C:2]([C:3]([H:11])([H:12])[H:13])=[C:4]([O:5][H:10])[C:6]([H:14])([H:15])[H:16])([H:7])([H:8])[H:9]"
C       -1.60999160       0.86752974      -0.54449388
C       -0.50191322      -0.10840127      -0.16022877
C       -0.70840774      -0.63671869       1.24246423
C        0.82825114       0.20900149      -0.57080024
O        0.85647917       0.28113032      -1.86087400
C        2.12983039      -0.19945203       0.03848127
H       -1.50135457       1.30310379      -1.53911386
H       -1.66150725       1.69018506       0.17369636
H       -2.58149313       0.36703903      -0.57163192
H       -0.30512937      -0.48828957      -1.63095667
H       -0.71038961       0.17024268       1.98392813
H        0.04246045      -1.36295878       1.55377145
H       -1.66859083      -1.15171941       1.32330917
H        2.11195255      -0.08954532       1.12133584
H        2.34879571      -1.25068719      -0.16593080
H        2.93100791       0.39954016      -0.39295633
16
Frame=10 idx=000676 GeodesicLength=0.5582730954239239 rxn_smarts="[C:1]([C:2]([C:3]([H:11])([H:12])[H:13])([C:4](=[O:5])[C:6]([H:14])([H:15])[H:16])[H:10])([H:7])([H:8])[H:9]>>[C:1]([C:2]([C:3]([H:11])([H:12])[H:13])=[C:4]([O:5][H:10])[C:6]([H:14])([H:15])[H:16])([H:7])([H:8])[H:9]"
C       -1.61873748       0.85593431      -0.55118089
C       -0.49753342      -0.10024425      -0.15753486
C       -0.70395256      -0.61892085       1.24935776
C        0.83348109       0.23593154      -0.55501433
O        0.86471348       0.32613425      -1.84459814
C        2.13126185      -0.21724452       0.03417900
H       -1.51864169       1.28399668      -1.55008491
H       -1.68096723       1.68450799       0.15850345
H       -2.58324882       0.34177128      -0.57693525
H       -0.29765595      -0.48399078      -1.63005649
H       -0.71759154       0.19460061       1.98304560
H        0.05295845      -1.33354987       1.57221903
H       -1.65812226      -1.14489383       1.33134709
H        2.11385567      -0.15758891       1.12091059
H        2.34173815      -1.26026108      -0.21591231
H        2.93844226       0.39381742      -0.36824534
16
Frame=11 idx=000676 GeodesicLength=0.6125936489385726 rxn_smarts="[C:1]([C:2]([C:3]([H:11])([H:12])[H:13])([C:4](=[O:5])[C:6]([H:14])([H:15])[H:16])[H:10])([H:7])([H:8])[H:9]>>[C:1]([C:2]([C:3]([H:11])([H:12])[H:13])=[C:4]([O:5][H:10])[C:6]([H:14])([H:15])[H:16])([H:7])([H:8])[H:9]"
C       -1.62658920       0.84425326      -0.55766283
C       -0.49314159      -0.09258096      -0.15478410
C       -0.69967986      -0.60140567       1.25631389
C        0.83868655       0.26190024      -0.53862019
O        0.87277019       0.37065679      -1.82741004
C        2.13194893      -0.23444865       0.02938253
H       -1.53435332       1.26462639      -1.56071565
H       -1.69924340       1.67850763       0.14351309
H       -2.58416914       0.31698536      -0.58203997
H       -0.29023530      -0.48002091      -1.62918722
H       -0.72485934       0.21850727       1.98209469
H        0.06312374      -1.30419775       1.59064108
H       -1.64783207      -1.13803612       1.33954426
H        2.11379960      -0.22487011       1.11764360
H        2.33451286      -1.26722941      -0.26549718
H        2.94526135       0.38735264      -0.34321598
16
Frame=12 idx=000676 GeodesicLength=0.6667554864101458 rxn_smarts="[C:1]([C:2]([C:3]([H:11])([H:12])[H:13])([C:4](=[O:5])[C:6]([H:14])([H:15])[H:16])[H:10])([H:7])([H:8])[H:9]>>[C:1]([C:2]([C:3]([H:11])([H:12])[H:13])=[C:4]([O:5][H:10])[C:6]([H:14])([H:15])[H:16])([H:7])([H:8])[H:9]"
C       -1.63349506       0.83259878      -0.56388870
C       -0.48873935      -0.08541884      -0.15199027
C       -0.69556963      -0.58427693       1.26324079
C        0.84382345       0.28681507      -0.52175053
O        0.88061139       0.41433201      -1.80941068
C        2.13189370      -0.25092513       0.02419567
H       -1.54843712       1.24512212      -1.57093669
H       -1.71616065       1.67230499       0.12879287
H       -2.58425189       0.29286384      -0.58685087
H       -0.28304820      -0.47657239      -1.62829772
H       -0.73221446       0.24181915       1.98102423
H        0.07300840      -1.27497047       1.60888947
H       -1.63766348      -1.13131306       1.34774394
H        2.11166906      -0.29092590       1.11165547
H        2.32718605      -1.27159618      -0.31435271
H        2.95138779       0.38014293      -0.31806427
16
Frame=13 idx=000676 GeodesicLength=0.7208975210835747 rxn_smarts="[C:1]([C:2]([C:3]([H:11])([H:12])[H:13])([C:4](=[O:5])[C:6]([H:14])([H:15])[H:16])[H:10])([H:7])([H:8])[H:9]>>[C:1]([C:2]([C:3]([H:11])([H:12])[H:13])=[C:4]([O:5][H:10])[C:6]([H:14])([H:15])[H:16])([H:7])([H:8])[H:9]"
C       -1.63959385       0.82095952      -0.56992416
C       -0.48433455      -0.07872331      -0.14914276
C       -0.69162338      -0.56745564       1.27023048
C        0.84892598       0.31075628      -0.50442290
O        0.88827072       0.45730475      -1.79064699
C        2.13121823      -0.26679906       0.01859253
H       -1.56106064       1.22548250      -1.58087067
H       -1.73191382       1.66593836       0.11424190
H       -2.58365789       0.26932961      -0.59141453
H       -0.27608534      -0.47365063      -1.62741551
H       -0.73975400       0.26465894       1.97988493
H        0.08269933      -1.24570026       1.62713669
H       -1.62761671      -1.12471308       1.35606930
H        2.10764089      -0.35615504       1.10299006
H        2.31996661      -1.27348666      -0.36271197
H        2.95691841       0.37225376      -0.29259640
16
Frame=14 idx=000676 GeodesicLength=0.7750806107927922 rxn_smarts="[C:1]([C:2]([C:3]([H:11])([H:12])[H:13])([C:4](=[O:5])[C:6]([H:14])([H:15])[H:16])[H:10])([H:7])([H:8])[H:9]>>[C:1]([C:2]([C:3]([H:11])([H:12])[H:13])=[C:4]([O:5][H:10])[C:6]([H:14])([H:15])[H:16])([H:7])([H:8])[H:9]"
C       -1.64493039       0.80929496      -0.57579753
C       -0.47990415      -0.07244589      -0.14621857
C       -0.68780038      -0.55082480       1.27730342
C        0.85399553       0.33378518      -0.48660823
O        0.89573232       0.49966750      -1.77105743
C        2.12993262      -0.28216086       0.01258411
H       -1.57231787       1.20561954      -1.59055860
H       -1.74658595       1.65940652       0.09978214
H       -2.58240214       0.24627503      -0.59574749
H       -0.26933873      -0.47127902      -1.62649243
H       -0.74752362       0.28716740       1.97865045
H        0.09228387      -1.21614558       1.64545735
H       -1.61758953      -1.11820057       1.36453606
H        2.10166923      -0.42094029       1.09160706
H        2.31297705      -1.27289065      -0.41084845
H        2.96180216       0.36367154      -0.26659186
16
Frame=15 idx=000676 GeodesicLength=0.8292503602330427 rxn_smarts="[C:1]([C:2]([C:3]([H:11])([H:12])[H:13])([C:4](=[O:5])[C:6]([H:14])([H:15])[H:16])[H:10])([H:7])([H:8])[H:9]>>[C:1]([C:2]([C:3]([H:11])([H:12])[H:13])=[C:4]([O:5][H:10])[C:6]([H:14])([H:15])[H:16])([H:7])([H:8])[H:9]"
C       -1.64949611       0.79770893      -0.58147159
C       -0.47546150      -0.06659367      -0.14324423
C       -0.68408883      -0.53448623       1.28440389
C        0.85900967       0.35584631      -0.46845157
O        0.90299168       0.54113926      -1.75080309
C        2.12806597      -0.29692473       0.00623902
H       -1.58219566       1.18567400      -1.59996038
H       -1.76006753       1.65282599       0.08548335
H       -2.58054021       0.22386883      -0.59976552
H       -0.26296005      -0.46964106      -1.62552457
H       -0.75557552       0.30920884       1.97730644
H        0.10183829      -1.18633129       1.66375446
H       -1.60753379      -1.11194993       1.37304895
H        2.09368927      -0.48488788       1.07756993
H        2.30630571      -1.26985029      -0.45843559
H        2.96601861       0.35439295      -0.24014951
16
Frame=16 idx=000676 GeodesicLength=0.8833425537601443 rxn_smarts="[C:1]([C:2]([C:3]([H:11])([H:12])[H:13])([C:4](=[O:5])[C:6]([H:14])([H:15])[H:16])[H:10])([H:7])([H:8])[H:9]>>[C:1]([C:2]([C:3]([H:11])([H:12])[H:13])=[C:4]([O:5][H:10])[C:6]([H:14])([H:15])[H:16])([H:7])([H:8])[H:9]"
C       -1.65330267       0.78629602      -0.58691740
C       -0.47102461      -0.06116239      -0.14025226
C       -0.68045706      -0.51852805       1.29145951
C        0.86394100       0.37689196      -0.45009238
O        0.91002448       0.58145445      -1.73004182
C        2.12565334      -0.31102902      -0.00036007
H       -1.59072695       1.16577347      -1.60903471
H       -1.77226183       1.64628583       0.07140228
H       -2.57815329       0.20228635      -0.60340256
H       -0.25712611      -0.46890521      -1.62449521
H       -0.76391303       0.33063844       1.97581924
H        0.11145471      -1.15627132       1.68189696
H       -1.59738814      -1.10608947       1.38149695
H        2.08369271      -0.54763583       1.06098079
H        2.30004727      -1.26443126      -0.50514854
H        2.96954016       0.34442602      -0.21331079
