12
Frame=0 idx=006796 GeodesicLength=0.0 rxn_smarts="[O:1]=[C:2]([C@@:3]1([H:9])[C:4]([H:10])([H:11])[N:5]1[C:6](=[O:7])[H:12])[H:8]>>[O:1]1[C@@:2]2([H:8])[C@@:3]3([H:9])[C:4]([H:10])([H:11])[N:5]3[C@:6]1([H:12])[O:7]2"
O        1.09969121      -1.54262296      -0.03126000
C        1.02094902      -0.43677002      -0.68858410
C        0.62205944       0.69787775       0.22253678
C       -0.73486629       1.23892672       0.23082026
N       -0.40650580       0.04177405       1.03703458
C       -0.58761911      -1.15842818       0.21088730
O       -0.74941804      -0.95818182      -1.05505416
H        1.63031182      -0.28641660      -1.58184287
H        1.44717555       1.18313750       0.73379588
H       -1.35731693       1.09777590      -0.64091715
H       -0.92119831       2.11635434       0.83650079
H       -1.06326256      -1.99342664       0.72608273
12
Frame=1 idx=006796 GeodesicLength=0.0618009464213925 rxn_smarts="[O:1]=[C:2]([C@@:3]1([H:9])[C:4]([H:10])([H:11])[N:5]1[C:6](=[O:7])[H:12])[H:8]>>[O:1]1[C@@:2]2([H:8])[C@@:3]3([H:9])[C:4]([H:10])([H:11])[N:5]3[C@:6]1([H:12])[O:7]2"
O        1.11999064      -1.54003634      -0.02907938
C        1.02406766      -0.43422429      -0.68687815
C        0.62497047       0.69498693       0.23134712
C       -0.73130442       1.24174006       0.22656500
N       -0.41757296       0.04245194       1.03071021
C       -0.59185482      -1.16226425       0.21325512
O       -0.75769261      -0.96795687      -1.05405788
H        1.60405741      -0.27807126      -1.59830893
H        1.44609876       1.17361723       0.75468969
H       -1.34226339       1.10958078      -0.65480616
H       -0.92096499       2.11895235       0.83159879
H       -1.05753174      -1.99877628       0.73496458
12
Frame=2 idx=006796 GeodesicLength=0.12359852908040786 rxn_smarts="[O:1]=[C:2]([C@@:3]1([H:9])[C:4]([H:10])([H:11])[N:5]1[C:6](=[O:7])[H:12])[H:8]>>[O:1]1[C@@:2]2([H:8])[C@@:3]3([H:9])[C:4]([H:10])([H:11])[N:5]3[C@:6]1([H:12])[O:7]2"
O        1.14064414      -1.53716040      -0.02719018
C        1.02717972      -0.43160760      -0.68535720
C        0.62778820       0.69204981       0.24005127
C       -0.72769491       1.24452731       0.22230768
N       -0.42847260       0.04312472       1.02413507
C       -0.59623102      -1.16606234       0.21551625
O       -0.76619873      -0.97772767      -1.05312183
H        1.57760554      -0.27001506      -1.61384773
H        1.44474695       1.16402971       0.77538840
H       -1.32701237       1.12131399      -0.66845491
H       -0.92064916       2.12149860       0.82672334
H       -1.05170577      -2.00397107       0.74384984
12
Frame=3 idx=006796 GeodesicLength=0.1854022428858188 rxn_smarts="[O:1]=[C:2]([C@@:3]1([H:9])[C:4]([H:10])([H:11])[N:5]1[C:6](=[O:7])[H:12])[H:8]>>[O:1]1[C@@:2]2([H:8])[C@@:3]3([H:9])[C:4]([H:10])([H:11])[N:5]3[C@:6]1([H:12])[O:7]2"
O        1.16166481      -1.53398224      -0.02559154
C        1.03028401      -0.42892314      -0.68401686
C        0.63051020       0.68906496       0.24864589
C       -0.72404366       1.24728950       0.21805273
N       -0.43920696       0.04379207       1.01731627
C       -0.60075988      -1.16981989       0.21767143
O       -0.77494511      -0.98749190      -1.05224694
H        1.55100791      -0.26227119      -1.62847841
H        1.44312167       1.15437471       0.79588571
H       -1.31158603       1.13297854      -0.68185342
H       -0.92025446       2.12399373       0.82188144
H       -1.04579250      -2.00900517       0.75273372
12
Frame=4 idx=006796 GeodesicLength=0.24728292153654607 rxn_smarts="[O:1]=[C:2]([C@@:3]1([H:9])[C:4]([H:10])([H:11])[N:5]1[C:6](=[O:7])[H:12])[H:8]>>[O:1]1[C@@:2]2([H:8])[C@@:3]3([H:9])[C:4]([H:10])([H:11])[N:5]3[C@:6]1([H:12])[O:7]2"
O        1.18308713      -1.53050037      -0.02428289
C        1.03339279      -0.42618422      -0.68286064
C        0.63313701       0.68602590       0.25713187
C       -0.72036967       1.25003550       0.21380707
N       -0.44978506       0.04445767       1.01027327
C       -0.60545393      -1.17353101       0.21972539
O       -0.78394233      -0.99724251      -1.05144524
H        1.52432830      -0.25487475      -1.64224452
H        1.44123295       1.14464073       0.81618513
H       -1.29602243       1.14459112      -0.69500127
H       -0.91980533       2.12644924       0.81708959
H       -1.03979942      -2.01386729       0.76162224
12
Frame=5 idx=006796 GeodesicLength=0.30897161153469144 rxn_smarts="[O:1]=[C:2]([C@@:3]1([H:9])[C:4]([H:10])([H:11])[N:5]1[C:6](=[O:7])[H:12])[H:8]>>[O:1]1[C@@:2]2([H:8])[C@@:3]3([H:9])[C:4]([H:10])([H:11])[N:5]3[C@:6]1([H:12])[O:7]2"
O        1.20485002      -1.52665858      -0.02327407
C        1.03644408      -0.42336611      -0.68185282
C        0.63564698       0.68294318       0.26549952
C       -0.71663031       1.25274377       0.20956671
N       -0.46018960       0.04511541       1.00296090
C       -0.61030955      -1.17720244       0.22166373
O       -0.79318285      -1.00699799      -1.05066419
H        1.49753228      -0.24781955      -1.65507853
H        1.43903021       1.13485167       0.83626145
H       -1.28025428       1.15612069      -0.70786612
H       -0.91923615       2.12883573       0.81231992
H       -1.03370083      -2.01856578       0.77046350
12
Frame=6 idx=006796 GeodesicLength=0.3707653082147957 rxn_smarts="[O:1]=[C:2]([C@@:3]1([H:9])[C:4]([H:10])([H:11])[N:5]1[C:6](=[O:7])[H:12])[H:8]>>[O:1]1[C@@:2]2([H:8])[C@@:3]3([H:9])[C:4]([H:10])([H:11])[N:5]3[C@:6]1([H:12])[O:7]2"
O        1.22705293      -1.52248168      -0.02254676
C        1.03950325      -0.42050027      -0.68101353
C        0.63805986       0.67980120       0.27375946
C       -0.71287486       1.25544012       0.20533898
N       -0.47044662       0.04576977       0.99543680
C       -0.61535371      -1.18082473       0.22350438
O       -0.80268710      -1.01673530      -1.04995746
H        1.47071460      -0.24115152      -1.66710627
H        1.43656476       1.12496889       0.85614785
H       -1.26438039       1.16761207      -0.72047238
H       -0.91861976       2.13118653       0.80760567
H       -1.02753295      -2.02308509       0.77930325
12
Frame=7 idx=006796 GeodesicLength=0.4325004352675751 rxn_smarts="[O:1]=[C:2]([C@@:3]1([H:9])[C:4]([H:10])([H:11])[N:5]1[C:6](=[O:7])[H:12])[H:8]>>[O:1]1[C@@:2]2([H:8])[C@@:3]3([H:9])[C:4]([H:10])([H:11])[N:5]3[C@:6]1([H:12])[O:7]2"
O        1.24966271      -1.51792745      -0.02210267
C        1.04253423      -0.41757958      -0.68031714
C        0.64036148       0.67660566       0.28190356
C       -0.70908105       1.25810877       0.20112876
N       -0.48054361       0.04641815       0.98767890
C       -0.62059239      -1.18439832       0.22523611
O       -0.81245446      -1.02646541      -1.04929741
H        1.44388535      -0.23488265      -1.67828935
H        1.43381221       1.11502257       0.87581008
H       -1.24837699       1.17904088      -0.73278866
H       -0.91791558       2.13348156       0.80294123
H       -1.02129188      -2.02742418       0.78809658
12
Frame=8 idx=006796 GeodesicLength=0.4942665151458056 rxn_smarts="[O:1]=[C:2]([C@@:3]1([H:9])[C:4]([H:10])([H:11])[N:5]1[C:6](=[O:7])[H:12])[H:8]>>[O:1]1[C@@:2]2([H:8])[C@@:3]3([H:9])[C:4]([H:10])([H:11])[N:5]3[C@:6]1([H:12])[O:7]2"
O        1.27272546      -1.51298848      -0.02193823
C        1.04555456      -0.41461675      -0.67976849
C        0.64255627       0.67334905       0.28993284
C       -0.70527037       1.26075960       0.19694268
N       -0.49049128       0.04706167       0.97971142
C       -0.62604100      -1.18791883       0.22686758
O       -0.82249910      -1.03617793      -1.04869653
H        1.41710091      -0.22905090      -1.68868194
H        1.43078763       1.10499653       0.89525643
H       -1.23227901       1.19043105      -0.74482434
H       -0.91715309       2.13573117       0.79834538
H       -1.01499097      -2.03157620       0.79685320
12
Frame=9 idx=006796 GeodesicLength=0.556039887529864 rxn_smarts="[O:1]=[C:2]([C@@:3]1([H:9])[C:4]([H:10])([H:11])[N:5]1[C:6](=[O:7])[H:12])[H:8]>>[O:1]1[C@@:2]2([H:8])[C@@:3]3([H:9])[C:4]([H:10])([H:11])[N:5]3[C@:6]1([H:12])[O:7]2"
O        1.29625104      -1.50763668      -0.02205075
C        1.04855666      -0.41161439      -0.67935470
C        0.64464208       0.67002868       0.29784832
C       -0.70143830       1.26338791       0.19278209
N       -0.50029180       0.04769794       0.97153429
C       -0.63171380      -1.19138603       0.22839923
O       -0.83283109      -1.04587455      -1.04814773
H        1.39038115      -0.22366647      -1.69829570
H        1.42749063       1.09489346       0.91448125
H       -1.21608877       1.20178097      -0.75657334
H       -0.91632239       2.13792956       0.79381655
H       -1.00863542      -2.03554037       0.80556048
12
Frame=10 idx=006796 GeodesicLength=0.6178687414602386 rxn_smarts="[O:1]=[C:2]([C@@:3]1([H:9])[C:4]([H:10])([H:11])[N:5]1[C:6](=[O:7])[H:12])[H:8]>>[O:1]1[C@@:2]2([H:8])[C@@:3]3([H:9])[C:4]([H:10])([H:11])[N:5]3[C@:6]1([H:12])[O:7]2"
O        1.32027824      -1.50186100      -0.02243888
C        1.05155026      -0.40858667      -0.67907539
C        0.64661895       0.66663644       0.30565326
C       -0.69759835       1.26600267       0.18865183
N       -0.50995606       0.04832877       0.96316332
C       -0.63762429      -1.19479719       0.22983773
O       -0.84346104      -1.05554794      -1.04765674
H        1.36376302      -0.21876065      -1.70717411
H        1.42392638       1.08469886       0.93349190
H       -1.19982573       1.21311248      -0.76804178
H       -0.91544281       2.14008813       0.78936681
H       -1.00222857      -2.03931390       0.81422206
12
Frame=11 idx=006796 GeodesicLength=0.6795542685157363 rxn_smarts="[O:1]=[C:2]([C@@:3]1([H:9])[C:4]([H:10])([H:11])[N:5]1[C:6](=[O:7])[H:12])[H:8]>>[O:1]1[C@@:2]2([H:8])[C@@:3]3([H:9])[C:4]([H:10])([H:11])[N:5]3[C@:6]1([H:12])[O:7]2"
O        1.34476825      -1.49559269      -0.02310806
C        1.05448831      -0.40552089      -0.67889628
C        0.64847078       0.66318011       0.31334424
C       -0.69371626       1.26858373       0.18455324
N       -0.51946672       0.04895431       0.95456567
C       -0.64377109      -1.19815356       0.23116676
O       -0.85438480      -1.06521850      -1.04718816
H        1.33720778      -0.21435404      -1.71526940
H        1.42005775       1.07443696       0.95227174
H       -1.18343765       1.22439412      -0.77920127
H       -0.91446214       2.14218141       0.78498264
H       -0.99575419      -2.04289097       0.82277886
12
Frame=12 idx=006796 GeodesicLength=0.7413129114710826 rxn_smarts="[O:1]=[C:2]([C@@:3]1([H:9])[C:4]([H:10])([H:11])[N:5]1[C:6](=[O:7])[H:12])[H:8]>>[O:1]1[C@@:2]2([H:8])[C@@:3]3([H:9])[C:4]([H:10])([H:11])[N:5]3[C@:6]1([H:12])[O:7]2"
O        1.36981033      -1.48883566      -0.02404974
C        1.05741480      -0.40243966      -0.67883505
C        0.65021327       0.65963979       0.32093183
C       -0.68982541       1.27114919       0.18048528
N       -0.52885619       0.04957214       0.94578257
C       -0.65018643      -1.20145246       0.23241132
O       -0.86563397      -1.07486372      -1.04676892
H        1.31077907      -0.21045945      -1.72268034
H        1.41592268       1.06406127       0.97085248
H       -1.16697408       1.23567393      -0.79008753
H       -0.91343181       2.14423082       0.78067681
H       -0.98923227      -2.04627620       0.83128128
12
Frame=13 idx=006796 GeodesicLength=0.8030663279393553 rxn_smarts="[O:1]=[C:2]([C@@:3]1([H:9])[C:4]([H:10])([H:11])[N:5]1[C:6](=[O:7])[H:12])[H:8]>>[O:1]1[C@@:2]2([H:8])[C@@:3]3([H:9])[C:4]([H:10])([H:11])[N:5]3[C@:6]1([H:12])[O:7]2"
O        1.39540665      -1.48154805      -0.02526466
C        1.06031374      -0.39935016      -0.67887298
C        0.65183825       0.65601596       0.32841243
C       -0.68591987       1.27369320       0.17645675
N       -0.53811617       0.05018234       0.93680977
C       -0.65687912      -1.20469230       0.23356405
O       -0.87721321      -1.08448672      -1.04638817
H        1.28449063      -0.20711684      -1.72939677
H        1.41151059       1.05359438       0.98921123
H       -1.15042766       1.24694403      -0.80068285
H       -0.91233590       2.14622891       0.77646042
H       -0.98266793      -2.04946475       0.83969076
12
Frame=14 idx=006796 GeodesicLength=0.8648289581052172 rxn_smarts="[O:1]=[C:2]([C@@:3]1([H:9])[C:4]([H:10])([H:11])[N:5]1[C:6](=[O:7])[H:12])[H:8]>>[O:1]1[C@@:2]2([H:8])[C@@:3]3([H:9])[C:4]([H:10])([H:11])[N:5]3[C@:6]1([H:12])[O:7]2"
O        1.42158999      -1.47368950      -0.02676101
C        1.06318049      -0.39625886      -0.67900311
C        0.65334473       0.65229962       0.33579697
C       -0.68199626       1.27621713       0.17246316
N       -0.54726000       0.05078790       0.92764832
C       -0.66386336      -1.20787344       0.23463157
O       -0.88914131      -1.09409090      -1.04603907
H        1.25833117      -0.20433926      -1.73544456
H        1.40681509       1.04300784       1.00737860
H       -1.13378346       1.25821455      -0.81099959
H       -0.91117051       2.14818321       0.77232183
H       -0.97604658      -2.05245829       0.84800689
12
Frame=15 idx=006796 GeodesicLength=0.9265881042325353 rxn_smarts="[O:1]=[C:2]([C@@:3]1([H:9])[C:4]([H:10])([H:11])[N:5]1[C:6](=[O:7])[H:12])[H:8]>>[O:1]1[C@@:2]2([H:8])[C@@:3]3([H:9])[C:4]([H:10])([H:11])[N:5]3[C@:6]1([H:12])[O:7]2"
O        1.44838330      -1.46522185      -0.02853735
C        1.06601390      -0.39317951      -0.67921435
C        0.65473172       0.64848433       0.34308227
C       -0.67805530       1.27871742       0.16851035
N       -0.55628720       0.05138556       0.91830594
C       -0.67115921      -1.21099273       0.23561670
O       -0.90143112      -1.10366958      -1.04571810
H        1.23233937      -0.20215219      -1.74083273
H        1.40184407       1.03231026       1.02533106
H       -1.11705457       1.26948520      -0.82102622
H       -0.90993527       2.15008627       0.76827099
H       -0.96938970      -2.05525319       0.85621145
12
Frame=16 idx=006796 GeodesicLength=0.988329699215268 rxn_smarts="[O:1]=[C:2]([C@@:3]1([H:9])[C:4]([H:10])([H:11])[N:5]1[C:6](=[O:7])[H:12])[H:8]>>[O:1]1[C@@:2]2([H:8])[C@@:3]3([H:9])[C:4]([H:10])([H:11])[N:5]3[C@:6]1([H:12])[O:7]2"
O        1.47581554      -1.45609481      -0.03058936
C        1.06881536      -0.39012522      -0.67949399
C        0.65599926       0.64456358       0.35026470
C       -0.67409819       1.28118724       0.16460593
N       -0.56519498       0.05197238       0.90878961
C       -0.67878422      -1.21404509       0.23652074
O       -0.91409539      -1.11321475      -1.04542070
H        1.20654301      -0.20059139      -1.74557204
H        1.39660520       1.02151142       1.04304687
H       -1.10025043       1.28075062      -0.83075055
H       -0.90862834       2.15192727       0.76432034
H       -0.96272683      -2.05784127       0.86427845
