11
Frame=0 idx=001612 GeodesicLength=0.0 rxn_smarts="[N:1]([C:2](=[O:3])[C:4]([C:5](=[O:6])[H:11])([H:9])[H:10])([H:7])[H:8]>>[N:1]([C-:2]=[O+:3][C@@:5]1([H:11])[C:4]([H:9])([H:10])[O:6]1)([H:7])[H:8]"
N       -2.17375000      -0.30904528      -0.06234693
C       -0.88219981      -0.08354373       0.10174612
O       -0.24132202       0.15854781      -0.99372114
C        1.23737835      -0.15312121       0.76794206
C        1.17804932       0.54716421      -0.49046221
O        2.23827220      -0.05609451      -0.91325213
H       -2.74290260      -0.52101477       0.73493362
H       -2.61196263      -0.28174797      -0.97398410
H        1.14408774      -1.22394408       0.71502528
H        1.71458191       0.27855322       1.64199511
H        1.13976750       1.64424633      -0.52787569
11
Frame=1 idx=001612 GeodesicLength=0.06196327219523907 rxn_smarts="[N:1]([C:2](=[O:3])[C:4]([C:5](=[O:6])[H:11])([H:9])[H:10])([H:7])[H:8]>>[N:1]([C-:2]=[O+:3][C@@:5]1([H:11])[C:4]([H:9])([H:10])[O:6]1)([H:7])[H:8]"
N       -2.16530651      -0.32481268      -0.05583489
C       -0.88432352      -0.03731300       0.10037772
O       -0.25857966       0.21075650      -1.00116147
C        1.21814527      -0.14886468       0.76076055
C        1.19346714       0.54957731      -0.50179637
O        2.23994597      -0.09287394      -0.89806631
H       -2.71166042      -0.59616523       0.73939116
H       -2.61919085      -0.27435424      -0.95859448
H        1.10638285      -1.21892763       0.72439323
H        1.69023945       0.28629822       1.63613046
H        1.19088028       1.64667939      -0.54559961
11
Frame=2 idx=001612 GeodesicLength=0.12411333994305876 rxn_smarts="[N:1]([C:2](=[O:3])[C:4]([C:5](=[O:6])[H:11])([H:9])[H:10])([H:7])[H:8]>>[N:1]([C-:2]=[O+:3][C@@:5]1([H:11])[C:4]([H:9])([H:10])[O:6]1)([H:7])[H:8]"
N       -2.15553360      -0.33831900      -0.04977913
C       -0.88651320       0.00471621       0.09902642
O       -0.27597636       0.26286870      -1.00741669
C        1.19858904      -0.14476906       0.75357298
C        1.20743243       0.55090569      -0.51271890
O        2.23933988      -0.12832993      -0.88269002
H       -2.67591986      -0.66778231       0.74087997
H       -2.62618118      -0.26708602      -0.94231037
H        1.07007657      -1.21371274       0.73382446
H        1.66565953       0.29459356       1.62982311
H        1.23902675       1.64691490      -0.56221182
11
Frame=3 idx=001612 GeodesicLength=0.18639614013718875 rxn_smarts="[N:1]([C:2](=[O:3])[C:4]([C:5](=[O:6])[H:11])([H:9])[H:10])([H:7])[H:8]>>[N:1]([C-:2]=[O+:3][C@@:5]1([H:11])[C:4]([H:9])([H:10])[O:6]1)([H:7])[H:8]"
N       -2.14522726      -0.34912119      -0.04390650
C       -0.88868204       0.04265667       0.09821241
O       -0.29364380       0.31505357      -1.01197015
C        1.17915033      -0.14092344       0.74636785
C        1.22001820       0.55126760      -0.52324036
O        2.23661386      -0.16240046      -0.86749862
H       -2.63710344      -0.73535664       0.73925651
H       -2.63238174      -0.26117573      -0.92585232
H        1.03542768      -1.20844639       0.74332452
H        1.64151680       0.30322138       1.62300664
H        1.28431141       1.64522465      -0.57769997
11
Frame=4 idx=001612 GeodesicLength=0.24861843249283513 rxn_smarts="[N:1]([C:2](=[O:3])[C:4]([C:5](=[O:6])[H:11])([H:9])[H:10])([H:7])[H:8]>>[N:1]([C-:2]=[O+:3][C@@:5]1([H:11])[C:4]([H:9])([H:10])[O:6]1)([H:7])[H:8]"
N       -2.13470591      -0.35842143      -0.03835330
C       -0.89064665       0.07594153       0.09834125
O       -0.31158165       0.36668079      -1.01438951
C        1.16035530      -0.13721158       0.73927836
C        1.23129935       0.55061268      -0.53346970
O        2.23222573      -0.19496209      -0.85259566
H       -2.59699650      -0.79901366       0.73405801
H       -2.63803515      -0.25482478      -0.90929419
H        1.00316198      -1.20310430       0.75332449
H        1.61845435       0.31258832       1.61560627
H        1.32646916       1.64171453      -0.59250601
11
Frame=5 idx=001612 GeodesicLength=0.31084955818729637 rxn_smarts="[N:1]([C:2](=[O:3])[C:4]([C:5](=[O:6])[H:11])([H:9])[H:10])([H:7])[H:8]>>[N:1]([C-:2]=[O+:3][C@@:5]1([H:11])[C:4]([H:9])([H:10])[O:6]1)([H:7])[H:8]"
N       -2.12353249      -0.36811411      -0.03372650
C       -0.89247510       0.10551427       0.09911884
O       -0.32972153       0.41829654      -1.01470156
C        1.14212166      -0.13385011       0.73212549
C        1.24137875       0.54923232      -0.54336695
O        2.22641389      -0.22585494      -0.83806548
H       -2.55618137      -0.85667155       0.72686629
H       -2.64292548      -0.24944173      -0.89304175
H        0.97294233      -1.19788940       0.76340264
H        1.59620175       0.32198187       1.60773626
H        1.36577757       1.63679685      -0.60634727
11
Frame=6 idx=001612 GeodesicLength=0.3728329746213017 rxn_smarts="[N:1]([C:2](=[O:3])[C:4]([C:5](=[O:6])[H:11])([H:9])[H:10])([H:7])[H:8]>>[N:1]([C-:2]=[O+:3][C@@:5]1([H:11])[C:4]([H:9])([H:10])[O:6]1)([H:7])[H:8]"
N       -2.11282330      -0.37601703      -0.02919084
C       -0.89409097       0.13146316       0.10134655
O       -0.34823960       0.46967942      -1.01217618
C        1.12485818      -0.13045347       0.72522071
C        1.25035786       0.54679827      -0.55319585
O        2.21925462      -0.25581506      -0.82399960
H       -2.51539740      -0.91222454       0.71562200
H       -2.64710385      -0.24356591      -0.87709048
H        0.94495551      -1.19240821       0.77453486
H        1.57571252       0.33231970       1.59917608
H        1.40251642       1.63022368      -0.62024725
11
Frame=7 idx=001612 GeodesicLength=0.4345487837078963 rxn_smarts="[N:1]([C:2](=[O:3])[C:4]([C:5](=[O:6])[H:11])([H:9])[H:10])([H:7])[H:8]>>[N:1]([C-:2]=[O+:3][C@@:5]1([H:11])[C:4]([H:9])([H:10])[O:6]1)([H:7])[H:8]"
N       -2.10218669      -0.38380943      -0.02530678
C       -0.89547965       0.15405057       0.10475080
O       -0.36700416       0.52085816      -1.00686295
C        1.10861452      -0.12726094       0.71844970
C        1.25833014       0.54360059      -0.56293153
O        2.21117667      -0.28437193      -0.81045711
H       -2.47579869      -0.96344050       0.70186480
H       -2.65041104      -0.23814634      -0.86189865
H        0.91923573      -1.18693251       0.78626381
H        1.55689906       0.34300581       1.59007854
H        1.43662411       1.62244651      -0.63395063
11
Frame=8 idx=001612 GeodesicLength=0.4959870254187042 rxn_smarts="[N:1]([C:2](=[O:3])[C:4]([C:5](=[O:6])[H:11])([H:9])[H:10])([H:7])[H:8]>>[N:1]([C-:2]=[O+:3][C@@:5]1([H:11])[C:4]([H:9])([H:10])[O:6]1)([H:7])[H:8]"
N       -2.09112679      -0.39260932      -0.02271787
C       -0.89661330       0.17363143       0.10882876
O       -0.38576971       0.57134742      -0.99914314
C        1.09329578      -0.12449479       0.71165387
C        1.26543048       0.53983937      -0.57254934
O        2.20284949      -0.31103740      -0.79722393
H       -2.43797350      -1.00901060       0.68722314
H       -2.65300175      -0.23333588      -0.84749499
H        0.89573587      -1.18170588       0.79809006
H        1.53930050       0.35354071       1.58057555
H        1.46787292       1.61383494      -0.64724211
11
Frame=9 idx=001612 GeodesicLength=0.557095769607947 rxn_smarts="[N:1]([C:2](=[O:3])[C:4]([C:5](=[O:6])[H:11])([H:9])[H:10])([H:7])[H:8]>>[N:1]([C-:2]=[O+:3][C@@:5]1([H:11])[C:4]([H:9])([H:10])[O:6]1)([H:7])[H:8]"
N       -2.08043822      -0.40069456      -0.02057908
C       -0.89758420       0.19080582       0.11431206
O       -0.40484051       0.62202647      -0.98808149
C        1.07897962      -0.12168060       0.70516409
C        1.27158589       0.53513423      -0.58229057
O        2.19362620      -0.33707816      -0.78446193
H       -2.40127011      -1.05275154       0.66942272
H       -2.65473132      -0.22841089      -0.83391297
H        0.87407040      -1.17611709       0.81112868
H        1.52359927       0.36484144       1.57044376
H        1.49700298       1.60392487      -0.66114525
11
Frame=10 idx=001612 GeodesicLength=0.6180063419340699 rxn_smarts="[N:1]([C:2](=[O:3])[C:4]([C:5](=[O:6])[H:11])([H:9])[H:10])([H:7])[H:8]>>[N:1]([C-:2]=[O+:3][C@@:5]1([H:11])[C:4]([H:9])([H:10])[O:6]1)([H:7])[H:8]"
N       -2.06956992      -0.40895557      -0.01939983
C       -0.89843416       0.20624045       0.12064788
O       -0.42395216       0.67240994      -0.97429192
C        1.06540035      -0.11916110       0.69876379
C        1.27688246       0.52973988      -0.59208805
O        2.18408893      -0.36190943      -0.77195331
H       -2.36570668      -1.09293048       0.65043456
H       -2.65555983      -0.22413900      -0.82136262
H        0.85393602      -1.17053382       0.82461282
H        1.50917282       0.37609290       1.55989387
H        1.52374218       1.59314624      -0.67525719
11
Frame=11 idx=001612 GeodesicLength=0.6786789423378659 rxn_smarts="[N:1]([C:2](=[O:3])[C:4]([C:5](=[O:6])[H:11])([H:9])[H:10])([H:7])[H:8]>>[N:1]([C-:2]=[O+:3][C@@:5]1([H:11])[C:4]([H:9])([H:10])[O:6]1)([H:7])[H:8]"
N       -2.05878794      -0.41693693      -0.01890272
C       -0.89922098       0.22002860       0.12843385
O       -0.44332041       0.72336844      -0.95670223
C        1.05267337      -0.11657644       0.69271678
C        1.28114936       0.52338346      -0.60210259
O        2.17361359      -0.38640387      -0.75990220
H       -2.33124647      -1.13144487       0.62870450
H       -2.65523355      -0.22007302      -0.81002035
H        0.83526257      -1.16446470       0.83939129
H        1.49661463       0.38800545       1.54871800
H        1.54849583       1.58111388      -0.69033433
11
Frame=12 idx=001612 GeodesicLength=0.7392589038721336 rxn_smarts="[N:1]([C:2](=[O:3])[C:4]([C:5](=[O:6])[H:11])([H:9])[H:10])([H:7])[H:8]>>[N:1]([C-:2]=[O+:3][C@@:5]1([H:11])[C:4]([H:9])([H:10])[O:6]1)([H:7])[H:8]"
N       -2.04775659      -0.42492211      -0.01936081
C       -0.89995174       0.23272281       0.13709250
O       -0.46263989       0.77390619      -0.93623299
C        1.04051933      -0.11419255       0.68687044
C        1.28449721       0.51618566      -0.61226971
O        2.16288593      -0.41004691      -0.74789637
H       -2.29724732      -1.16761648       0.60538114
H       -2.65418728      -0.21601091      -0.79951496
H        0.81778354      -1.15819006       0.85491685
H        1.48522374       0.40002221       1.53712109
H        1.57087306       1.56814215      -0.70610719
11
Frame=13 idx=001612 GeodesicLength=0.799656886991732 rxn_smarts="[N:1]([C:2](=[O:3])[C:4]([C:5](=[O:6])[H:11])([H:9])[H:10])([H:7])[H:8]>>[N:1]([C-:2]=[O+:3][C@@:5]1([H:11])[C:4]([H:9])([H:10])[O:6]1)([H:7])[H:8]"
N       -2.03673621      -0.43249080      -0.02042271
C       -0.90060277       0.24425867       0.14690686
O       -0.48194759       0.82423991      -0.91233037
C        1.02905794      -0.11196051       0.68129340
C        1.28684973       0.50813436      -0.62263197
O        2.15177759      -0.43298955      -0.73610517
H       -2.26431145      -1.20154533       0.58028580
H       -2.65181350      -0.21251115      -0.79048496
H        0.80155401      -1.15162005       0.87125816
H        1.47529214       0.41224358       1.52502481
H        1.59088011       1.55424086      -0.72279384
11
Frame=14 idx=001612 GeodesicLength=0.8599760587582086 rxn_smarts="[N:1]([C:2](=[O:3])[C:4]([C:5](=[O:6])[H:11])([H:9])[H:10])([H:7])[H:8]>>[N:1]([C-:2]=[O+:3][C@@:5]1([H:11])[C:4]([H:9])([H:10])[O:6]1)([H:7])[H:8]"
N       -2.02562676      -0.43959699      -0.02204726
C       -0.90116599       0.25503281       0.15748465
O       -0.50104742       0.87357463      -0.88583253
C        1.01807866      -0.11006264       0.67587502
C        1.28833803       0.49933240      -0.63312622
O        2.14080532      -0.45491022      -0.72423560
H       -2.23196757      -1.23298841       0.55415524
H       -2.64838738      -0.20939224      -0.78267482
H        0.78635651      -1.14496939       0.88799706
H        1.46632030       0.42428199       1.51257606
H        1.60829630       1.53969806      -0.74017158
11
Frame=15 idx=001612 GeodesicLength=0.9202560988230816 rxn_smarts="[N:1]([C:2](=[O:3])[C:4]([C:5](=[O:6])[H:11])([H:9])[H:10])([H:7])[H:8]>>[N:1]([C-:2]=[O+:3][C@@:5]1([H:11])[C:4]([H:9])([H:10])[O:6]1)([H:7])[H:8]"
N       -2.01443313      -0.44616059      -0.02412523
C       -0.90164418       0.26518525       0.16876429
O       -0.51989452       0.92171844      -0.85693693
C        1.00750637      -0.10850401       0.67061773
C        1.28900305       0.48978300      -0.64373833
O        2.13009312      -0.47583104      -0.71219818
H       -2.20006971      -1.26211399       0.52705261
H       -2.64393059      -0.20653566      -0.77603280
H        0.77208497      -1.13823442       0.90507155
H        1.45817276       0.43610198       1.49980590
H        1.62311187       1.52459102      -0.75828060
11
Frame=16 idx=001612 GeodesicLength=0.980562428151164 rxn_smarts="[N:1]([C:2](=[O:3])[C:4]([C:5](=[O:6])[H:11])([H:9])[H:10])([H:7])[H:8]>>[N:1]([C-:2]=[O+:3][C@@:5]1([H:11])[C:4]([H:9])([H:10])[O:6]1)([H:7])[H:8]"
N       -2.00319750      -0.45208436      -0.02652745
C       -0.90207166       0.27480750       0.18088465
O       -0.53851410       0.96880888      -0.82545014
C        0.99730318      -0.10714291       0.66564697
C        1.28876732       0.47932658      -0.65449768
O        2.11946178      -0.49607837      -0.69992239
H       -2.16813930      -1.28964101       0.49817542
H       -2.63854591      -0.20352724      -0.77035368
H        0.75865146      -1.13119335       0.92282141
H        1.45089925       0.44798793       1.48667027
H        1.63538547       1.50873635      -0.77744741
