14
Frame=0 idx=000397 GeodesicLength=0.0 rxn_smarts="[C:1]([C:2]([C@@:3]([O:4][H:13])([C:5](=[O:6])[H:14])[H:12])([H:10])[H:11])([H:7])([H:8])[H:9]>>[C:1](/[C:2](=[C:3](\[C:5](=[O:6])[H:14])[H:12])[H:11])([H:7])([H:8])[H:9].[O:4]([H:10])[H:13]"
C       -1.03957755      -1.28481858      -0.32382714
C       -0.77117057       0.17704775      -0.61467117
C        0.49517496       0.78215723      -0.32416481
O       -0.00136797       1.71294164       1.05846668
C        1.60932731      -0.06455670       0.19421577
O        1.84689296      -0.26569550       1.35527566
H       -2.11275605      -1.45835291      -0.23008873
H       -0.58902518      -1.60657429       0.61857524
H       -0.67566828      -1.95925622      -1.10706740
H       -0.88765748       1.09947630       0.60312437
H       -1.27528704       0.58397522      -1.48578506
H        0.83947876       1.58466801      -0.97103655
H        0.36118786       1.25041977       1.83243635
H        2.20044830      -0.55143171      -0.60545324
14
Frame=1 idx=000397 GeodesicLength=0.09031323843944532 rxn_smarts="[C:1]([C:2]([C@@:3]([O:4][H:13])([C:5](=[O:6])[H:14])[H:12])([H:10])[H:11])([H:7])([H:8])[H:9]>>[C:1](/[C:2](=[C:3](\[C:5](=[O:6])[H:14])[H:12])[H:11])([H:7])([H:8])[H:9].[O:4]([H:10])[H:13]"
C       -1.04019259      -1.29201612      -0.33449244
C       -0.77653757       0.17404112      -0.60751735
C        0.49219711       0.77530425      -0.31961908
O        0.00312539       1.73231750       1.06674320
C        1.60942861      -0.06618786       0.19694196
O        1.86221414      -0.23905108       1.35971469
H       -2.11273714      -1.47191064      -0.24524210
H       -0.58876418      -1.62566639       0.60297529
H       -0.67472371      -1.95507730      -1.12652090
H       -0.90674688       1.11745230       0.62360164
H       -1.26838537       0.57457417      -1.48923187
H        0.83132110       1.58358557      -0.96227129
H        0.39177124       1.27848692       1.83292464
H        2.17802984      -0.58585244      -0.59800637
14
Frame=2 idx=000397 GeodesicLength=0.18056974206597104 rxn_smarts="[C:1]([C:2]([C@@:3]([O:4][H:13])([C:5](=[O:6])[H:14])[H:12])([H:10])[H:11])([H:7])([H:8])[H:9]>>[C:1](/[C:2](=[C:3](\[C:5](=[O:6])[H:14])[H:12])[H:11])([H:7])([H:8])[H:9].[O:4]([H:10])[H:13]"
C       -1.04090596      -1.29939800      -0.34549743
C       -0.78199358       0.17072130      -0.60023505
C        0.48915821       0.76811571      -0.31496324
O        0.00777175       1.75177758       1.07489086
C        1.60940830      -0.06818338       0.19981330
O        1.87800104      -0.21209406       1.36335753
H       -2.11279126      -1.48557702      -0.26095867
H       -0.58869331      -1.64510144       0.58684292
H       -0.67380496      -1.95075281      -1.14628626
H       -0.92607063       1.13561906       0.64477984
H       -1.26188106       0.56542410      -1.49182794
H        0.82303746       1.58209088      -0.95342586
H        0.42306175       1.30725778       1.83225644
H        2.15570225      -0.61989970      -0.58874644
14
Frame=3 idx=000397 GeodesicLength=0.2707672886070421 rxn_smarts="[C:1]([C:2]([C@@:3]([O:4][H:13])([C:5](=[O:6])[H:14])[H:12])([H:10])[H:11])([H:7])([H:8])[H:9]>>[C:1](/[C:2](=[C:3](\[C:5](=[O:6])[H:14])[H:12])[H:11])([H:7])([H:8])[H:9].[O:4]([H:10])[H:13]"
C       -1.04171040      -1.30696413      -0.35685112
C       -0.78752474       0.16707218      -0.59281184
C        0.48606694       0.76058175      -0.31018446
O        0.01255515       1.77129814       1.08292658
C        1.60926252      -0.07054817       0.20287152
O        1.89426805      -0.18480486       1.36617696
H       -2.11291310      -1.49934761      -0.27728243
H       -0.58883234      -1.66487800       0.57017388
H       -0.67287637      -1.94627169      -1.16635378
H       -0.94565539       1.15400535       0.66670981
H       -1.25579443       0.55654627      -1.49357200
H        0.81462962       1.58018600      -0.94446924
H        0.45505058       1.33673794       1.83035211
H        2.13347390      -0.65361318      -0.57768600
14
Frame=4 idx=000397 GeodesicLength=0.36091086224125657 rxn_smarts="[C:1]([C:2]([C@@:3]([O:4][H:13])([C:5](=[O:6])[H:14])[H:12])([H:10])[H:11])([H:7])([H:8])[H:9]>>[C:1](/[C:2](=[C:3](\[C:5](=[O:6])[H:14])[H:12])[H:11])([H:7])([H:8])[H:9].[O:4]([H:10])[H:13]"
C       -1.04259822      -1.31471540      -0.36856478
C       -0.79311978       0.16307598      -0.58523654
C        0.48292843       0.75269505      -0.30526731
O        0.01746102       1.79085519       1.09087237
C        1.60898803      -0.07328477       0.20615618
O        1.91103036      -0.15716811       1.36813306
H       -2.11309629      -1.51321890      -0.29426007
H       -0.58919926      -1.68499804       0.55295982
H       -0.67190189      -1.94162199      -1.18671850
H       -0.96552972       1.17264039       0.68944632
H       -1.25014492       0.54795757      -1.49446755
H        0.80609408       1.57787739      -0.93536848
H        0.48774521       1.36694135       1.82712471
H        2.11134296      -0.68703570      -0.56480924
14
Frame=5 idx=000397 GeodesicLength=0.45098324109684684 rxn_smarts="[C:1]([C:2]([C@@:3]([O:4][H:13])([C:5](=[O:6])[H:14])[H:12])([H:10])[H:11])([H:7])([H:8])[H:9]>>[C:1](/[C:2](=[C:3](\[C:5](=[O:6])[H:14])[H:12])[H:11])([H:7])([H:8])[H:9].[O:4]([H:10])[H:13]"
C       -1.04356053      -1.32264944      -0.38064417
C       -0.79876742       0.15871568      -0.57749877
C        0.47974391       0.74445069      -0.30019426
O        0.02248093       1.81041893       1.09876063
C        1.60858033      -0.07639533       0.20970588
O        1.92829421      -0.12918463       1.36917722
H       -2.11333303      -1.52718417      -0.31193953
H       -0.58981753      -1.70545445       0.53520364
H       -0.67083583      -1.93679224      -1.20736201
H       -0.98571495       1.19156533       0.71303355
H       -1.24494450       0.53966596      -1.49452184
H        0.79742466       1.57517409      -0.92608963
H        0.52113821       1.39786447       1.82248031
H        2.08931155      -0.72019489      -0.55011102
14
Frame=6 idx=000397 GeodesicLength=0.5409950734260784 rxn_smarts="[C:1]([C:2]([C@@:3]([O:4][H:13])([C:5](=[O:6])[H:14])[H:12])([H:10])[H:11])([H:7])([H:8])[H:9]>>[C:1](/[C:2](=[C:3](\[C:5](=[O:6])[H:14])[H:12])[H:11])([H:7])([H:8])[H:9].[O:4]([H:10])[H:13]"
C       -1.04458822      -1.33076435      -0.39310316
C       -0.80446068       0.15397566      -0.56958452
C        0.47651697       0.73584143      -0.29495345
O        0.02760905       1.82994960       1.10663352
C        1.60803542      -0.07988151       0.21355702
O        1.94608153      -0.10084210       1.36923867
H       -2.11361174      -1.54123724      -0.33037325
H       -0.59070331      -1.72624891       0.51689314
H       -0.66963383      -1.93176404      -1.22827954
H       -1.00624150       1.21081454       0.73753855
H       -1.24020775       0.53168353      -1.49373761
H        0.78861168       1.57208835      -0.91659678
H        0.55523118       1.42952366       1.81629344
H        2.06736120      -0.75313861      -0.53352605
14
Frame=7 idx=000397 GeodesicLength=0.630954421244888 rxn_smarts="[C:1]([C:2]([C@@:3]([O:4][H:13])([C:5](=[O:6])[H:14])[H:12])([H:10])[H:11])([H:7])([H:8])[H:9]>>[C:1](/[C:2](=[C:3](\[C:5](=[O:6])[H:14])[H:12])[H:11])([H:7])([H:8])[H:9].[O:4]([H:10])[H:13]"
C       -1.04566860      -1.33905519      -0.40595211
C       -0.81018771       0.14883861      -0.56148551
C        0.47325294       0.72686119      -0.28954017
O        0.03284398       1.84940183       1.11454270
C        1.60734859      -0.08374228       0.21774269
O        1.96440086      -0.07214497       1.36823798
H       -2.11391844      -1.55536634      -0.34961500
H       -0.59187685      -1.74737190       0.49802613
H       -0.66824323      -1.92652378      -1.24945331
H       -1.02713337       1.23043586       0.76303317
H       -1.23594577       0.52401817      -1.49212220
H        0.77963936       1.56863182      -0.90685196
H        0.59000925       1.46191707       1.80843058
H        2.04547900      -0.78590009      -0.51499300
14
Frame=8 idx=000397 GeodesicLength=0.7208593360641462 rxn_smarts="[C:1]([C:2]([C@@:3]([O:4][H:13])([C:5](=[O:6])[H:14])[H:12])([H:10])[H:11])([H:7])([H:8])[H:9]>>[C:1](/[C:2](=[C:3](\[C:5](=[O:6])[H:14])[H:12])[H:11])([H:7])([H:8])[H:9].[O:4]([H:10])[H:13]"
C       -1.04678687      -1.34751864      -0.41920587
C       -0.81594414       0.14328773      -0.55319111
C        0.46994950       0.71750676      -0.28394193
O        0.03819711       1.86872600       1.12255160
C        1.60651283      -0.08797578       0.22229438
O        1.98327720      -0.04309467       1.36607243
H       -2.11423274      -1.56956091      -0.36972407
H       -0.59335500      -1.76881945       0.47859263
H       -0.66660550      -1.92105358      -1.27086962
H       -1.04840971       1.25048855       0.78958166
H       -1.23217408       0.51667151      -1.48968491
H        0.77048603       1.56482481      -0.89681927
H        0.62545883       1.49503309       1.79874560
H        2.02362654      -0.81851543      -0.49440151
14
Frame=9 idx=000397 GeodesicLength=0.8107428178189806 rxn_smarts="[C:1]([C:2]([C@@:3]([O:4][H:13])([C:5](=[O:6])[H:14])[H:12])([H:10])[H:11])([H:7])([H:8])[H:9]>>[C:1](/[C:2](=[C:3](\[C:5](=[O:6])[H:14])[H:12])[H:11])([H:7])([H:8])[H:9].[O:4]([H:10])[H:13]"
C       -1.04793523      -1.35616830      -0.43289634
C       -0.82171931       0.13728791      -0.54475220
C        0.46660049       0.70776078      -0.27813940
O        0.04372790       1.88794266       1.13067083
C        1.60551212      -0.09261155       0.22729866
O        2.00272410      -0.01360705       1.36269027
H       -2.11455314      -1.58380061      -0.39079701
H       -0.59517935      -1.79059421       0.45858593
H       -0.66466491      -1.91538028      -1.29250862
H       -1.06995670       1.27105601       0.81747216
H       -1.22884825       0.50959516      -1.48642111
H        0.76120176       1.56063526      -0.88652023
H        0.66140259       1.52881446       1.78710463
H        2.00168792      -0.85093023      -0.47178756
14
Frame=10 idx=000397 GeodesicLength=0.9005897371696141 rxn_smarts="[C:1]([C:2]([C@@:3]([O:4][H:13])([C:5](=[O:6])[H:14])[H:12])([H:10])[H:11])([H:7])([H:8])[H:9]>>[C:1](/[C:2](=[C:3](\[C:5](=[O:6])[H:14])[H:12])[H:11])([H:7])([H:8])[H:9].[O:4]([H:10])[H:13]"
C       -1.04908282      -1.36498462      -0.44701841
C       -0.82751670       0.13083679      -0.53611488
C        0.46320672       0.69763576      -0.27214192
O        0.04942057       1.90694017       1.13902129
C        1.60435887      -0.09759887       0.23272995
O        2.02273092       0.01621015       1.35795477
H       -2.11483400      -1.59808907      -0.41286736
H       -0.59733684      -1.81267736       0.43800665
H       -0.66234048      -1.90945251      -1.31435107
H       -1.09190016       1.29220599       0.84659659
H       -1.22602024       0.50282094      -1.48236326
H        0.75169759       1.55613688      -0.87587347
H        0.69794862       1.56327443       1.77336329
H        1.97966795      -0.88325868      -0.44694217
14
Frame=11 idx=000397 GeodesicLength=0.9903714572257534 rxn_smarts="[C:1]([C:2]([C@@:3]([O:4][H:13])([C:5](=[O:6])[H:14])[H:12])([H:10])[H:11])([H:7])([H:8])[H:9]>>[C:1](/[C:2](=[C:3](\[C:5](=[O:6])[H:14])[H:12])[H:11])([H:7])([H:8])[H:9].[O:4]([H:10])[H:13]"
C       -1.05020159      -1.37395640      -0.46157065
C       -0.83332251       0.12391580      -0.52726813
C        0.45977527       0.68712976      -0.26595544
O        0.05533001       1.92566906       1.14767649
C        1.60306183      -0.10292544       0.23860401
O        2.04327882       0.04633098       1.35174676
H       -2.11503861      -1.61240723      -0.43597960
H       -0.59982932      -1.83505010       0.41686413
H       -0.65955849      -1.90325659      -1.33635870
H       -1.11422786       1.31407027       0.87699467
H       -1.22369476       0.49633444      -1.47751447
H        0.74194642       1.55134879      -0.86484991
H        0.73496320       1.59830415       1.75740498
H        1.95751759      -0.91550747      -0.41979416
14
Frame=12 idx=000397 GeodesicLength=1.0801065115984052 rxn_smarts="[C:1]([C:2]([C@@:3]([O:4][H:13])([C:5](=[O:6])[H:14])[H:12])([H:10])[H:11])([H:7])([H:8])[H:9]>>[C:1](/[C:2](=[C:3](\[C:5](=[O:6])[H:14])[H:12])[H:11])([H:7])([H:8])[H:9].[O:4]([H:10])[H:13]"
C       -1.05126154      -1.38307903      -0.47656120
C       -0.83913386       0.11650787      -0.51820310
C        0.45631279       0.67624626      -0.25958948
O        0.06152421       1.94408460       1.15671277
C        1.60163533      -0.10856601       0.24493400
O        2.06433751       0.07670172       1.34395757
H       -2.11512874      -1.62674613      -0.46018996
H       -0.60265710      -1.85770692       0.39515586
H       -0.65623958      -1.89677560      -1.35850159
H       -1.13694415       1.33675941       0.90872787
H       -1.22188872       0.49011738      -1.47187944
H        0.73191834       1.54630727      -0.85343314
H        0.77235817       1.63382832       1.73909846
H        1.93516734      -0.94767914      -0.39022860
14
Frame=13 idx=000397 GeodesicLength=1.1695946579058487 rxn_smarts="[C:1]([C:2]([C@@:3]([O:4][H:13])([C:5](=[O:6])[H:14])[H:12])([H:10])[H:11])([H:7])([H:8])[H:9]>>[C:1](/[C:2](=[C:3](\[C:5](=[O:6])[H:14])[H:12])[H:11])([H:7])([H:8])[H:9].[O:4]([H:10])[H:13]"
C       -1.05221351      -1.39231561      -0.49194222
C       -0.84491094       0.10860292      -0.50893423
C        0.45282805       0.66499877      -0.25308996
O        0.06810534       1.96208604       1.16626092
C        1.60009354      -0.11449830       0.25169174
O        2.08595618       0.10731793       1.33427656
H       -2.11504357      -1.64103650      -0.48550636
H       -0.60582145      -1.88054885       0.37297552
H       -0.65227574      -1.89003132      -1.38064751
H       -1.15990996       1.36062968       0.94176269
H       -1.22055476       0.48412119      -1.46549013
H        0.72156758       1.54101623      -0.84159039
H        0.80961075       1.66937367       1.71841698
H        1.91256849      -0.97971584      -0.35818362
14
Frame=14 idx=000397 GeodesicLength=1.2590016760901668 rxn_smarts="[C:1]([C:2]([C@@:3]([O:4][H:13])([C:5](=[O:6])[H:14])[H:12])([H:10])[H:11])([H:7])([H:8])[H:9]>>[C:1](/[C:2](=[C:3](\[C:5](=[O:6])[H:14])[H:12])[H:11])([H:7])([H:8])[H:9].[O:4]([H:10])[H:13]"
C       -1.05302356      -1.40167723      -0.50774109
C       -0.85066847       0.10018372      -0.49944692
C        0.44932454       0.65339509      -0.24647117
O        0.07517120       1.97966150       1.17636101
C        1.59846416      -0.12067850       0.25885529
O        2.10803071       0.13805672       1.32264377
H       -2.11473031      -1.65529902      -0.51198849
H       -0.60929678      -1.90361468       0.35027781
H       -0.64758969      -1.88299314      -1.40280955
H       -1.18321437       1.38572381       0.97616995
H       -1.21974039       0.47832475      -1.45834592
H        0.71085078       1.53555338      -0.82932658
H        0.84681343       1.70498059       1.69527697
H        1.88960875      -1.01161699      -0.32345509
14
Frame=15 idx=000397 GeodesicLength=1.3482869358407448 rxn_smarts="[C:1]([C:2]([C@@:3]([O:4][H:13])([C:5](=[O:6])[H:14])[H:12])([H:10])[H:11])([H:7])([H:8])[H:9]>>[C:1](/[C:2](=[C:3](\[C:5](=[O:6])[H:14])[H:12])[H:11])([H:7])([H:8])[H:9].[O:4]([H:10])[H:13]"
C       -1.05363744      -1.41115059      -0.52393808
C       -0.85639459       0.09123651      -0.48976444
C        0.44580165       0.64145599      -0.23978644
O        0.08283930       1.99674091       1.18710518
C        1.59677909      -0.12706178       0.26634970
O        2.13053289       0.16883318       1.30883400
H       -2.11411918      -1.66950393      -0.53965957
H       -0.61306020      -1.92685296       0.32711060
H       -0.64207343      -1.87567715      -1.42490293
H       -1.20679809       1.41232174       1.01196111
H       -1.21943525       0.47267415      -1.45048644
H        0.69970912       1.52996689      -0.81663883
H        0.88366960       1.74033183       1.66971025
H        1.86618654      -1.04331477      -0.28589411
14
Frame=16 idx=000397 GeodesicLength=1.4374580983280196 rxn_smarts="[C:1]([C:2]([C@@:3]([O:4][H:13])([C:5](=[O:6])[H:14])[H:12])([H:10])[H:11])([H:7])([H:8])[H:9]>>[C:1](/[C:2](=[C:3](\[C:5](=[O:6])[H:14])[H:12])[H:11])([H:7])([H:8])[H:9].[O:4]([H:10])[H:13]"
C       -1.05400464      -1.42073120      -0.54052416
C       -0.86209580       0.08174454      -0.47992299
C        0.44225051       0.62920681      -0.23310035
O        0.09124601       2.01326408       1.19858398
C        1.59506925      -0.13359479       0.27407057
O        2.15349268       0.19957785       1.29260896
H       -2.11313794      -1.68363831      -0.56855329
H       -0.61708734      -1.95022447       0.30350990
H       -0.63561903      -1.86810682      -1.44685074
H       -1.23060820       1.44070689       1.04913943
H       -1.21964660       0.46710548      -1.44196972
H        0.68807934       1.52432321      -0.80354459
H        0.91990661       1.77509765       1.64183537
H        1.84215516      -1.07473093      -0.24528238
