17
Frame=0 idx=007108 GeodesicLength=0.0 rxn_smarts="[C:1]([C@@:2]1([H:11])[C:3]([H:12])([H:13])[O:4][C@:5]([C:6]([H:15])([H:16])[H:17])([H:14])[O:7]1)([H:8])([H:9])[H:10]>>[C:1]([C@@:2]1([H:11])[C-:3]([H:12])[O+:4]=[C:5]([C:6]([H:15])([H:16])[H:17])[O:7]1)([H:8])([H:9])[H:10].[H:13][H:14]"
C        2.07492389       0.62694090      -0.68624321
C        1.15231779      -0.45024596      -0.14745844
C        0.66606363      -0.33509600       1.28635065
O       -0.53857518       0.37589832       1.15411874
C       -1.05142034       0.00794639       0.03557120
C       -2.37753395       0.46966364      -0.42962484
O       -0.13551278      -0.36749312      -0.85091649
H        2.21868259       0.51141814      -1.76281657
H        3.04800975       0.54937018      -0.19709206
H        1.66740682       1.61992725      -0.48774199
H        1.56193816      -1.44070355      -0.36299244
H        1.30081336       0.11593083       2.03999542
H       -0.35272880      -1.67327193       1.22955310
H       -1.11022347      -1.76557626       0.83749709
H       -2.28060392       1.42097553      -0.96118683
H       -2.79889487      -0.26211100      -1.11640463
H       -3.04466273       0.59642667       0.41939128
17
Frame=1 idx=007108 GeodesicLength=0.0709238986294319 rxn_smarts="[C:1]([C@@:2]1([H:11])[C:3]([H:12])([H:13])[O:4][C@:5]([C:6]([H:15])([H:16])[H:17])([H:14])[O:7]1)([H:8])([H:9])[H:10]>>[C:1]([C@@:2]1([H:11])[C-:3]([H:12])[O+:4]=[C:5]([C:6]([H:15])([H:16])[H:17])[O:7]1)([H:8])([H:9])[H:10].[H:13][H:14]"
C        2.07999667       0.62602595      -0.68334826
C        1.14992836      -0.44728492      -0.15086716
C        0.66613179      -0.33833210       1.28548904
O       -0.53927051       0.37944477       1.15158295
C       -1.05681559      -0.00244541       0.03596694
C       -2.38134244       0.46510778      -0.42897087
O       -0.13534414      -0.35540801      -0.85579546
H        2.22549569       0.51511201      -1.76011342
H        3.05174651       0.54015913      -0.19293120
H        1.67803720       1.62047265      -0.48077264
H        1.55321226      -1.43934713      -0.37169534
H        1.30336235       0.12566539       2.02973942
H       -0.34519404      -1.67607915       1.24380214
H       -1.11598625      -1.75784113       0.83387416
H       -2.28155545       1.41620553      -0.95989217
H       -2.80448184      -0.26533357      -1.11630732
H       -3.04792057       0.59387819       0.42023918
17
Frame=2 idx=007108 GeodesicLength=0.14179773091769962 rxn_smarts="[C:1]([C@@:2]1([H:11])[C:3]([H:12])([H:13])[O:4][C@:5]([C:6]([H:15])([H:16])[H:17])([H:14])[O:7]1)([H:8])([H:9])[H:10]>>[C:1]([C@@:2]1([H:11])[C-:3]([H:12])[O+:4]=[C:5]([C:6]([H:15])([H:16])[H:17])[O:7]1)([H:8])([H:9])[H:10].[H:13][H:14]"
C        2.08513509       0.62501341      -0.68049521
C        1.14749549      -0.44420359      -0.15426951
C        0.66620717      -0.34137599       1.28462409
O       -0.54012752       0.38291727       1.14904945
C       -1.06204657      -0.01262845       0.03624670
C       -2.38512506       0.46050621      -0.42831050
O       -0.13523106      -0.34295037      -0.86052421
H        2.23235794       0.51863711      -1.75742518
H        3.05548764       0.53073241      -0.18886171
H        1.68888430       1.62093564      -0.47386829
H        1.54428772      -1.43785553      -0.38041377
H        1.30568344       0.13531058       2.01951549
H       -0.33735148      -1.67870410       1.25832363
H       -1.12182553      -1.75025029       0.83004942
H       -2.28273698       1.41150318      -0.95842305
H       -2.80990172      -0.26856679      -1.11632127
H       -3.05119287       0.59097931       0.42110393
17
Frame=3 idx=007108 GeodesicLength=0.21247729076635896 rxn_smarts="[C:1]([C@@:2]1([H:11])[C:3]([H:12])([H:13])[O:4][C@:5]([C:6]([H:15])([H:16])[H:17])([H:14])[O:7]1)([H:8])([H:9])[H:10]>>[C:1]([C@@:2]1([H:11])[C-:3]([H:12])[O+:4]=[C:5]([C:6]([H:15])([H:16])[H:17])[O:7]1)([H:8])([H:9])[H:10].[H:13][H:14]"
C        2.09030390       0.62391617      -0.67769079
C        1.14502567      -0.44101548      -0.15765869
C        0.66629700      -0.34425701       1.28376347
O       -0.54114108       0.38629102       1.14653897
C       -1.06710734      -0.02262051       0.03641324
C       -2.38885800       0.45588122      -0.42765559
O       -0.13517216      -0.33017904      -0.86508452
H        2.23923574       0.52199610      -1.75475821
H        3.05919742       0.52115262      -0.18488619
H        1.69987017       1.62131313      -0.46704985
H        1.53520011      -1.43622876      -0.38913457
H        1.30779166       0.14484729       2.00933440
H       -0.32918315      -1.68116863       1.27312549
H       -1.12776637      -1.74281366       0.82603060
H       -2.28408612       1.40688147      -0.95680464
H       -2.81514939      -0.27178511      -1.11645149
H       -3.05445806       0.58778918       0.42196838
17
Frame=4 idx=007108 GeodesicLength=0.28273996010790436 rxn_smarts="[C:1]([C@@:2]1([H:11])[C:3]([H:12])([H:13])[O:4][C@:5]([C:6]([H:15])([H:16])[H:17])([H:14])[O:7]1)([H:8])([H:9])[H:10]>>[C:1]([C@@:2]1([H:11])[C-:3]([H:12])[O+:4]=[C:5]([C:6]([H:15])([H:16])[H:17])[O:7]1)([H:8])([H:9])[H:10].[H:13][H:14]"
C        2.09547224       0.62274875      -0.67494035
C        1.14252686      -0.43773476      -0.16102921
C        0.66640726      -0.34700830       1.28291357
O       -0.54229959       0.38954940       1.14406780
C       -1.07199369      -0.03243474       0.03646682
C       -2.39252241       0.45125341      -0.42701823
O       -0.13516481      -0.31715214      -0.86946195
H        2.24610070       0.52519622      -1.75211856
H        3.06284544       0.51148230      -0.18100347
H        1.71092101       1.62160483      -0.46033556
H        1.52598609      -1.43446843      -0.39784633
H        1.30970311       0.15424517       1.99920915
H       -0.32068460      -1.68349359       1.28820036
H       -1.13382542      -1.73553481       0.82184401
H       -2.28554834       1.40234787      -0.95506966
H       -2.82022828      -0.27497006      -1.11669627
H       -3.05769559       0.58436888       0.42281787
17
Frame=5 idx=007108 GeodesicLength=0.35340864142306533 rxn_smarts="[C:1]([C@@:2]1([H:11])[C:3]([H:12])([H:13])[O:4][C@:5]([C:6]([H:15])([H:16])[H:17])([H:14])[O:7]1)([H:8])([H:9])[H:10]>>[C:1]([C@@:2]1([H:11])[C-:3]([H:12])[O+:4]=[C:5]([C:6]([H:15])([H:16])[H:17])[O:7]1)([H:8])([H:9])[H:10].[H:13][H:14]"
C        2.10056242       0.62152937      -0.67226650
C        1.14000139      -0.43438926      -0.16435537
C        0.66655769      -0.34964544       1.28210136
O       -0.54364458       0.39257928       1.14168239
C       -1.07670270      -0.04213533       0.03643591
C       -2.39605530       0.44667747      -0.42641081
O       -0.13521681      -0.30399845      -0.87361735
H        2.25286799       0.52822184      -1.74952721
H        3.06636506       0.50183348      -0.17724052
H        1.72188913       1.62180986      -0.45378574
H        1.51670501      -1.43258558      -0.40649585
H        1.31142465       0.16356174       1.98913936
H       -0.31167624      -1.68575898       1.30370625
H       -1.14014302      -1.72845989       0.81732795
H       -2.28696667       1.39795281      -0.95320420
H       -2.82509840      -0.27801197      -1.11709615
H       -3.06086963       0.58081903       0.42360647
17
Frame=6 idx=007108 GeodesicLength=0.42410568406051335 rxn_smarts="[C:1]([C@@:2]1([H:11])[C:3]([H:12])([H:13])[O:4][C@:5]([C:6]([H:15])([H:16])[H:17])([H:14])[O:7]1)([H:8])([H:9])[H:10]>>[C:1]([C@@:2]1([H:11])[C-:3]([H:12])[O+:4]=[C:5]([C:6]([H:15])([H:16])[H:17])[O:7]1)([H:8])([H:9])[H:10].[H:13][H:14]"
C        2.10557651       0.62026500      -0.66966777
C        1.13745687      -0.43098433      -0.16763818
C        0.66675296      -0.35218786       1.28132572
O       -0.54515458       0.39539104       1.13940039
C       -1.08124407      -0.05172326       0.03630892
C       -2.39946860       0.44215795      -0.42584514
O       -0.13532421      -0.29073602      -0.87755126
H        2.25953889       0.53108857      -1.74698588
H        3.06976292       0.49221720      -0.17359319
H        1.73276825       1.62193352      -0.44739475
H        1.50737216      -1.43058340      -0.41508389
H        1.31297295       0.17277221       1.97913754
H       -0.30215271      -1.68794586       1.31960318
H       -1.14673733      -1.72160373       0.81254354
H       -2.28834209       1.39370063      -0.95123841
H       -2.82979159      -0.28091781      -1.11765490
H       -3.06398633       0.57715615       0.42433407
17
Frame=7 idx=007108 GeodesicLength=0.495542818895734 rxn_smarts="[C:1]([C@@:2]1([H:11])[C:3]([H:12])([H:13])[O:4][C@:5]([C:6]([H:15])([H:16])[H:17])([H:14])[O:7]1)([H:8])([H:9])[H:10]>>[C:1]([C@@:2]1([H:11])[C-:3]([H:12])[O+:4]=[C:5]([C:6]([H:15])([H:16])[H:17])[O:7]1)([H:8])([H:9])[H:10].[H:13][H:14]"
C        2.11046155       0.61896219      -0.66716053
C        1.13489199      -0.42753952      -0.17085488
C        0.66700852      -0.35462638       1.28060779
O       -0.54685742       0.39787378       1.13726461
C       -1.08562869      -0.06125364       0.03610695
C       -2.40272585       0.43773784      -0.42532968
O       -0.13549011      -0.27746346      -0.88123558
H        2.26605478       0.53377606      -1.74451072
H        3.07299457       0.48269527      -0.17008352
H        1.74346824       1.62197446      -0.44120508
H        1.49802288      -1.42847342      -0.42356079
H        1.31434115       0.18195285       1.96920040
H       -0.29189505      -1.69008497       1.33603312
H       -1.15375666      -1.71502111       0.80732531
H       -2.28956487       1.38963906      -0.94913715
H       -2.83429349      -0.28358121      -1.11842174
H       -3.06703154       0.57343219       0.42496149
17
Frame=8 idx=007108 GeodesicLength=0.5665897142723402 rxn_smarts="[C:1]([C@@:2]1([H:11])[C:3]([H:12])([H:13])[O:4][C@:5]([C:6]([H:15])([H:16])[H:17])([H:14])[O:7]1)([H:8])([H:9])[H:10]>>[C:1]([C@@:2]1([H:11])[C-:3]([H:12])[O+:4]=[C:5]([C:6]([H:15])([H:16])[H:17])[O:7]1)([H:8])([H:9])[H:10].[H:13][H:14]"
C        2.11526741       0.61761363      -0.66472545
C        1.13230428      -0.42404123      -0.17402973
C        0.66731062      -0.35698088       1.27992522
O       -0.54873364       0.40013682       1.13524638
C       -1.08985297      -0.07067386       0.03580218
C       -2.40586703       0.43337734      -0.42485941
O       -0.13571230      -0.26409724      -0.88470044
H        2.27246576       0.53631471      -1.74208717
H        3.07610594       0.47319241      -0.16669083
H        1.75408662       1.62193704      -0.43515781
H        1.48861807      -1.42625016      -0.43197938
H        1.31554050       0.19105100       1.95931841
H       -0.28108231      -1.69214727       1.35291112
H       -1.16106363      -1.70865318       0.80179071
H       -2.29074310       1.38572229      -0.94693618
H       -2.83861886      -0.28610172      -1.11935165
H       -3.07002534       0.56960031       0.42552402
17
Frame=9 idx=007108 GeodesicLength=0.6371276261191409 rxn_smarts="[C:1]([C@@:2]1([H:11])[C:3]([H:12])([H:13])[O:4][C@:5]([C:6]([H:15])([H:16])[H:17])([H:14])[O:7]1)([H:8])([H:9])[H:10]>>[C:1]([C@@:2]1([H:11])[C-:3]([H:12])[O+:4]=[C:5]([C:6]([H:15])([H:16])[H:17])[O:7]1)([H:8])([H:9])[H:10].[H:13][H:14]"
C        2.11999899       0.61621554      -0.66235855
C        1.12969125      -0.42048669      -0.17716432
C        0.66766044      -0.35924700       1.27927423
O       -0.55078035       0.40217849       1.13335670
C       -1.09392625      -0.07998707       0.03539064
C       -2.40890167       0.42907473      -0.42443696
O       -0.13598910      -0.25063329      -0.88794487
H        2.27877101       0.53871297      -1.73971280
H        3.07910311       0.46368139      -0.16342090
H        1.76464684       1.62181895      -0.42923220
H        1.47915004      -1.42391003      -0.44034475
H        1.31657138       0.20008312       1.94948591
H       -0.26967897      -1.69410551       1.37025761
H       -1.16867205      -1.70252166       0.79591888
H       -2.29188559       1.38194809      -0.94463835
H       -2.84278286      -0.28847915      -1.12044814
H       -3.07297623       0.56565713       0.42601787
17
Frame=10 idx=007108 GeodesicLength=0.7080483805556052 rxn_smarts="[C:1]([C@@:2]1([H:11])[C:3]([H:12])([H:13])[O:4][C@:5]([C:6]([H:15])([H:16])[H:17])([H:14])[O:7]1)([H:8])([H:9])[H:10]>>[C:1]([C@@:2]1([H:11])[C-:3]([H:12])[O+:4]=[C:5]([C:6]([H:15])([H:16])[H:17])[O:7]1)([H:8])([H:9])[H:10].[H:13][H:14]"
C        2.12458825       0.61478330      -0.66008464
C        1.12705455      -0.41690733      -0.18022831
C        0.66807863      -0.36142546       1.27868475
O       -0.55304619       0.40385430       1.13164860
C       -1.09786145      -0.08925910       0.03489889
C       -2.41178047       0.42489102      -0.42407566
O       -0.13632837      -0.23720115      -0.89093733
H        2.28489772       0.54094679      -1.73741320
H        3.08193260       0.45426862      -0.16029349
H        1.77501325       1.62162600      -0.42350144
H        1.46967325      -1.42147784      -0.44858747
H        1.31743097       0.20912749       1.93970176
H       -0.25739810      -1.69604054       1.38827423
H       -1.17678029      -1.69667854       0.78949690
H       -2.29284138       1.37837957      -0.94221325
H       -2.84676529      -0.29057927      -1.12176525
H       -3.07586768       0.56169214       0.42639493
17
Frame=11 idx=007108 GeodesicLength=0.7788347863000953 rxn_smarts="[C:1]([C@@:2]1([H:11])[C:3]([H:12])([H:13])[O:4][C@:5]([C:6]([H:15])([H:16])[H:17])([H:14])[O:7]1)([H:8])([H:9])[H:10]>>[C:1]([C@@:2]1([H:11])[C-:3]([H:12])[O+:4]=[C:5]([C:6]([H:15])([H:16])[H:17])[O:7]1)([H:8])([H:9])[H:10].[H:13][H:14]"
C        2.12905995       0.61330586      -0.65789682
C        1.12438987      -0.41329624      -0.18323196
C        0.66856097      -0.36351322       1.27814705
O       -0.55552367       0.40520396       1.13012273
C       -1.10166684      -0.09847682       0.03431143
C       -2.41452825       0.42081199      -0.42377561
O       -0.13672935      -0.22375926      -0.89369025
H        2.29087233       0.54301593      -1.73518290
H        3.08461702       0.44490538      -0.15730355
H        1.78524225       1.62135577      -0.41794350
H        1.46016125      -1.41895285      -0.45672763
H        1.31811632       0.21818427       1.92995948
H       -0.24426947      -1.69789992       1.40695856
H       -1.18533945      -1.69113633       0.78254918
H       -2.29366549       1.37502169      -0.93964249
H       -2.85057445      -0.29241860      -1.12332087
H       -3.07872298       0.55764839       0.42666714
17
Frame=12 idx=007108 GeodesicLength=0.8495442782919573 rxn_smarts="[C:1]([C@@:2]1([H:11])[C:3]([H:12])([H:13])[O:4][C@:5]([C:6]([H:15])([H:16])[H:17])([H:14])[O:7]1)([H:8])([H:9])[H:10]>>[C:1]([C@@:2]1([H:11])[C-:3]([H:12])[O+:4]=[C:5]([C:6]([H:15])([H:16])[H:17])[O:7]1)([H:8])([H:9])[H:10].[H:13][H:14]"
C        2.13341864       0.61177357      -0.65579681
C        1.12169086      -0.40965257      -0.18617210
C        0.66911040      -0.36549384       1.27766332
O       -0.55823624       0.40619652       1.12879675
C       -1.10535791      -0.10765125       0.03362624
C       -2.41715484       0.41684212      -0.42353739
O       -0.13719453      -0.21030075      -0.89620068
H        2.29669654       0.54491151      -1.73302538
H        3.08716332       0.43556293      -0.15445911
H        1.79536200       1.62100619      -0.41255690
H        1.45059880      -1.41633831      -0.46475903
H        1.31861594       0.22730572       1.92024710
H       -0.23017809      -1.69967085       1.42640055
H       -1.19439911      -1.68592117       0.77498391
H       -2.29435955       1.37189237      -0.93689406
H       -2.85421112      -0.29396440      -1.12514433
H       -3.08156511       0.55350220       0.42682790
17
Frame=13 idx=007108 GeodesicLength=0.9202280997694903 rxn_smarts="[C:1]([C@@:2]1([H:11])[C:3]([H:12])([H:13])[O:4][C@:5]([C:6]([H:15])([H:16])[H:17])([H:14])[O:7]1)([H:8])([H:9])[H:10]>>[C:1]([C@@:2]1([H:11])[C-:3]([H:12])[O+:4]=[C:5]([C:6]([H:15])([H:16])[H:17])[O:7]1)([H:8])([H:9])[H:10].[H:13][H:14]"
C        2.13766910       0.61017280      -0.65378482
C        1.11894623      -0.40597286      -0.18904513
C        0.66972713      -0.36734563       1.27723569
O       -0.56121263       0.40679704       1.12769195
C       -1.10894605      -0.11679054       0.03284028
C       -2.41966646       0.41298298      -0.42336207
O       -0.13772806      -0.19680531      -0.89846571
H        2.30236373       0.54662428      -1.73094362
H        3.08957794       0.42619655      -0.15177280
H        1.80541077       1.62057304      -0.40733135
H        1.44095841      -1.41363715      -0.47267738
H        1.31891076       0.23655338       1.91054916
H       -0.21499928      -1.70133131       1.44671293
H       -1.20399815      -1.68106312       0.76667866
H       -2.29492883       1.36900812      -0.93393253
H       -2.85767328      -0.29518991      -1.12726312
H       -3.08441132       0.54922761       0.42686987
17
Frame=14 idx=007108 GeodesicLength=0.9909169943725462 rxn_smarts="[C:1]([C@@:2]1([H:11])[C:3]([H:12])([H:13])[O:4][C@:5]([C:6]([H:15])([H:16])[H:17])([H:14])[O:7]1)([H:8])([H:9])[H:10]>>[C:1]([C@@:2]1([H:11])[C-:3]([H:12])[O+:4]=[C:5]([C:6]([H:15])([H:16])[H:17])[O:7]1)([H:8])([H:9])[H:10].[H:13][H:14]"
C        2.14179636       0.60850242      -0.65186898
C        1.11615416      -0.40226949      -0.19184384
C        0.67041813      -0.36906869       1.27687202
O       -0.56447562       0.40695181       1.12683361
C       -1.11244738      -0.12592008       0.03195203
C       -2.42206013       0.40925847      -0.42325644
O       -0.13833428      -0.18330437      -0.90047814
H        2.30786280       0.54813871      -1.72894653
H        3.09185029       0.41682877      -0.14924672
H        1.81535929       1.62005547      -0.40229430
H        1.43124951      -1.41086237      -0.48046191
H        1.31899120       0.24595849       1.90086011
H       -0.19858818      -1.70287046       1.46801182
H       -1.21420123      -1.67660646       0.75753764
H       -2.29533797       1.36640745      -0.93072724
H       -2.86096088      -0.29602934      -1.12971989
H       -3.08727608       0.54482966       0.42677675
17
Frame=15 idx=007108 GeodesicLength=1.061609712033458 rxn_smarts="[C:1]([C@@:2]1([H:11])[C:3]([H:12])([H:13])[O:4][C@:5]([C:6]([H:15])([H:16])[H:17])([H:14])[O:7]1)([H:8])([H:9])[H:10]>>[C:1]([C@@:2]1([H:11])[C-:3]([H:12])[O+:4]=[C:5]([C:6]([H:15])([H:16])[H:17])[O:7]1)([H:8])([H:9])[H:10].[H:13][H:14]"
C        2.14578016       0.60675887      -0.65005607
C        1.11330886      -0.39855633      -0.19456092
C        0.67118753      -0.37066210       1.27657799
O       -0.56804984       0.40660233       1.12624663
C       -1.11587471      -0.13506561       0.03095868
C       -2.42432660       0.40569314      -0.42322539
O       -0.13901844      -0.16982879      -0.90223061
H        2.31317773       0.54943406      -1.72704019
H        3.09396293       0.40748184      -0.14688103
H        1.82517302       1.61945112      -0.39747362
H        1.42147628      -1.40802916      -0.48809154
H        1.31883851       0.25555664       1.89116944
H       -0.18079012      -1.70426766       1.49042306
H       -1.22506690      -1.67259703       0.74744820
H       -2.29554544       1.36412905      -0.92723955
H       -2.86406651      -0.29641240      -1.13255767
H       -3.09016645       0.54031206       0.42653259
17
Frame=16 idx=007108 GeodesicLength=1.1323094012855497 rxn_smarts="[C:1]([C@@:2]1([H:11])[C:3]([H:12])([H:13])[O:4][C@:5]([C:6]([H:15])([H:16])[H:17])([H:14])[O:7]1)([H:8])([H:9])[H:10]>>[C:1]([C@@:2]1([H:11])[C-:3]([H:12])[O+:4]=[C:5]([C:6]([H:15])([H:16])[H:17])[O:7]1)([H:8])([H:9])[H:10].[H:13][H:14]"
C        2.14960576       0.60493551      -0.64835230
C        1.11040335      -0.39484573      -0.19718901
C        0.67203868      -0.37212161       1.27635989
O       -0.57196528       0.40568384       1.12595816
C       -1.11924415      -0.14425173       0.02985514
C       -2.42646214       0.40230985      -0.42327409
O       -0.13978607      -0.15639901      -0.90371674
H        2.31829389       0.55049044      -1.72523170
H        3.09590507       0.39816423      -0.14467862
H        1.83483216       1.61875669      -0.39289173
H        1.41163663      -1.40515300      -0.49554642
H        1.31842973       0.26538860       1.88146589
H       -0.16143063      -1.70548818       1.51409328
H       -1.23665510      -1.66908634       0.73627461
H       -2.29551920       1.36221161      -0.92342737
H       -2.86698704      -0.29626874      -1.13582054
H       -3.09309566       0.53567354       0.42612155
