11
Frame=0 idx=001092 GeodesicLength=0.0 rxn_smarts="[C:1]([c:2]1[c:3]([H:10])[c:4]([H:11])[n:5][o:6]1)([H:7])([H:8])[H:9]>>[C:1]([C:2]1=[C:3]=[C:4]([H:11])[N:5]([H:10])[O:6]1)([H:7])([H:8])[H:9]"
C       -1.81010216       0.01745885       0.25028080
C       -0.33546467       0.10714888       0.10058435
C        0.53246565       1.14426041      -0.08773504
C        1.74911573       0.40540484      -0.12159193
N        1.58427414      -0.99914380       0.04771299
O        0.29043575      -1.13978613       0.14334069
H       -2.08513818      -0.50885601       1.16593461
H       -2.21332599       1.02617314       0.28271200
H       -2.25954398      -0.51386604      -0.59129623
H        1.77077051      -0.28882288      -1.13207994
H        2.77651324       0.75002877      -0.05786231
11
Frame=1 idx=001092 GeodesicLength=0.14873634451256532 rxn_smarts="[C:1]([c:2]1[c:3]([H:10])[c:4]([H:11])[n:5][o:6]1)([H:7])([H:8])[H:9]>>[C:1]([C:2]1=[C:3]=[C:4]([H:11])[N:5]([H:10])[O:6]1)([H:7])([H:8])[H:9]"
C       -1.82003609       0.02256607       0.26098377
C       -0.35271933       0.09811867       0.04594980
C        0.52650886       1.13272172      -0.09117323
C        1.74160991       0.39879939      -0.11522125
N        1.56023030      -0.99682038       0.06384439
O        0.26329660      -1.15104729       0.06725952
H       -2.06266920      -0.50173240       1.18706667
H       -2.21374170       1.03452623       0.30974729
H       -2.30856634      -0.50481737      -0.56115639
H        1.91939511      -0.33894764      -1.11033001
H        2.74669186       0.80663299      -0.05697056
11
Frame=2 idx=001092 GeodesicLength=0.2950108923245883 rxn_smarts="[C:1]([c:2]1[c:3]([H:10])[c:4]([H:11])[n:5][o:6]1)([H:7])([H:8])[H:9]>>[C:1]([C:2]1=[C:3]=[C:4]([H:11])[N:5]([H:10])[O:6]1)([H:7])([H:8])[H:9]"
C       -1.82917945       0.02715246       0.27035557
C       -0.36934927       0.09502398       0.00589612
C        0.52081827       1.12412863      -0.07999764
C        1.73289537       0.39288167      -0.12307037
N        1.53245849      -0.99111682       0.07888270
O        0.23801555      -1.15534823      -0.00383016
H       -2.04640406      -0.50596387       1.19760836
H       -2.21524975       1.04056529       0.34263895
H       -2.34734428      -0.48847792      -0.54089726
H        2.07052267      -0.40053196      -1.06533585
H        2.71281646       0.86168676      -0.08225041
11
Frame=3 idx=001092 GeodesicLength=0.4401244172734551 rxn_smarts="[C:1]([c:2]1[c:3]([H:10])[c:4]([H:11])[n:5][o:6]1)([H:7])([H:8])[H:9]>>[C:1]([C:2]1=[C:3]=[C:4]([H:11])[N:5]([H:10])[O:6]1)([H:7])([H:8])[H:9]"
C       -1.83929705       0.03108614       0.27701050
C       -0.38356909       0.09688524      -0.01101558
C        0.51860710       1.11785906      -0.03450211
C        1.72392153       0.38815542      -0.15044058
N        1.50498536      -0.98251121       0.08957947
O        0.21570590      -1.15398941      -0.06063934
H       -2.04546960      -0.52128213       1.19558351
H       -2.21957882       1.04440897       0.37686693
H       -2.37298501      -0.46483169      -0.53655115
H        2.22152125      -0.47104412      -0.99700472
H        2.67615842       0.91526374      -0.14888692
11
Frame=4 idx=001092 GeodesicLength=0.5809145251175662 rxn_smarts="[C:1]([c:2]1[c:3]([H:10])[c:4]([H:11])[n:5][o:6]1)([H:7])([H:8])[H:9]>>[C:1]([C:2]1=[C:3]=[C:4]([H:11])[N:5]([H:10])[O:6]1)([H:7])([H:8])[H:9]"
C       -1.85045694       0.03533783       0.28143909
C       -0.39455750       0.10054364      -0.00497878
C        0.52321769       1.10665266       0.04787964
C        1.71161011       0.38262154      -0.19763182
N        1.48095370      -0.97418078       0.08697156
O        0.19522973      -1.14986377      -0.10343472
H       -2.06057851      -0.54198387       1.18372010
H       -2.22493466       1.04779525       0.40860551
H       -2.38700516      -0.43490711      -0.54542042
H        2.37656129      -0.53805771      -0.89816691
H        2.62996025       0.96604230      -0.25898324
11
Frame=5 idx=001092 GeodesicLength=0.7136302674680289 rxn_smarts="[C:1]([c:2]1[c:3]([H:10])[c:4]([H:11])[n:5][o:6]1)([H:7])([H:8])[H:9]>>[C:1]([C:2]1=[C:3]=[C:4]([H:11])[N:5]([H:10])[O:6]1)([H:7])([H:8])[H:9]"
C       -1.86105283       0.04167620       0.28543070
C       -0.40164862       0.10071511       0.01948432
C        0.53743094       1.08045506       0.14855677
C        1.69328171       0.37376988      -0.25687285
N        1.46138930      -0.97256635       0.06216086
O        0.17444341      -1.14865949      -0.13808313
H       -2.08791215      -0.56638920       1.16309425
H       -2.22556721       1.05346743       0.44349806
H       -2.39284519      -0.39283121      -0.56361243
H        2.53847266      -0.58143389      -0.74868083
H        2.56400800       1.01179645      -0.41497572
11
Frame=6 idx=001092 GeodesicLength=0.8285173801315703 rxn_smarts="[C:1]([c:2]1[c:3]([H:10])[c:4]([H:11])[n:5][o:6]1)([H:7])([H:8])[H:9]>>[C:1]([C:2]1=[C:3]=[C:4]([H:11])[N:5]([H:10])[O:6]1)([H:7])([H:8])[H:9]"
C       -1.86812327       0.05024157       0.29313138
C       -0.40483532       0.09201004       0.05172585
C        0.55970315       1.03875325       0.23474344
C        1.66878724       0.36152065      -0.32562561
N        1.44592107      -0.98364343      -0.01165992
O        0.15054324      -1.15434491      -0.17513663
H       -2.11696915      -0.58555900       1.14473277
H       -2.21634337       1.06286469       0.48012549
H       -2.39550176      -0.34475197      -0.57768570
H        2.69203503      -0.57461030      -0.52809977
H        2.48478313       1.03751941      -0.58625130
11
Frame=7 idx=001092 GeodesicLength=0.9357066114636268 rxn_smarts="[C:1]([c:2]1[c:3]([H:10])[c:4]([H:11])[n:5][o:6]1)([H:7])([H:8])[H:9]>>[C:1]([C:2]1=[C:3]=[C:4]([H:11])[N:5]([H:10])[O:6]1)([H:7])([H:8])[H:9]"
C       -1.86760999       0.05709977       0.30479942
C       -0.40111577       0.07390598       0.08634855
C        0.58830133       0.99214041       0.28570878
C        1.63879368       0.35252892      -0.41548470
N        1.43763545      -0.99633718      -0.12815535
O        0.13107071      -1.16635820      -0.20883704
H       -2.13972125      -0.60302160       1.13040315
H       -2.19545701       1.07088857       0.52078483
H       -2.39189269      -0.29639511      -0.58551607
H        2.77227432      -0.51948155      -0.25678041
H        2.42772122       1.03503000      -0.73327116
11
Frame=8 idx=001092 GeodesicLength=1.0657903390415782 rxn_smarts="[C:1]([c:2]1[c:3]([H:10])[c:4]([H:11])[n:5][o:6]1)([H:7])([H:8])[H:9]>>[C:1]([C:2]1=[C:3]=[C:4]([H:11])[N:5]([H:10])[O:6]1)([H:7])([H:8])[H:9]"
C       -1.85819678       0.05895583       0.31823210
C       -0.39151139       0.05681081       0.10385490
C        0.61755990       0.95579645       0.29759469
C        1.61180894       0.35076278      -0.50917170
N        1.43399792      -0.99891935      -0.24647449
O        0.12180827      -1.17587900      -0.24326931
H       -2.14030152      -0.61854296       1.12615465
H       -2.16913860       1.07256687       0.55875650
H       -2.38698272      -0.26382819      -0.58112900
H        2.74649988      -0.45359827      -0.00013987
H        2.41445610       1.01587503      -0.82440848
11
Frame=9 idx=001092 GeodesicLength=1.213629339484206 rxn_smarts="[C:1]([c:2]1[c:3]([H:10])[c:4]([H:11])[n:5][o:6]1)([H:7])([H:8])[H:9]>>[C:1]([C:2]1=[C:3]=[C:4]([H:11])[N:5]([H:10])[O:6]1)([H:7])([H:8])[H:9]"
C       -1.84520327       0.05786772       0.32954162
C       -0.37941159       0.04324326       0.11242380
C        0.64256902       0.93045240       0.29614942
C        1.59224396       0.35533437      -0.58466703
N        1.43622766      -0.99252280      -0.33875535
O        0.12263112      -1.18193054      -0.26883835
H       -2.13190212      -0.63300237       1.12430568
H       -2.14366352       1.06996867       0.59121471
H       -2.37910611      -0.24129719      -0.57483802
H        2.66441217      -0.40041751       0.19936871
H        2.42120270       0.99230399      -0.88590519
11
Frame=10 idx=001092 GeodesicLength=1.3666464484073395 rxn_smarts="[C:1]([c:2]1[c:3]([H:10])[c:4]([H:11])[n:5][o:6]1)([H:7])([H:8])[H:9]>>[C:1]([C:2]1=[C:3]=[C:4]([H:11])[N:5]([H:10])[O:6]1)([H:7])([H:8])[H:9]"
C       -1.83201150       0.05514228       0.33959516
C       -0.36870002       0.03594524       0.10822961
C        0.66229428       0.91484144       0.28657168
C        1.58070253       0.36293548      -0.64282677
N        1.44196608      -0.98079860      -0.40556080
O        0.12742932      -1.18253544      -0.29556052
H       -2.11475720      -0.64742420       1.12544552
H       -2.12186267       1.06442629       0.62125445
H       -2.37519378      -0.22654263      -0.56483354
H        2.56242565      -0.36199678       0.35925138
H        2.43770731       0.96600693      -0.93156617
11
Frame=11 idx=001092 GeodesicLength=1.5218023913873724 rxn_smarts="[C:1]([c:2]1[c:3]([H:10])[c:4]([H:11])[n:5][o:6]1)([H:7])([H:8])[H:9]>>[C:1]([C:2]1=[C:3]=[C:4]([H:11])[N:5]([H:10])[O:6]1)([H:7])([H:8])[H:9]"
C       -1.81899214       0.05129367       0.34946776
C       -0.36045891       0.03475207       0.09063908
C        0.67730267       0.90686314       0.26875248
C        1.57670188       0.37102699      -0.69000768
N        1.45069605      -0.96657531      -0.45275736
O        0.13309185      -1.17790215      -0.32821854
H       -2.08885373      -0.66313306       1.12907876
H       -2.10241363       1.05610065       0.65291187
H       -2.37722326      -0.21632581      -0.54999186
H        2.44901712      -0.33264987       0.49858596
H        2.46113210       0.93654967      -0.96846047
11
Frame=12 idx=001092 GeodesicLength=1.678521733292837 rxn_smarts="[C:1]([c:2]1[c:3]([H:10])[c:4]([H:11])[n:5][o:6]1)([H:7])([H:8])[H:9]>>[C:1]([C:2]1=[C:3]=[C:4]([H:11])[N:5]([H:10])[O:6]1)([H:7])([H:8])[H:9]"
C       -1.80571869       0.04685749       0.35906738
C       -0.35405238       0.03785222       0.06452560
C        0.68942098       0.90358073       0.24683510
C        1.57824669       0.37896726      -0.72967161
N        1.46213736      -0.95118220      -0.48617452
O        0.13939995      -1.16987137      -0.36374681
H       -2.05715824      -0.67963883       1.13361532
H       -2.08363222       1.04593403       0.68569281
H       -2.38253504      -0.20871998      -0.53204643
H        2.32654070      -0.30951409       0.62318423
H        2.48735091       0.90573475      -1.00128108
11
Frame=13 idx=001092 GeodesicLength=1.8364209872019783 rxn_smarts="[C:1]([c:2]1[c:3]([H:10])[c:4]([H:11])[n:5][o:6]1)([H:7])([H:8])[H:9]>>[C:1]([C:2]1=[C:3]=[C:4]([H:11])[N:5]([H:10])[O:6]1)([H:7])([H:8])[H:9]"
C       -1.79181009       0.04224044       0.36809810
C       -0.34871447       0.04374881       0.03412158
C        0.70029409       0.90257439       0.22488637
C        1.58343796       0.38682442      -0.76339362
N        1.47590490      -0.93503044      -0.50939943
O        0.14672175      -1.15982310      -0.39930747
H       -2.02210786      -0.69607703       1.13801305
H       -2.06449841       1.03485732       0.71814246
H       -2.38859986      -0.20291380      -0.51267288
H        2.19649164      -0.29195269       0.73532966
H        2.51288036       0.87555167      -1.03381782
11
Frame=14 idx=001092 GeodesicLength=1.9953612250851576 rxn_smarts="[C:1]([c:2]1[c:3]([H:10])[c:4]([H:11])[n:5][o:6]1)([H:7])([H:8])[H:9]>>[C:1]([C:2]1=[C:3]=[C:4]([H:11])[N:5]([H:10])[O:6]1)([H:7])([H:8])[H:9]"
C       -1.77702898       0.03767552       0.37635152
C       -0.34385856       0.05151875       0.00196857
C        0.71107814       0.90224989       0.20530257
C        1.59094083       0.39464089      -0.79220678
N        1.49180166      -0.91817527      -0.52390676
O        0.15541367      -1.14854418      -0.43322678
H       -1.98529211      -0.71227684       1.14126847
H       -2.04431382       1.02320788       0.74992279
H       -2.39386913      -0.19789178      -0.49306843
H        2.05949801      -0.27938854       0.83697993
H        2.53563029       0.84698367      -1.06938510
11
Frame=15 idx=001092 GeodesicLength=2.155078128809298 rxn_smarts="[C:1]([c:2]1[c:3]([H:10])[c:4]([H:11])[n:5][o:6]1)([H:7])([H:8])[H:9]>>[C:1]([C:2]1=[C:3]=[C:4]([H:11])[N:5]([H:10])[O:6]1)([H:7])([H:8])[H:9]"
C       -1.76153987       0.03350313       0.38339356
C       -0.33842738       0.05974222      -0.02767719
C        0.72322632       0.90075107       0.19168399
C        1.59885423       0.40288171      -0.81686311
N        1.50994704      -0.90035539      -0.53112090
O        0.16630566      -1.13718230      -0.46243540
H       -1.94986643      -0.72784942       1.14218862
H       -2.02310288       1.01163512       0.77990445
H       -2.39621395      -0.19241373      -0.47559530
H        1.91825353      -0.27202614       0.92849774
H        2.55256374       0.82131373      -1.11197647
11
Frame=16 idx=001092 GeodesicLength=2.31525959923308 rxn_smarts="[C:1]([c:2]1[c:3]([H:10])[c:4]([H:11])[n:5][o:6]1)([H:7])([H:8])[H:9]>>[C:1]([C:2]1=[C:3]=[C:4]([H:11])[N:5]([H:10])[O:6]1)([H:7])([H:8])[H:9]"
C       -1.74575495       0.03000230       0.38887259
C       -0.33146494       0.06732136      -0.05162524
C        0.73797026       0.89664548       0.18656568
C        1.60563029       0.41202892      -0.83820956
N        1.53067649      -0.88115966      -0.53211438
O        0.18015139      -1.12668338      -0.48442775
H       -1.91865332      -0.74267402       1.13985330
H       -2.00129569       1.00057184       0.80742375
H       -2.39433119      -0.18522064      -0.46233606
H        1.77588229      -0.26990801       1.01062404
H        2.56118937       0.79907582      -1.16462638
