12
Frame=0 idx=007885 GeodesicLength=0.0 rxn_smarts="[O:1]=[C:2]1[C@@:3]2([H:8])[N:4]([H:9])[C@:5]1([H:10])[C:6]([H:11])=[C:7]2[H:12]>>[O+:1]#[C-:2].[c:3]1([H:8])[n:4]([H:9])[c:5]([H:10])[c:6]([H:11])[c:7]1[H:12]"
O        0.34859971      -1.54869025       2.13528163
C       -0.02554645      -1.07022414       1.16389211
C        0.33408446      -0.79292244      -0.76056914
N       -1.06574089      -0.47671609      -0.70533544
C       -0.97718415       0.46397994       0.37628270
C        0.24096823       1.19212202       0.25461927
C        1.08356320       0.38365062      -0.47487514
H        0.66386391      -1.59867871      -1.40523075
H       -1.35526705      -0.00366244      -1.56221628
H       -1.89124176       0.85160868       0.80955888
H        0.49906171       2.08876676       0.79836247
H        2.14483913       0.51076602      -0.62977033
12
Frame=1 idx=007885 GeodesicLength=0.04003881008970429 rxn_smarts="[O:1]=[C:2]1[C@@:3]2([H:8])[N:4]([H:9])[C@:5]1([H:10])[C:6]([H:11])=[C:7]2[H:12]>>[O+:1]#[C-:2].[c:3]1([H:8])[n:4]([H:9])[c:5]([H:10])[c:6]([H:11])[c:7]1[H:12]"
O        0.35374330      -1.55182301       2.14463546
C       -0.03025491      -1.08261341       1.17238191
C        0.33421619      -0.79284828      -0.75973024
N       -1.06312376      -0.46974148      -0.71004498
C       -0.97660608       0.46368797       0.37658307
C        0.24221316       1.19285121       0.25538454
C        1.08495686       0.38422589      -0.47408765
H        0.66293704      -1.59651640      -1.40753192
H       -1.36084683      -0.00488334      -1.56746946
H       -1.89148247       0.85316946       0.80645184
H        0.49886374       2.09150352       0.79637260
H        2.14538376       0.51298788      -0.63294518
12
Frame=2 idx=007885 GeodesicLength=0.08003730404869591 rxn_smarts="[O:1]=[C:2]1[C@@:3]2([H:8])[N:4]([H:9])[C@:5]1([H:10])[C:6]([H:11])=[C:7]2[H:12]>>[O+:1]#[C-:2].[c:3]1([H:8])[n:4]([H:9])[c:5]([H:10])[c:6]([H:11])[c:7]1[H:12]"
O        0.35862196      -1.55508170       2.15389463
C       -0.03501130      -1.09508207       1.18089562
C        0.33438987      -0.79271639      -0.75888750
N       -1.06041569      -0.46270924      -0.71472291
C       -0.97597194       0.46343753       0.37687151
C        0.24349069       1.19366447       0.25609278
C        1.08637817       0.38489626      -0.47338171
H        0.66207248      -1.59433029      -1.40975475
H       -1.36657998      -0.00636311      -1.57262145
H       -1.89163794       0.85472641       0.80340149
H        0.49871721       2.09427229       0.79437984
H        2.14594648       0.51528583      -0.63616755
12
Frame=3 idx=007885 GeodesicLength=0.11999072537966168 rxn_smarts="[O:1]=[C:2]1[C@@:3]2([H:8])[N:4]([H:9])[C@:5]1([H:10])[C:6]([H:11])=[C:7]2[H:12]>>[O+:1]#[C-:2].[c:3]1([H:8])[n:4]([H:9])[c:5]([H:10])[c:6]([H:11])[c:7]1[H:12]"
O        0.36325678      -1.55844448       2.16305823
C       -0.03980401      -1.10761475       1.18942549
C        0.33460171      -0.79251944      -0.75805288
N       -1.05762245      -0.45561988      -0.71937454
C       -0.97528445       0.46323432       0.37713764
C        0.24479256       1.19457523       0.25671999
C        1.08781859       0.38567631      -0.47278405
H        0.66126659      -1.59211950      -1.41190469
H       -1.37248712      -0.00812430      -1.57766802
H       -1.89171073       0.85627860       0.80040620
H        0.49863482       2.09704649       0.79241994
H        2.14653771       0.51763139      -0.63938332
12
Frame=4 idx=007885 GeodesicLength=0.15989467432385918 rxn_smarts="[O:1]=[C:2]1[C@@:3]2([H:8])[N:4]([H:9])[C@:5]1([H:10])[C:6]([H:11])=[C:7]2[H:12]>>[O+:1]#[C-:2].[c:3]1([H:8])[n:4]([H:9])[c:5]([H:10])[c:6]([H:11])[c:7]1[H:12]"
O        0.36767261      -1.56188575       2.17212521
C       -0.04462040      -1.12019452       1.19796409
C        0.33484721      -0.79224982      -0.75723943
N       -1.05475083      -0.44847389      -0.72400644
C       -0.97454723       0.46308453       0.37736955
C        0.24610912       1.19559779       0.25723958
C        1.08926818       0.38658111      -0.47232356
H        0.66051512      -1.58988299      -1.41398799
H       -1.37858978      -0.01019118      -1.58260435
H       -1.89170443       0.85782577       0.79746258
H        0.49863106       2.09979544       0.79053513
H        2.14716938       0.51999351      -0.64253437
12
Frame=5 idx=007885 GeodesicLength=0.19975527415677632 rxn_smarts="[O:1]=[C:2]1[C@@:3]2([H:8])[N:4]([H:9])[C@:5]1([H:10])[C:6]([H:11])=[C:7]2[H:12]>>[O+:1]#[C-:2].[c:3]1([H:8])[n:4]([H:9])[c:5]([H:10])[c:6]([H:11])[c:7]1[H:12]"
O        0.37190061      -1.56537942       2.18109750
C       -0.04944553      -1.13280525       1.20650570
C        0.33511982      -0.79189923      -0.75646332
N       -1.05181051      -0.44127166      -0.72862815
C       -0.97376537       0.46299435       0.37755358
C        0.24742899       1.19674797       0.25762159
C        1.09071478       0.38762711      -0.47203296
H        0.65981172      -1.58761859      -1.41601470
H       -1.38491007      -0.01258841      -1.58742343
H       -1.89162369       0.85936747       0.79456636
H        0.49872146       2.10249002       0.78876829
H        2.14785779       0.52233563      -0.64555049
12
Frame=6 idx=007885 GeodesicLength=0.2395243177222437 rxn_smarts="[O:1]=[C:2]1[C@@:3]2([H:8])[N:4]([H:9])[C@:5]1([H:10])[C:6]([H:11])=[C:7]2[H:12]>>[O+:1]#[C-:2].[c:3]1([H:8])[n:4]([H:9])[c:5]([H:10])[c:6]([H:11])[c:7]1[H:12]"
O        0.37598260      -1.56886516       2.18994165
C       -0.05427998      -1.14542950       1.21503005
C        0.33541446      -0.79146036      -0.75573388
N       -1.04880932      -0.43401482      -0.73324258
C       -0.97294222       0.46297016       0.37767974
C        0.24874134       1.19804056       0.25783935
C        1.09214938       0.38882967      -0.47193826
H        0.65914957      -1.58532657      -1.41798811
H       -1.39146888      -0.01534696      -1.59211631
H       -1.89147376       0.86090290       0.79171348
H        0.49892055       2.10508578       0.78717261
H        2.14861627       0.52461430      -0.64835775
12
Frame=7 idx=007885 GeodesicLength=0.2792637849665065 rxn_smarts="[O:1]=[C:2]1[C@@:3]2([H:8])[N:4]([H:9])[C@:5]1([H:10])[C:6]([H:11])=[C:7]2[H:12]>>[O+:1]#[C-:2].[c:3]1([H:8])[n:4]([H:9])[c:5]([H:10])[c:6]([H:11])[c:7]1[H:12]"
O        0.37991061      -1.57241225       2.19867832
C       -0.05913271      -1.15810009       1.22354989
C        0.33573285      -0.79093277      -0.75504930
N       -1.04574656      -0.42668996      -0.73785780
C       -0.97207270       0.46300735       0.37775902
C        0.25006007       1.19946480       0.25791971
C        1.09358500       0.39018065      -0.47201604
H        0.65852627      -1.58300062      -1.41991712
H       -1.39827322      -0.01845885      -1.59667266
H       -1.89125252       0.86243676       0.78890547
H        0.49920518       2.10766150       0.78566252
H        2.14945772       0.52684346      -0.65096201
12
Frame=8 idx=007885 GeodesicLength=0.3189662929146563 rxn_smarts="[O:1]=[C:2]1[C@@:3]2([H:8])[N:4]([H:9])[C@:5]1([H:10])[C:6]([H:11])=[C:7]2[H:12]>>[O+:1]#[C-:2].[c:3]1([H:8])[n:4]([H:9])[c:5]([H:10])[c:6]([H:11])[c:7]1[H:12]"
O        0.38365298      -1.57608275       2.20730399
C       -0.06401344      -1.17084341       1.23206059
C        0.33607870      -0.79031269      -0.75440490
N       -1.04260839      -0.41927650      -0.74247030
C       -0.97114715       0.46310234       0.37780926
C        0.25139805       1.20100210       0.25789979
C        1.09502560       0.39166255      -0.47223756
H        0.65794410      -1.58062761      -1.42180879
H       -1.40529880      -0.02192216      -1.60105903
H       -1.89094541       0.86397235       0.78615878
H        0.49953322       2.11029516       0.78412727
H        2.15038054       0.52903062      -0.65337909
12
Frame=9 idx=007885 GeodesicLength=0.35857794547391403 rxn_smarts="[O:1]=[C:2]1[C@@:3]2([H:8])[N:4]([H:9])[C@:5]1([H:10])[C:6]([H:11])=[C:7]2[H:12]>>[O+:1]#[C-:2].[c:3]1([H:8])[n:4]([H:9])[c:5]([H:10])[c:6]([H:11])[c:7]1[H:12]"
O        0.38726619      -1.57975895       2.21578538
C       -0.06891920      -1.18362094       1.24054362
C        0.33644681      -0.78959520      -0.75381404
N       -1.03940940      -0.41178821      -0.74708987
C       -0.97017233       0.46326401       0.37780690
C        0.25273762       1.20267805       0.25772890
C        1.09646331       0.39330249      -0.47264743
H        0.65739524      -1.57820825      -1.42367430
H       -1.41260142      -0.02578580      -1.60528154
H       -1.89056689       0.86550414       0.78345760
H        0.49995217       2.11288388       0.78270229
H        2.15140789       0.53112478      -0.65551752
12
Frame=10 idx=007885 GeodesicLength=0.3981716368023414 rxn_smarts="[O:1]=[C:2]1[C@@:3]2([H:8])[N:4]([H:9])[C@:5]1([H:10])[C:6]([H:11])=[C:7]2[H:12]>>[O+:1]#[C-:2].[c:3]1([H:8])[n:4]([H:9])[c:5]([H:10])[c:6]([H:11])[c:7]1[H:12]"
O        0.39068195      -1.58351115       2.22418163
C       -0.07387004      -1.19646096       1.24902173
C        0.33684635      -0.78878451      -0.75326147
N       -1.03613822      -0.40421076      -0.75172835
C       -0.96914655       0.46349560       0.37774976
C        0.25409423       1.20448589       0.25743319
C        1.09791071       0.39508809      -0.47321516
H        0.65689345      -1.57574699      -1.42549663
H       -1.42014223      -0.03006286      -1.60932523
H       -1.89011573       0.86704647       0.78078673
H        0.50047425       2.11544422       0.78139265
H        2.15251183       0.53321694      -0.65753885
12
Frame=11 idx=007885 GeodesicLength=0.437734291732863 rxn_smarts="[O:1]=[C:2]1[C@@:3]2([H:8])[N:4]([H:9])[C@:5]1([H:10])[C:6]([H:11])=[C:7]2[H:12]>>[O+:1]#[C-:2].[c:3]1([H:8])[n:4]([H:9])[c:5]([H:10])[c:6]([H:11])[c:7]1[H:12]"
O        0.39385362      -1.58735967       2.23249291
C       -0.07889590      -1.20938536       1.25749155
C        0.33728911      -0.78788243      -0.75273353
N       -1.03277874      -0.39653210      -0.75638648
C       -0.96805889       0.46379616       0.37764757
C        0.25548617       1.20641139       0.25704625
C        1.09938675       0.39700633      -0.47390645
H        0.65644902      -1.57324302      -1.42726752
H       -1.42791897      -0.03477069      -1.61317243
H       -1.88958493       0.86860431       0.77814426
H        0.50109168       2.11799945       0.78017431
H        2.15368109       0.53535565      -0.65953043
12
Frame=12 idx=007885 GeodesicLength=0.4772688599455749 rxn_smarts="[O:1]=[C:2]1[C@@:3]2([H:8])[N:4]([H:9])[C@:5]1([H:10])[C:6]([H:11])=[C:7]2[H:12]>>[O+:1]#[C-:2].[c:3]1([H:8])[n:4]([H:9])[c:5]([H:10])[c:6]([H:11])[c:7]1[H:12]"
O        0.39679811      -1.59133388       2.24069621
C       -0.08399179      -1.22241749       1.26593411
C        0.33777096      -0.78687699      -0.75224381
N       -1.02933314      -0.38873672      -0.76106407
C       -0.96690114       0.46416252       0.37751339
C        0.25692013       1.20845185       0.25657940
C        1.10089281       0.39906356      -0.47472548
H        0.65605062      -1.57066970      -1.42902096
H       -1.43595834      -0.03992372      -1.61678579
H       -1.88896392       0.87016799       0.77555658
H        0.50176440       2.12063764       0.77892290
H        2.15495130       0.53747494      -0.66136249
12
Frame=13 idx=007885 GeodesicLength=0.5167711784264516 rxn_smarts="[O:1]=[C:2]1[C@@:3]2([H:8])[N:4]([H:9])[C@:5]1([H:10])[C:6]([H:11])=[C:7]2[H:12]>>[O+:1]#[C-:2].[c:3]1([H:8])[n:4]([H:9])[c:5]([H:10])[c:6]([H:11])[c:7]1[H:12]"
O        0.39953154      -1.59538174       2.24879665
C       -0.08916213      -1.23552772       1.27435157
C        0.33829028      -0.78576523      -0.75179732
N       -1.02580585      -0.38082583      -0.76577756
C       -0.96568288       0.46460860       0.37732052
C        0.25838267       1.21062773       0.25599652
C        1.10241973       0.40127225      -0.47569735
H        0.65570139      -1.56803578      -1.43074875
H       -1.44426978      -0.04557676      -1.62015899
H       -1.88826424       0.87175439       0.77299257
H        0.50254502       2.12325966       0.77778150
H        2.15631424       0.53959043      -0.66305937
12
Frame=14 idx=007885 GeodesicLength=0.5562482719798832 rxn_smarts="[O:1]=[C:2]1[C@@:3]2([H:8])[N:4]([H:9])[C@:5]1([H:10])[C:6]([H:11])=[C:7]2[H:12]>>[O+:1]#[C-:2].[c:3]1([H:8])[n:4]([H:9])[c:5]([H:10])[c:6]([H:11])[c:7]1[H:12]"
O        0.40200995      -1.59955531       2.25679204
C       -0.09443630      -1.24874289       1.28274096
C        0.33885602      -0.78454409      -0.75138248
N       -1.02218312      -0.37278244      -0.77052742
C       -0.96439372       0.46513524       0.37707956
C        0.25989441       1.21292726       0.25533268
C        1.10398592       0.40362416      -0.47678996
H        0.65541028      -1.56533419      -1.43244314
H       -1.45285093      -0.05175823      -1.62325961
H       -1.88747754       0.87337247       0.77044980
H        0.50342062       2.12591528       0.77669479
H        2.15776440       0.54174274      -0.66468721
12
Frame=15 idx=007885 GeodesicLength=0.5957099467329918 rxn_smarts="[O:1]=[C:2]1[C@@:3]2([H:8])[N:4]([H:9])[C@:5]1([H:10])[C:6]([H:11])=[C:7]2[H:12]>>[O+:1]#[C-:2].[c:3]1([H:8])[n:4]([H:9])[c:5]([H:10])[c:6]([H:11])[c:7]1[H:12]"
O        0.40418541      -1.60388602       2.26468940
C       -0.09984151      -1.26208810       1.29109703
C        0.33947885      -0.78321291      -0.75099161
N       -1.01844936      -0.36459120      -0.77532019
C       -0.96302298       0.46574447       0.37679533
C        0.26147215       1.21534366       0.25461394
C        1.10560858       0.40611114      -0.47797533
H        0.65518675      -1.56256266      -1.43410111
H       -1.46170280      -0.05849952      -1.62605177
H       -1.88659462       0.87503021       0.76792529
H        0.50438582       2.12863361       0.77563686
H        2.15929370       0.54397732      -0.66631786
12
Frame=16 idx=007885 GeodesicLength=0.6351413379952127 rxn_smarts="[O:1]=[C:2]1[C@@:3]2([H:8])[N:4]([H:9])[C@:5]1([H:10])[C:6]([H:11])=[C:7]2[H:12]>>[O+:1]#[C-:2].[c:3]1([H:8])[n:4]([H:9])[c:5]([H:10])[c:6]([H:11])[c:7]1[H:12]"
O        0.40606851      -1.60833852       2.27248000
C       -0.10537313      -1.27554127       1.29940564
C        0.34015616      -0.78175846      -0.75064033
N       -1.01460881      -0.35624363      -0.78016971
C       -0.96157513       0.46644800       0.37644911
C        0.26310630       1.21789390       0.25380875
C        1.10728014       0.40874985      -0.47928413
H        0.65503273      -1.55971624      -1.43572613
H       -1.47084583      -0.06585472      -1.62850428
H       -1.88562005       0.87672826       0.76541431
H        0.50546535       2.13136582       0.77467393
H        2.16091377       0.54626700      -0.66790717
