16
Frame=0 idx=004278 GeodesicLength=0.0 rxn_smarts="[C:1]([C@@:2]1([H:10])[C:3]([H:11])([H:12])[O:4][C@:5]1([C:6]([H:14])([H:15])[H:16])[H:13])([H:7])([H:8])[H:9]>>[C:1]([C@@:2]1([H:10])[C:3]([H:11])([H:12])[O:4]1)([H:7])([H:8])[H:9].[C:5]([C:6]([H:14])([H:15])[H:16])[H:13]"
C       -1.80602248       0.34325329      -0.61480773
C       -1.00001932      -0.28416434       0.45984096
C       -0.49896226      -1.64023338       0.33465970
O        0.47696813      -0.86821996      -0.35032174
C        1.25514913       0.08184771       0.72388871
C        1.79773587       1.17188313      -0.15463559
H       -1.46638435       1.36317809      -0.79936757
H       -2.83987797       0.40940951      -0.25865478
H       -1.77746042      -0.21889936      -1.54624474
H       -0.94942403       0.22757312       1.40320218
H       -1.01241339      -2.31508220      -0.34674684
H       -0.12935696      -2.12605187       1.23482420
H        2.08331093      -0.58126858       1.01013014
H        2.35672051       0.81328549      -1.03338278
H        2.48677469       1.76569702       0.45317113
H        1.02326187       1.85779233      -0.51555518
16
Frame=1 idx=004278 GeodesicLength=0.043920085113751534 rxn_smarts="[C:1]([C@@:2]1([H:10])[C:3]([H:11])([H:12])[O:4][C@:5]1([C:6]([H:14])([H:15])[H:16])[H:13])([H:7])([H:8])[H:9]>>[C:1]([C@@:2]1([H:10])[C:3]([H:11])([H:12])[O:4]1)([H:7])([H:8])[H:9].[C:5]([C:6]([H:14])([H:15])[H:16])[H:13]"
C       -1.80350929       0.34882914      -0.60941303
C       -0.98303090      -0.27792931       0.45622593
C       -0.49673545      -1.64184691       0.33342398
O        0.48407067      -0.87788324      -0.35444933
C        1.24583116       0.08106163       0.71527058
C        1.79642850       1.16883121      -0.16099036
H       -1.48090242       1.37608941      -0.78372891
H       -2.83819622       0.39428079      -0.25308759
H       -1.76742505      -0.20144108      -1.54781724
H       -0.94933784       0.22064201       1.40817005
H       -1.01819153      -2.31198390      -0.34667544
H       -0.13069319      -2.12969979       1.23394434
H        2.07161538      -0.57503233       1.02299295
H        2.37545417       0.80602860      -1.02446232
H        2.46837702       1.77338028       0.45537929
H        1.02624500       1.84667348      -0.54478289
16
Frame=2 idx=004278 GeodesicLength=0.08782425976627836 rxn_smarts="[C:1]([C@@:2]1([H:10])[C:3]([H:11])([H:12])[O:4][C@:5]1([C:6]([H:14])([H:15])[H:16])[H:13])([H:7])([H:8])[H:9]>>[C:1]([C@@:2]1([H:10])[C:3]([H:11])([H:12])[O:4]1)([H:7])([H:8])[H:9].[C:5]([C:6]([H:14])([H:15])[H:16])[H:13]"
C       -1.80080189       0.35438219      -0.60406487
C       -0.96625474      -0.27178726       0.45263472
C       -0.49466143      -1.64338522       0.33239144
O        0.49106714      -0.88757163      -0.35826031
C        1.23695159       0.07991812       0.70662204
C        1.79492424       1.16578948      -0.16724882
H       -1.49514452       1.38857309      -0.76781704
H       -2.83607900       0.37930399      -0.24808229
H       -1.75716767      -0.18377061      -1.54930553
H       -0.94902007       0.21382342       1.41254155
H       -1.02393200      -2.30880661      -0.34641328
H       -0.13229209      -2.13314870       1.23335309
H        2.06012236      -0.56897972       1.03516249
H        2.39344300       0.79936775      -1.01531186
H        2.44962714       1.78104672       0.45709488
H        1.02921794       1.83524499      -0.57329621
16
Frame=3 idx=004278 GeodesicLength=0.13176442235029406 rxn_smarts="[C:1]([C@@:2]1([H:10])[C:3]([H:11])([H:12])[O:4][C@:5]1([C:6]([H:14])([H:15])[H:16])[H:13])([H:7])([H:8])[H:9]>>[C:1]([C@@:2]1([H:10])[C:3]([H:11])([H:12])[O:4]1)([H:7])([H:8])[H:9].[C:5]([C:6]([H:14])([H:15])[H:16])[H:13]"
C       -1.79790331       0.35993710      -0.59874272
C       -0.94969232      -0.26575338       0.44909381
C       -0.49272858      -1.64486831       0.33155569
O        0.49794713      -0.89728618      -0.36175501
C        1.22848329       0.07843717       0.69795665
C        1.79322249       1.16274220      -0.17344174
H       -1.50916745       1.40067845      -0.75155921
H       -2.83354804       0.36444540      -0.24367587
H       -1.74662194      -0.16580615      -1.55070398
H       -0.94846659       0.20713866       1.41636487
H       -1.02962606      -2.30556160      -0.34598544
H       -0.13412075      -2.13643679       1.23302966
H        2.04881836      -0.56310962       1.04669285
H        2.41075332       0.79324878      -1.00592485
H        2.43047084       1.78871699       0.45831009
H        1.03217962       1.82347729      -0.60121480
16
Frame=4 idx=004278 GeodesicLength=0.1756889636737874 rxn_smarts="[C:1]([C@@:2]1([H:10])[C:3]([H:11])([H:12])[O:4][C@:5]1([C:6]([H:14])([H:15])[H:16])[H:13])([H:7])([H:8])[H:9]>>[C:1]([C@@:2]1([H:10])[C:3]([H:11])([H:12])[O:4]1)([H:7])([H:8])[H:9].[C:5]([C:6]([H:14])([H:15])[H:16])[H:13]"
C       -1.79484393       0.36547447      -0.59346837
C       -0.93335815      -0.25983953       0.44559524
C       -0.49092209      -1.64630102       0.33090191
O        0.50471740      -0.90701475      -0.36495724
C        1.22042287       0.07663052       0.68930010
C        1.79133641       1.15970269      -0.17954716
H       -1.52291988       1.41234754      -0.73507831
H       -2.83063903       0.34980554      -0.23983089
H       -1.73590611      -0.14764428      -1.55200481
H       -0.94768591       0.20061405       1.41967397
H       -1.03525878      -2.30226563      -0.34541298
H       -0.13615642      -2.13956217       1.23296673
H        2.03773734      -0.55742535       1.05761456
H        2.42736426       0.78769436      -0.99636127
H        2.41099692       1.79633761       0.45906021
H        1.03511509       1.81144596      -0.62845169
16
Frame=5 idx=004278 GeodesicLength=0.2195894249940075 rxn_smarts="[C:1]([C@@:2]1([H:10])[C:3]([H:11])([H:12])[O:4][C@:5]1([C:6]([H:14])([H:15])[H:16])[H:13])([H:7])([H:8])[H:9]>>[C:1]([C@@:2]1([H:10])[C:3]([H:11])([H:12])[O:4]1)([H:7])([H:8])[H:9].[C:5]([C:6]([H:14])([H:15])[H:16])[H:13]"
C       -1.79162778       0.37097364      -0.58826741
C       -0.91725208      -0.25405324       0.44212986
C       -0.48922641      -1.64769026       0.33042777
O        0.51137137      -0.91674675      -0.36787855
C        1.21275082       0.07450562       0.68067071
C        1.78925964       1.15668900      -0.18553828
H       -1.53633914       1.42353237      -0.71851575
H       -2.82735261       0.33547091      -0.23653339
H       -1.72510436      -0.12939281      -1.55318306
H       -0.94667529       0.19428807       1.42247555
H       -1.04080712      -2.29894253      -0.34469245
H       -0.13838035      -2.14252675       1.23316159
H        2.02688176      -0.55194322       1.06793961
H        2.44317119       0.78273805      -0.98671118
H        2.39132981       1.80381540       0.45936921
H        1.03800053       1.79928251      -0.65485422
16
Frame=6 idx=004278 GeodesicLength=0.26343739069092564 rxn_smarts="[C:1]([C@@:2]1([H:10])[C:3]([H:11])([H:12])[O:4][C@:5]1([C:6]([H:14])([H:15])[H:16])[H:13])([H:7])([H:8])[H:9]>>[C:1]([C@@:2]1([H:10])[C:3]([H:11])([H:12])[O:4]1)([H:7])([H:8])[H:9].[C:5]([C:6]([H:14])([H:15])[H:16])[H:13]"
C       -1.78827244       0.37640836      -0.58316460
C       -0.90137724      -0.24839918       0.43869352
C       -0.48762715      -1.64903312       0.33012979
O        0.51790900      -0.92646242      -0.37053365
C        1.20545228       0.07207790       0.67208536
C        1.78700257       1.15371741      -0.19138907
H       -1.54938490       1.43418851      -0.70200564
H       -2.82371879       0.32149812      -0.23376211
H       -1.71430098      -0.11116247      -1.55422436
H       -0.94544817       0.18819143       1.42477833
H       -1.04625049      -2.29560635      -0.34382518
H       -0.14077547      -2.14531923       1.23361100
H        2.01625418      -0.54667316       1.07768394
H        2.45809218       0.77839968      -0.97707569
H        2.37161921       1.81104991       0.45927390
H        1.04082622       1.78712462      -0.68027555
16
Frame=7 idx=004278 GeodesicLength=0.3072139138322822 rxn_smarts="[C:1]([C@@:2]1([H:10])[C:3]([H:11])([H:12])[O:4][C@:5]1([C:6]([H:14])([H:15])[H:16])[H:13])([H:7])([H:8])[H:9]>>[C:1]([C@@:2]1([H:10])[C:3]([H:11])([H:12])[O:4]1)([H:7])([H:8])[H:9].[C:5]([C:6]([H:14])([H:15])[H:16])[H:13]"
C       -1.78479004       0.38175177      -0.57818365
C       -0.88573496      -0.24287562       0.43524992
C       -0.48610819      -1.65032803       0.32999667
O        0.52431567      -0.93613834      -0.37294233
C        1.19849879       0.06937025       0.66356317
C        1.78456685       1.15080447      -0.19707349
H       -1.56201891       1.44429740      -0.68568697
H       -2.81972618       0.30794663      -0.23145114
H       -1.70358938      -0.09306955      -1.55512865
H       -0.94400359       0.18234781       1.42658230
H       -1.05155579      -2.29227680      -0.34280119
H       -0.14332239      -2.14793370       1.23430033
H        2.00584843      -0.54161944       1.08688108
H        2.47205545       0.77466611      -0.96754332
H        2.35201493       1.81795063       0.45883298
H        1.04354931       1.77510641      -0.70459571
16
Frame=8 idx=004278 GeodesicLength=0.3509568653072311 rxn_smarts="[C:1]([C@@:2]1([H:10])[C:3]([H:11])([H:12])[O:4][C@:5]1([C:6]([H:14])([H:15])[H:16])[H:13])([H:7])([H:8])[H:9]>>[C:1]([C@@:2]1([H:10])[C:3]([H:11])([H:12])[O:4]1)([H:7])([H:8])[H:9].[C:5]([C:6]([H:14])([H:15])[H:16])[H:13]"
C       -1.78119641       0.38702558      -0.57329521
C       -0.87032263      -0.23749254       0.43183094
C       -0.48466520      -1.65158684       0.33001336
O        0.53060734      -0.94577660      -0.37511088
C        1.19187114       0.06640143       0.65510055
C        1.78198194       1.14792901      -0.20262683
H       -1.57431018       1.45389744      -0.66946414
H       -2.81544233       0.29476354      -0.22961728
H       -1.69291557      -0.07502660      -1.55588986
H       -0.94236393       0.17673855       1.42796595
H       -1.05674290      -2.28894786      -0.34166378
H       -0.14600400      -2.15039574       1.23520670
H        1.99563941      -0.53675246       1.09558180
H        2.48521236       0.77148603      -0.95807798
H        2.33243779       1.82458507       0.45804193
H        1.04621319       1.76315199      -0.72799528
16
Frame=9 idx=004278 GeodesicLength=0.3946291797507945 rxn_smarts="[C:1]([C@@:2]1([H:10])[C:3]([H:11])([H:12])[O:4][C@:5]1([C:6]([H:14])([H:15])[H:16])[H:13])([H:7])([H:8])[H:9]>>[C:1]([C@@:2]1([H:10])[C:3]([H:11])([H:12])[O:4]1)([H:7])([H:8])[H:9].[C:5]([C:6]([H:14])([H:15])[H:16])[H:13]"
C       -1.77751644       0.39220646      -0.56852164
C       -0.85513822      -0.23224653       0.42841828
C       -0.48328035      -1.65280529       0.33016992
O        0.53677884      -0.95535633      -0.37706182
C        1.18555393       0.06319921       0.64670696
C        1.77925837       1.14511039      -0.20802581
H       -1.58622749       1.46297764      -0.65346483
H       -2.81089020       0.28199588      -0.22819543
H       -1.68237321      -0.05715516      -1.55651354
H       -0.94053786       0.17137799       1.42892256
H       -1.06178214      -2.28563642      -0.34041294
H       -0.14880206      -2.15269049       1.23632425
H        1.98562406      -0.53207919       1.10381560
H        2.49750366       0.76883109      -0.94876478
H        2.31303477       1.83087170       0.45697768
H        1.04879433       1.75139906      -0.75037447
16
Frame=10 idx=004278 GeodesicLength=0.43827385444665384 rxn_smarts="[C:1]([C@@:2]1([H:10])[C:3]([H:11])([H:12])[O:4][C@:5]1([C:6]([H:14])([H:15])[H:16])[H:13])([H:7])([H:8])[H:9]>>[C:1]([C@@:2]1([H:10])[C:3]([H:11])([H:12])[O:4]1)([H:7])([H:8])[H:9].[C:5]([C:6]([H:14])([H:15])[H:16])[H:13]"
C       -1.77375315       0.39731389      -0.56383408
C       -0.84017488      -0.22714188       0.42502186
C       -0.48195155      -1.65399331       0.33045174
O        0.54283208      -0.96487659      -0.37880203
C        1.17951947       0.05978415       0.63838234
C        1.77641196       1.14233000      -0.21330440
H       -1.59783200       1.47158568      -0.63758745
H       -2.80609255       0.26958354      -0.22719331
H       -1.67190489      -0.03936404      -1.55699618
H       -0.93853583       0.16623956       1.42951114
H       -1.06668628      -2.28233697      -0.33907188
H       -0.15170536      -2.15484320       1.23762549
H        1.97576964      -0.52757102       1.11163586
H        2.50905899       0.76664391      -0.93955811
H        2.29372617       1.83687368       0.45562771
H        1.05131818       1.73977259      -0.77190870
16
Frame=11 idx=004278 GeodesicLength=0.48190150461490133 rxn_smarts="[C:1]([C@@:2]1([H:10])[C:3]([H:11])([H:12])[O:4][C@:5]1([C:6]([H:14])([H:15])[H:16])[H:13])([H:7])([H:8])[H:9]>>[C:1]([C@@:2]1([H:10])[C:3]([H:11])([H:12])[O:4]1)([H:7])([H:8])[H:9].[C:5]([C:6]([H:14])([H:15])[H:16])[H:13]"
C       -1.76991071       0.40236597      -0.55920588
C       -0.82542678      -0.22218361       0.42164946
C       -0.48067759      -1.65515806       0.33084304
O        0.54876662      -0.97433927      -0.38035005
C        1.17375082       0.05617499       0.63012280
C        1.77345221       1.13957353      -0.21849429
H       -1.60914559       1.47975940      -0.62174211
H       -2.80106982       0.25749819      -0.22659954
H       -1.66148136      -0.02158467      -1.55733806
H       -0.93635851       0.16129470       1.42977819
H       -1.07147219      -2.27904307      -0.33765906
H       -0.15470114      -2.15687295       1.23908287
H        1.96606292      -0.52320930       1.11908956
H        2.52001704       0.76487413      -0.93039540
H        2.27439760       1.84266281       0.45400575
H        1.05379649       1.72818722      -0.79278729
16
Frame=12 idx=004278 GeodesicLength=0.5255471640650503 rxn_smarts="[C:1]([C@@:2]1([H:10])[C:3]([H:11])([H:12])[O:4][C@:5]1([C:6]([H:14])([H:15])[H:16])[H:13])([H:7])([H:8])[H:9]>>[C:1]([C@@:2]1([H:10])[C:3]([H:11])([H:12])[O:4]1)([H:7])([H:8])[H:9].[C:5]([C:6]([H:14])([H:15])[H:16])[H:13]"
C       -1.76598814       0.40738455      -0.55461207
C       -0.81088448      -0.21737743       0.41831146
C       -0.47945690      -1.65630861       0.33133342
O        0.55458598      -0.98375081      -0.38170745
C        1.16823299       0.05238529       0.62192168
C        1.77038350       1.13682527      -0.22362610
H       -1.62022106       1.48754791      -0.60584160
H       -2.79583555       0.24568939      -0.22641491
H       -1.65102652      -0.00372409      -1.55754201
H       -0.93401327       0.15651998       1.42976780
H       -1.07615401      -2.27574990      -0.33618935
H       -0.15778250      -2.15879893       1.24067868
H        1.95648639      -0.51897212       1.12620560
H        2.53047413       0.76347570      -0.92121958
H        2.25495064       1.84829616       0.45209331
H        1.05624880       1.71655766      -0.81315890
16
Frame=13 idx=004278 GeodesicLength=0.569232820612497 rxn_smarts="[C:1]([C@@:2]1([H:10])[C:3]([H:11])([H:12])[O:4][C@:5]1([C:6]([H:14])([H:15])[H:16])[H:13])([H:7])([H:8])[H:9]>>[C:1]([C@@:2]1([H:10])[C:3]([H:11])([H:12])[O:4]1)([H:7])([H:8])[H:9].[C:5]([C:6]([H:14])([H:15])[H:16])[H:13]"
C       -1.76198171       0.41239341      -0.55002298
C       -0.79654082      -0.21272927       0.41502188
C       -0.47828901      -1.65745515       0.33190963
O        0.56028972      -0.99311773      -0.38289107
C        1.16295023       0.04842573       0.61376973
C        1.76720743       1.13407135      -0.22873294
H       -1.63106349       1.49498001      -0.58979087
H       -2.79039851       0.23414940      -0.22663723
H       -1.64050604       0.01429284      -1.55758996
H       -0.93149906       0.15188284       1.42952271
H       -1.08074608      -2.27245016      -0.33468301
H       -0.16093747      -2.16064691       1.24238679
H        1.94702262      -0.51484515       1.13302006
H        2.54055708       0.76242031      -0.91194254
H        2.23522899       1.85385685       0.44988091
H        1.05870614       1.70477164      -0.83322110
16
Frame=14 idx=004278 GeodesicLength=0.6129379715064958 rxn_smarts="[C:1]([C@@:2]1([H:10])[C:3]([H:11])([H:12])[O:4][C@:5]1([C:6]([H:14])([H:15])[H:16])[H:13])([H:7])([H:8])[H:9]>>[C:1]([C@@:2]1([H:10])[C:3]([H:11])([H:12])[O:4]1)([H:7])([H:8])[H:9].[C:5]([C:6]([H:14])([H:15])[H:16])[H:13]"
C       -1.75790146       0.41736237      -0.54546999
C       -0.78239257      -0.20822753       0.41176360
C       -0.47716723      -1.65858774       0.33257757
O        0.56587827      -1.00242449      -0.38390272
C        1.15789193       0.04430722       0.60568045
C        1.76393206       1.13132747      -0.23378208
H       -1.64167136       1.50202651      -0.57372138
H       -2.78476722       0.22288308      -0.22725560
H       -1.62996616       0.03237004      -1.55748765
H       -0.92882985       0.14741247       1.42903600
H       -1.08523446      -2.26915544      -0.33312167
H       -0.16416449      -2.16239249       1.24421854
H        1.93767182      -0.51083258       1.13952555
H        2.55014073       0.76171870      -0.90268513
H        2.21543852       1.85922737       0.44739773
H        1.06114148       1.69298504      -0.85277320
16
Frame=15 idx=004278 GeodesicLength=0.6566809237581728 rxn_smarts="[C:1]([C@@:2]1([H:10])[C:3]([H:11])([H:12])[O:4][C@:5]1([C:6]([H:14])([H:15])[H:16])[H:13])([H:7])([H:8])[H:9]>>[C:1]([C@@:2]1([H:10])[C:3]([H:11])([H:12])[O:4]1)([H:7])([H:8])[H:9].[C:5]([C:6]([H:14])([H:15])[H:16])[H:13]"
C       -1.75374617       0.42232138      -0.54093530
C       -0.76843100      -0.20387453       0.40855125
C       -0.47608826      -1.65972291       0.33333365
O        0.57135733      -1.01169320      -0.38475119
C        1.15305446       0.04003311       0.59765234
C        1.76055404       1.12857967      -0.23880351
H       -1.65208570       1.50873309      -0.55753234
H       -2.77895599       0.21186199      -0.22830401
H       -1.61934414       0.05060722      -1.55724292
H       -0.92600282       0.14309208       1.42835646
H       -1.08963855      -2.26586928      -0.33151528
H       -0.16745078      -2.16406271       1.24617064
H        1.92843998      -0.50692846       1.14575454
H        2.55931722       0.76134374      -0.89339206
H        2.19545913       1.86447316       0.44462843
H        1.06356123       1.68110566      -0.87197073
16
Frame=16 idx=004278 GeodesicLength=0.7005006497427346 rxn_smarts="[C:1]([C@@:2]1([H:10])[C:3]([H:11])([H:12])[O:4][C@:5]1([C:6]([H:14])([H:15])[H:16])[H:13])([H:7])([H:8])[H:9]>>[C:1]([C@@:2]1([H:10])[C:3]([H:11])([H:12])[O:4]1)([H:7])([H:8])[H:9].[C:5]([C:6]([H:14])([H:15])[H:16])[H:13]"
C       -1.74949602       0.42728181      -0.53638699
C       -0.75464650      -0.19967925       0.40539310
C       -0.47505815      -1.66085917       0.33416517
O        0.57672480      -1.02091792      -0.38544038
C        1.14841643       0.03561434       0.58967206
C        1.75707037       1.12581262      -0.24382847
H       -1.66230000       1.51510749      -0.54113845
H       -2.77294725       0.20106294      -0.22977610
H       -1.60858498       0.06907663      -1.55682320
H       -0.92302173       0.13887779       1.42750879
H       -1.09397034      -2.26256851      -0.32987638
H       -0.17080816      -2.16566621       1.24821362
H        1.91929241      -0.50310619       1.15172816
H        2.56817145       0.76128679      -0.88398597
H        2.17515423       1.86964807       0.44153417
H        1.06600344       1.66902876      -0.89095914
