13
Frame=0 idx=010429 GeodesicLength=0.0 rxn_smarts="[O:1]([C:2]([C@@:3]([C:4](=[O:5])[H:12])([C:6]#[C:7][H:13])[H:11])([H:9])[H:10])[H:8]>>[O:1]([C:2](/[C:3](=[C:4](\[O:5][C:6]#[C:7][H:13])[H:12])[H:11])([H:9])[H:10])[H:8]"
O       -2.31840200      -0.42739817      -0.19304393
C       -0.96724223      -0.59219003       0.16214582
C       -0.04492475       0.28280048      -0.70731494
C        0.37298876       1.53102220      -0.23831542
O        1.32267539       1.27853287       0.62186880
C        1.45668793      -0.09960602       0.26913524
C        2.22795778      -1.02747081       0.61395991
H       -2.62982204       0.41873285       0.13287526
H       -0.79651892      -0.39984761       1.22457444
H       -0.72062702      -1.63529286      -0.03518169
H       -0.32048226       0.18740210      -1.75644497
H        0.17359102       2.56499682      -0.49628497
H        2.24411836      -2.08168186       0.40202645
13
Frame=1 idx=010429 GeodesicLength=0.09727031055878899 rxn_smarts="[O:1]([C:2]([C@@:3]([C:4](=[O:5])[H:12])([C:6]#[C:7][H:13])[H:11])([H:9])[H:10])[H:8]>>[O:1]([C:2](/[C:3](=[C:4](\[O:5][C:6]#[C:7][H:13])[H:12])[H:11])([H:9])[H:10])[H:8]"
O       -2.33210112      -0.38963328      -0.17258925
C       -0.97773316      -0.60597371       0.14096704
C       -0.04874678       0.27649724      -0.70955927
C        0.35635593       1.52974162      -0.23928368
O        1.28890954       1.29625592       0.64299421
C        1.45636762      -0.10225531       0.28327271
C        2.24260339      -1.01434882       0.62410886
H       -2.60529828       0.45207187       0.19727319
H       -0.78665933      -0.47402242       1.20899670
H       -0.76278186      -1.64637662      -0.10243524
H       -0.32042796       0.19541008      -1.76117125
H        0.19874837       2.55517509      -0.55550945
H        2.29076364      -2.07254166       0.44293543
13
Frame=2 idx=010429 GeodesicLength=0.19406051695544513 rxn_smarts="[O:1]([C:2]([C@@:3]([C:4](=[O:5])[H:12])([C:6]#[C:7][H:13])[H:11])([H:9])[H:10])[H:8]>>[O:1]([C:2](/[C:3](=[C:4](\[O:5][C:6]#[C:7][H:13])[H:12])[H:11])([H:9])[H:10])[H:8]"
O       -2.34380509      -0.35220754      -0.14920493
C       -0.98844865      -0.61877276       0.11882567
C       -0.05280634       0.27057819      -0.71300761
C        0.34047889       1.52883709      -0.24234839
O        1.25347167       1.31382180       0.66318169
C        1.45554760      -0.10506527       0.29655973
C        2.25584787      -1.00114629       0.63479600
H       -2.57745817       0.48146667       0.26436651
H       -0.77690250      -0.54820155       1.18869262
H       -0.80695310      -1.65374448      -0.17076787
H       -0.32109450       0.20351122      -1.76676602
H        0.22551082       2.54272930      -0.61151809
H        2.33661151      -2.06180641       0.48719068
13
Frame=3 idx=010429 GeodesicLength=0.29042006829822964 rxn_smarts="[O:1]([C:2]([C@@:3]([C:4](=[O:5])[H:12])([C:6]#[C:7][H:13])[H:11])([H:9])[H:10])[H:8]>>[O:1]([C:2](/[C:3](=[C:4](\[O:5][C:6]#[C:7][H:13])[H:12])[H:11])([H:9])[H:10])[H:8]"
O       -2.35331387      -0.31507136      -0.12276678
C       -0.99941420      -0.63049884       0.09574720
C       -0.05695296       0.26481798      -0.71780444
C        0.32566974       1.52808427      -0.24779168
O        1.21687258       1.33124645       0.68175559
C        1.45425341      -0.10829542       0.30903971
C        2.26701049      -0.98838767       0.64719015
H       -2.54588007       0.50699251       0.33386232
H       -0.76725449      -0.62200095       1.16352330
H       -0.85341614      -1.65722278      -0.23980532
H       -0.32236534       0.21141554      -1.77337719
H        0.25249859       2.52826911      -0.66370868
H        2.38229225      -2.04934884       0.53413581
13
Frame=4 idx=010429 GeodesicLength=0.38626236134391767 rxn_smarts="[O:1]([C:2]([C@@:3]([C:4](=[O:5])[H:12])([C:6]#[C:7][H:13])[H:11])([H:9])[H:10])[H:8]>>[O:1]([C:2](/[C:3](=[C:4](\[O:5][C:6]#[C:7][H:13])[H:12])[H:11])([H:9])[H:10])[H:8]"
O       -2.36040602      -0.27886137      -0.09334659
C       -1.01059638      -0.64121947       0.07203548
C       -0.06129683       0.25934292      -0.72363147
C        0.31165640       1.52761251      -0.25514457
O        1.17881986       1.34874603       0.69903989
C        1.45235402      -0.11173198       0.32109643
C        2.27628825      -0.97600526       0.66068930
H       -2.51067199       0.52785200       0.40538401
H       -0.75797501      -0.69537196       1.13370693
H       -0.90196902      -1.65669304      -0.30902883
H       -0.32421566       0.21920214      -1.78073250
H        0.28115911       2.51211395      -0.71324056
H        2.42685327      -2.03498647       0.58317249
13
Frame=5 idx=010429 GeodesicLength=0.4816284626845417 rxn_smarts="[O:1]([C:2]([C@@:3]([C:4](=[O:5])[H:12])([C:6]#[C:7][H:13])[H:11])([H:9])[H:10])[H:8]>>[O:1]([C:2](/[C:3](=[C:4](\[O:5][C:6]#[C:7][H:13])[H:12])[H:11])([H:9])[H:10])[H:8]"
O       -2.36481693      -0.24393062      -0.06068389
C       -1.02186211      -0.65095617       0.04762917
C       -0.06580215       0.25421416      -0.73064520
C        0.29848501       1.52741206      -0.26433151
O        1.13996357       1.36642337       0.71438498
C        1.45001052      -0.11547951       0.33233380
C        2.28342625      -0.96435625       0.67541680
H       -2.47142725       0.54383192       0.47863883
H       -0.74878510      -0.76808090       1.09902160
H       -0.95251361      -1.65202801      -0.37826971
H       -0.32681276       0.22713126      -1.78896893
H        0.31040049       2.49479966      -0.75972063
H        2.46973407      -2.01898097       0.63519470
13
Frame=6 idx=010429 GeodesicLength=0.5765603923466991 rxn_smarts="[O:1]([C:2]([C@@:3]([C:4](=[O:5])[H:12])([C:6]#[C:7][H:13])[H:11])([H:9])[H:10])[H:8]>>[O:1]([C:2](/[C:3](=[C:4](\[O:5][C:6]#[C:7][H:13])[H:12])[H:11])([H:9])[H:10])[H:8]"
O       -2.36639908      -0.21075960      -0.02470024
C       -1.03324322      -0.65975724       0.02270375
C       -0.07051979       0.24943927      -0.73864903
C        0.28594906       1.52749197      -0.27501948
O        1.10032412       1.38443949       0.72784082
C        1.44710409      -0.11951040       0.34303203
C        2.28815178      -0.95358616       0.69172178
H       -2.42797966       0.55481451       0.55287213
H       -0.73985507      -0.83980946       1.05955937
H       -1.00502946      -1.64318507      -0.44693335
H       -0.33016540       0.23523640      -1.79790223
H        0.34066156       2.47632231      -0.80372293
H        2.51100106      -2.00113601       0.68919740
13
Frame=7 idx=010429 GeodesicLength=0.6709845970563666 rxn_smarts="[O:1]([C:2]([C@@:3]([C:4](=[O:5])[H:12])([C:6]#[C:7][H:13])[H:11])([H:9])[H:10])[H:8]>>[O:1]([C:2](/[C:3](=[C:4](\[O:5][C:6]#[C:7][H:13])[H:12])[H:11])([H:9])[H:10])[H:8]"
O       -2.36476339      -0.18002857       0.01462535
C       -1.04444259      -0.66761999      -0.00268407
C       -0.07546494       0.24525941      -0.74776839
C        0.27401232       1.52798951      -0.28701711
O        1.06063278       1.40291795       0.73890897
C        1.44396725      -0.12381475       0.35248845
C        2.29083013      -0.94400015       0.70820177
H       -2.38014739       0.56028251       0.62769234
H       -0.73076972      -0.91022060       1.01525921
H       -1.05899453      -1.63008049      -0.51463464
H       -0.33453193       0.24395048      -1.80760843
H        0.37089003       2.45735805      -0.84480120
H        2.54878198      -1.98199336       0.74733775
13
Frame=8 idx=010429 GeodesicLength=0.7648590040666207 rxn_smarts="[O:1]([C:2]([C@@:3]([C:4](=[O:5])[H:12])([C:6]#[C:7][H:13])[H:11])([H:9])[H:10])[H:8]>>[O:1]([C:2](/[C:3](=[C:4](\[O:5][C:6]#[C:7][H:13])[H:12])[H:11])([H:9])[H:10])[H:8]"
O       -2.35974626      -0.15210172       0.05678514
C       -1.05542518      -0.67448177      -0.02813411
C       -0.08053936       0.24161299      -0.75773259
C        0.26262903       1.52892116      -0.30015696
O        1.02101088       1.42217345       0.74768142
C        1.44054894      -0.12830470       0.36121770
C        2.29102391      -0.93588273       0.72555741
H       -2.32816918       0.56013599       0.70216342
H       -0.72186884      -0.97865940       0.96664735
H       -1.11407358      -1.61278942      -0.58034379
H       -0.33960771       0.25296144      -1.81786732
H        0.40108178       2.43797715      -0.88337465
H        2.58313557      -1.96156244       0.80755697
13
Frame=9 idx=010429 GeodesicLength=0.8582162173967851 rxn_smarts="[O:1]([C:2]([C@@:3]([C:4](=[O:5])[H:12])([C:6]#[C:7][H:13])[H:11])([H:9])[H:10])[H:8]>>[O:1]([C:2](/[C:3](=[C:4](\[O:5][C:6]#[C:7][H:13])[H:12])[H:11])([H:9])[H:10])[H:8]"
O       -2.35140680      -0.12699491       0.10095784
C       -1.06631071      -0.68025057      -0.05315659
C       -0.08548599       0.23819088      -0.76811295
C        0.25184198       1.53014810      -0.31435841
O        0.98144789       1.44266556       0.75432505
C        1.43658795      -0.13292958       0.37042866
C        2.28757919      -0.92953609       0.74637087
H       -2.27254023       0.55493389       0.77487874
H       -0.71385138      -1.04425171       0.91462375
H       -1.16998407      -1.59159872      -0.64278151
H       -0.34462733       0.26146562      -1.82838930
H        0.43104022       2.41804036      -0.91991906
H        2.61570927      -1.93988284       0.86513290
13
Frame=10 idx=010429 GeodesicLength=0.9512356238038201 rxn_smarts="[O:1]([C:2]([C@@:3]([C:4](=[O:5])[H:12])([C:6]#[C:7][H:13])[H:11])([H:9])[H:10])[H:8]>>[O:1]([C:2](/[C:3](=[C:4](\[O:5][C:6]#[C:7][H:13])[H:12])[H:11])([H:9])[H:10])[H:8]"
O       -2.33923844      -0.10542960       0.14791375
C       -1.07667897      -0.68508538      -0.07816156
C       -0.09060265       0.23554599      -0.77946683
C        0.24141980       1.53193206      -0.32940952
O        0.94291164       1.46414542       0.75820793
C        1.43275072      -0.13778853       0.37804366
C        2.28173164      -0.92512183       0.76706581
H       -2.21242897       0.54395700       0.84665619
H       -0.70549998      -1.10752959       0.85836402
H       -1.22641802      -1.56639341      -0.70266771
H       -0.35075498       0.27077183      -1.83952359
H        0.45949223       2.39852888      -0.95399514
H        2.64331597      -1.91753282       0.92697298
13
Frame=11 idx=010429 GeodesicLength=1.0443170119423082 rxn_smarts="[O:1]([C:2]([C@@:3]([C:4](=[O:5])[H:12])([C:6]#[C:7][H:13])[H:11])([H:9])[H:10])[H:8]>>[O:1]([C:2](/[C:3](=[C:4](\[O:5][C:6]#[C:7][H:13])[H:12])[H:11])([H:9])[H:10])[H:8]"
O       -2.32318337      -0.08729220       0.19734071
C       -1.08680573      -0.68904507      -0.10301200
C       -0.09575935       0.23335628      -0.79146138
C        0.23120319       1.53412802      -0.34526341
O        0.90471197       1.48692856       0.75984024
C        1.42852214      -0.14281311       0.38536471
C        2.27241487      -0.92246870       0.79025046
H       -2.14759619       0.52776992       0.91669246
H       -0.69750022      -1.16827948       0.79816484
H       -1.28386045      -1.53732652      -0.75940244
H       -0.35741693       0.28024861      -1.85104732
H        0.48733166       2.37876952      -0.98645833
H        2.66793841      -1.89397582       0.98899146
13
Frame=12 idx=010429 GeodesicLength=1.1376530552550261 rxn_smarts="[O:1]([C:2]([C@@:3]([C:4](=[O:5])[H:12])([C:6]#[C:7][H:13])[H:11])([H:9])[H:10])[H:8]>>[O:1]([C:2](/[C:3](=[C:4](\[O:5][C:6]#[C:7][H:13])[H:12])[H:11])([H:9])[H:10])[H:8]"
O       -2.30284331      -0.07301163       0.24930392
C       -1.09652085      -0.69214206      -0.12768585
C       -0.10102663       0.23182570      -0.80428902
C        0.22116218       1.53687030      -0.36185206
O        0.86738839       1.51104022       0.75899391
C        1.42420906      -0.14807598       0.39161821
C        2.25987521      -0.92185794       0.81455933
H       -2.07771087       0.50596436       0.98502478
H       -0.68950566      -1.22651157       0.73383413
H       -1.34206995      -1.50438252      -0.81280332
H       -0.36501598       0.29029169      -1.86308535
H        0.51381456       2.35935584      -1.01727919
H        2.68824385      -1.86936641       1.05366051
13
Frame=13 idx=010429 GeodesicLength=1.2311057660268525 rxn_smarts="[O:1]([C:2]([C@@:3]([C:4](=[O:5])[H:12])([C:6]#[C:7][H:13])[H:11])([H:9])[H:10])[H:8]>>[O:1]([C:2](/[C:3](=[C:4](\[O:5][C:6]#[C:7][H:13])[H:12])[H:11])([H:9])[H:10])[H:8]"
O       -2.27836210      -0.06249377       0.30244252
C       -1.10576549      -0.69425087      -0.15153803
C       -0.10618388       0.23074294      -0.81743252
C        0.21127496       1.54005066      -0.37904934
O        0.83056246       1.53679986       0.75604238
C        1.41962456      -0.15339070       0.39793933
C        2.24341374      -0.92331491       0.84134236
H       -2.00384295       0.47902098       1.05017719
H       -0.68212859      -1.28127869       0.66666080
H       -1.40013568      -1.46798643      -0.86158931
H       -0.37291195       0.30017113      -1.87521622
H        0.53915323       2.34001002      -1.04672874
H        2.70530169      -1.84408022       1.11694955
13
Frame=14 idx=010429 GeodesicLength=1.3253584639431932 rxn_smarts="[O:1]([C:2]([C@@:3]([C:4](=[O:5])[H:12])([C:6]#[C:7][H:13])[H:11])([H:9])[H:10])[H:8]>>[O:1]([C:2](/[C:3](=[C:4](\[O:5][C:6]#[C:7][H:13])[H:12])[H:11])([H:9])[H:10])[H:8]"
O       -2.24899781      -0.05624469       0.35766686
C       -1.11443771      -0.69561511      -0.17496191
C       -0.11142265       0.23033108      -0.83134019
C        0.20134596       1.54383667      -0.39684745
O        0.79438696       1.56409305       0.75085694
C        1.41504625      -0.15882739       0.40323377
C        2.22326128      -0.92684528       0.86919104
H       -1.92442899       0.44647563       1.11276598
H       -0.67481512      -1.33318836       0.59568501
H       -1.45867810      -1.42805785      -0.90613560
H       -0.38185579       0.31059731      -1.88776186
H        0.56321611       2.32105782      -1.07494673
H        2.71737962      -1.81761289       1.18259413
13
Frame=15 idx=010429 GeodesicLength=1.4212394787881906 rxn_smarts="[O:1]([C:2]([C@@:3]([C:4](=[O:5])[H:12])([C:6]#[C:7][H:13])[H:11])([H:9])[H:10])[H:8]>>[O:1]([C:2](/[C:3](=[C:4](\[O:5][C:6]#[C:7][H:13])[H:12])[H:11])([H:9])[H:10])[H:8]"
O       -2.21454607      -0.05368452       0.41431924
C       -1.12294711      -0.69615399      -0.19789636
C       -0.11639131       0.23003080      -0.84562035
C        0.19140010       1.54792094      -0.41554138
O        0.75755195       1.59348778       0.74378235
C        1.40934592      -0.16424889       0.40994269
C        2.19641612      -0.93193779       0.90353233
H       -1.83916977       0.40891827       1.17184387
H       -0.66877857      -1.38203274       0.52124447
H       -1.51831977      -1.38441382      -0.94593669
H       -0.39063827       0.32038690      -1.90058063
H        0.58713708       2.30145389      -1.10259880
H        2.72893971      -1.78972683       1.24350927
13
Frame=16 idx=010429 GeodesicLength=1.5188849515204526 rxn_smarts="[O:1]([C:2]([C@@:3]([C:4](=[O:5])[H:12])([C:6]#[C:7][H:13])[H:11])([H:9])[H:10])[H:8]>>[O:1]([C:2](/[C:3](=[C:4](\[O:5][C:6]#[C:7][H:13])[H:12])[H:11])([H:9])[H:10])[H:8]"
O       -2.17326695      -0.05676006       0.47385168
C       -1.13034640      -0.69611153      -0.22049337
C       -0.12188121       0.23094181      -0.86137727
C        0.18117181       1.55277114      -0.43459750
O        0.72218428       1.62363383       0.73423533
C        1.40475883      -0.17023355       0.41282047
C        2.16708739      -0.94008380       0.93347412
H       -1.74581137       0.36462563       1.22815679
H       -0.66171981      -1.42804456       0.44191144
H       -1.57834990      -1.33715587      -0.98068828
H       -0.40244385       0.33224140      -1.91401078
H        0.60861251       2.28328523      -1.12870203
H        2.73000466      -1.75910967       1.31541939
