10
Frame=0 idx=000138 GeodesicLength=0.0 rxn_smarts="[O:1]=[C:2]1[C:3]([H:7])([H:8])[C@@:4]2([H:9])[O:5][C@@:6]12[H:10]>>[O-:1][C:2]1=[C:6]=[O+:5][C:4]([H:9])([H:10])[C:3]1([H:7])[H:8]"
O       -0.31866380       2.35105357      -0.24323338
C       -0.04711992       1.19879371      -0.13438694
C       -0.88621858      -0.03121234       0.21341987
C        0.33266947      -0.90531837       0.00192105
O        0.89194319      -0.52446708      -1.22569547
C        1.34594582       0.51860771      -0.36786396
H       -1.71687548      -0.25372445      -0.45530573
H       -1.23772758       0.02369420       1.24427841
H        0.45144181      -1.96043327       0.22639742
H        1.18460507      -0.41699368       0.74046873
10
Frame=1 idx=000138 GeodesicLength=0.05427577539588876 rxn_smarts="[O:1]=[C:2]1[C:3]([H:7])([H:8])[C@@:4]2([H:9])[O:5][C@@:6]12[H:10]>>[O-:1][C:2]1=[C:6]=[O+:5][C:4]([H:9])([H:10])[C:3]1([H:7])[H:8]"
O       -0.32470893       2.35323972      -0.24031571
C       -0.05091971       1.20072928      -0.14028838
C       -0.88592929      -0.03145184       0.21284320
C        0.33332606      -0.90628639       0.00675059
O        0.89950843      -0.52608972      -1.22179320
C        1.34081032       0.52123192      -0.37119409
H       -1.71684576      -0.25468134      -0.45517830
H       -1.23820637       0.02831144       1.24314090
H        0.43819793      -1.96506371       0.21915023
H        1.20476733      -0.41993936       0.74688476
10
Frame=2 idx=000138 GeodesicLength=0.10853915854446954 rxn_smarts="[O:1]=[C:2]1[C:3]([H:7])([H:8])[C@@:4]2([H:9])[O:5][C@@:6]12[H:10]>>[O-:1][C:2]1=[C:6]=[O+:5][C:4]([H:9])([H:10])[C:3]1([H:7])[H:8]"
O       -0.33072330       2.35536479      -0.23734761
C       -0.05481755       1.20262503      -0.14633100
C       -0.88570083      -0.03169235       0.21225254
C        0.33394255      -0.90726606       0.01170902
O        0.90709591      -0.52769833      -1.21773605
C        1.33562466       0.52376515      -0.37435640
H       -1.71686167      -0.25570342      -0.45506110
H       -1.23875884       0.03296970       1.24195980
H        0.42481934      -1.96944763       0.21178376
H        1.22537974      -0.42291688       0.75312704
10
Frame=3 idx=000138 GeodesicLength=0.16279373292364155 rxn_smarts="[O:1]=[C:2]1[C:3]([H:7])([H:8])[C@@:4]2([H:9])[O:5][C@@:6]12[H:10]>>[O-:1][C:2]1=[C:6]=[O+:5][C:4]([H:9])([H:10])[C:3]1([H:7])[H:8]"
O       -0.33670464       2.35742409      -0.23433098
C       -0.05881320       1.20447901      -0.15251337
C       -0.88553565      -0.03193347       0.21164736
C        0.33451562      -0.90825784       0.01680070
O        0.91470228      -0.52929109      -1.21351900
C        1.33038848       0.52620546      -0.37734727
H       -1.71692443      -0.25678887      -0.45495615
H       -1.23939154       0.03766883       1.24073245
H        0.41131095      -1.97357825       0.20429759
H        1.24645212      -0.42592787       0.75918866
10
Frame=4 idx=000138 GeodesicLength=0.21704154748177537 rxn_smarts="[O:1]=[C:2]1[C:3]([H:7])([H:8])[C@@:4]2([H:9])[O:5][C@@:6]12[H:10]>>[O-:1][C:2]1=[C:6]=[O+:5][C:4]([H:9])([H:10])[C:3]1([H:7])[H:8]"
O       -0.34265112       2.35941164      -0.23127111
C       -0.06290459       1.20628926      -0.15883020
C       -0.88543733      -0.03217480       0.21102725
C        0.33503948      -0.90926385       0.02202889
O        0.92232300      -0.53086565      -1.20913722
C        1.32510186       0.52854926      -0.38015969
H       -1.71703643      -0.25793361      -0.45486628
H       -1.24011234       0.04240769       1.23945646
H        0.39768175      -1.97744502       0.19669306
H        1.26799571      -0.42897491       0.76505884
10
Frame=5 idx=000138 GeodesicLength=0.2712894802193453 rxn_smarts="[O:1]=[C:2]1[C:3]([H:7])([H:8])[C@@:4]2([H:9])[O:5][C@@:6]12[H:10]>>[O-:1][C:2]1=[C:6]=[O+:5][C:4]([H:9])([H:10])[C:3]1([H:7])[H:8]"
O       -0.34855933       2.36132142      -0.22817384
C       -0.06709060       1.20805300      -0.16527623
C       -0.88540921      -0.03241656       0.21039237
C        0.33550884      -0.91028677       0.02739751
O        0.92995387      -0.53241980      -1.20458478
C        1.31976435       0.53079198      -0.38278676
H       -1.71719978      -0.25913481      -0.45479393
H       -1.24092939       0.04718423       1.23812923
H        0.38393797      -1.98103472       0.18896885
H        1.29002329      -0.43205798       0.77072757
10
Frame=6 idx=000138 GeodesicLength=0.32554392120505826 rxn_smarts="[O:1]=[C:2]1[C:3]([H:7])([H:8])[C@@:4]2([H:9])[O:5][C@@:6]12[H:10]>>[O-:1][C:2]1=[C:6]=[O+:5][C:4]([H:9])([H:10])[C:3]1([H:7])[H:8]"
O       -0.35442883       2.36314903      -0.22504637
C       -0.07136842       1.20976961      -0.17184346
C       -0.88545499      -0.03265714       0.20974179
C        0.33591625      -0.91132706       0.03290604
O        0.93759015      -0.53394869      -1.19985889
C        1.31437608       0.53293165      -0.38522275
H       -1.71741718      -0.26038535      -0.45474229
H       -1.24185051       0.05199680       1.23674808
H        0.37009322      -1.98434598       0.18113282
H        1.31254424      -0.43518287       0.77618503
10
Frame=7 idx=000138 GeodesicLength=0.3797997143494261 rxn_smarts="[O:1]=[C:2]1[C:3]([H:7])([H:8])[C@@:4]2([H:9])[O:5][C@@:6]12[H:10]>>[O-:1][C:2]1=[C:6]=[O+:5][C:4]([H:9])([H:10])[C:3]1([H:7])[H:8]"
O       -0.36025835       2.36488911      -0.22189947
C       -0.07573514       1.21143771      -0.17852187
C       -0.88557827      -0.03289585       0.20907598
C        0.33625591      -0.91238602       0.03855774
O        0.94522689      -0.53544761      -1.19495374
C        1.30893723       0.53496420      -0.38745837
H       -1.71769012      -0.26168043      -0.45471456
H       -1.24288484       0.05684273       1.23531073
H        0.35615665      -1.98737029       0.17318760
H        1.33557005      -0.43835355       0.78141595
10
Frame=8 idx=000138 GeodesicLength=0.4340796252574735 rxn_smarts="[O:1]=[C:2]1[C:3]([H:7])([H:8])[C@@:4]2([H:9])[O:5][C@@:6]12[H:10]>>[O-:1][C:2]1=[C:6]=[O+:5][C:4]([H:9])([H:10])[C:3]1([H:7])[H:8]"
O       -0.36604793       2.36654097      -0.21874301
C       -0.08018550       1.21305568      -0.18529839
C       -0.88578236      -0.03313230       0.20839457
C        0.33651957      -0.91346796       0.04434901
O        0.95285932      -0.53691170      -1.18986773
C        1.30344809       0.53688385      -0.38948804
H       -1.71802149      -0.26301226      -0.45471456
H       -1.24403973       0.06171721       1.23381465
H        0.34213818      -1.99010800       0.16514020
H        1.35911184      -0.44156549       0.78641331
10
Frame=9 idx=000138 GeodesicLength=0.488557646942166 rxn_smarts="[O:1]=[C:2]1[C:3]([H:7])([H:8])[C@@:4]2([H:9])[O:5][C@@:6]12[H:10]>>[O-:1][C:2]1=[C:6]=[O+:5][C:4]([H:9])([H:10])[C:3]1([H:7])[H:8]"
O       -0.37180114       2.36810652      -0.21559154
C       -0.08470494       1.21461066      -0.19216792
C       -0.88606050      -0.03338090       0.20770360
C        0.33669613      -0.91458781       0.05028838
O        0.96052458      -0.53837348      -1.18456538
C        1.29788267       0.53869460      -0.39134079
H       -1.71841217      -0.26439168      -0.45471837
H       -1.24532957       0.06661881       1.23226374
H        0.32800005      -1.99249282       0.15691456
H        1.38320490      -0.44480390       0.79121372
10
Frame=10 idx=000138 GeodesicLength=0.5426009992038385 rxn_smarts="[O:1]=[C:2]1[C:3]([H:7])([H:8])[C@@:4]2([H:9])[O:5][C@@:6]12[H:10]>>[O-:1][C:2]1=[C:6]=[O+:5][C:4]([H:9])([H:10])[C:3]1([H:7])[H:8]"
O       -0.37750915       2.36953434      -0.21244973
C       -0.08933897       1.21613978      -0.19913913
C       -0.88645046      -0.03360134       0.20698781
C        0.33680158      -0.91570102       0.05639600
O        0.96809633      -0.53974252      -1.17911465
C        1.29232767       0.54040708      -0.39286664
H       -1.71887046      -0.26578859      -0.45481058
H       -1.24674244       0.07156347       1.23065062
H        0.31389683      -1.99458874       0.14871567
H        1.40778906      -0.44822246       0.79563063
10
Frame=11 idx=000138 GeodesicLength=0.5968919497094409 rxn_smarts="[O:1]=[C:2]1[C:3]([H:7])([H:8])[C@@:4]2([H:9])[O:5][C@@:6]12[H:10]>>[O-:1][C:2]1=[C:6]=[O+:5][C:4]([H:9])([H:10])[C:3]1([H:7])[H:8]"
O       -0.38316985       2.37087744      -0.20931899
C       -0.09402555       1.21759989      -0.20616126
C       -0.88692802      -0.03382598       0.20625654
C        0.33678651      -0.91685750       0.06262489
O        0.97568368      -0.54108379      -1.17344808
C        1.28669163       0.54197927      -0.39421071
H       -1.71939516      -0.26719689      -0.45492146
H       -1.24831900       0.07651859       1.22896510
H        0.29973137      -1.99637481       0.14040110
H        1.43294440      -0.45163623       0.79981288
10
Frame=12 idx=000138 GeodesicLength=0.651183472916379 rxn_smarts="[O:1]=[C:2]1[C:3]([H:7])([H:8])[C@@:4]2([H:9])[O:5][C@@:6]12[H:10]>>[O-:1][C:2]1=[C:6]=[O+:5][C:4]([H:9])([H:10])[C:3]1([H:7])[H:8]"
O       -0.38879414       2.37211649      -0.20623533
C       -0.09877408       1.21901149      -0.21322122
C       -0.88750579      -0.03404506       0.20550798
C        0.33665821      -0.91804541       0.06899123
O        0.98324030      -0.54237418      -1.16758910
C        1.28101035       0.54343339      -0.39530172
H       -1.71999038      -0.26860715      -0.45508397
H       -1.25005494       0.08148694       1.22721437
H        0.28555421      -1.99784273       0.13202858
H        1.45865626      -0.45513378       0.80368920
10
Frame=13 idx=000138 GeodesicLength=0.7054835365927817 rxn_smarts="[O:1]=[C:2]1[C:3]([H:7])([H:8])[C@@:4]2([H:9])[O:5][C@@:6]12[H:10]>>[O-:1][C:2]1=[C:6]=[O+:5][C:4]([H:9])([H:10])[C:3]1([H:7])[H:8]"
O       -0.39438215       2.37324884      -0.20321229
C       -0.10357819       1.22037284      -0.22030276
C       -0.88818878      -0.03425710       0.20474194
C        0.33640515      -0.91926708       0.07549155
O        0.99076148      -0.54360696      -1.16153205
C        1.27528428       0.54476358      -0.39613000
H       -1.72065874      -0.27000947      -0.45530292
H       -1.25196038       0.08646428       1.22539567
H        0.27138175      -1.99899333       0.12360812
H        1.48493557      -0.45871560       0.80724274
10
Frame=14 idx=000138 GeodesicLength=0.7597766553406963 rxn_smarts="[O:1]=[C:2]1[C:3]([H:7])([H:8])[C@@:4]2([H:9])[O:5][C@@:6]12[H:10]>>[O-:1][C:2]1=[C:6]=[O+:5][C:4]([H:9])([H:10])[C:3]1([H:7])[H:8]"
O       -0.39993678       2.37427375      -0.20026532
C       -0.10843062       1.22168426      -0.22738813
C       -0.88898167      -0.03446146       0.20395842
C        0.33601806      -0.92052446       0.08212588
O        0.99824103      -0.54477740      -1.15527261
C        1.26951675       0.54596808      -0.39668004
H       -1.72140127      -0.27139533      -0.45558529
H       -1.25404675       0.09144655       1.22350641
H        0.25722790      -1.99982733       0.11515251
H        1.51179334      -0.46238666       0.81044817
10
Frame=15 idx=000138 GeodesicLength=0.8140601736765604 rxn_smarts="[O:1]=[C:2]1[C:3]([H:7])([H:8])[C@@:4]2([H:9])[O:5][C@@:6]12[H:10]>>[O-:1][C:2]1=[C:6]=[O+:5][C:4]([H:9])([H:10])[C:3]1([H:7])[H:8]"
O       -0.40546034       2.37519248      -0.19740513
C       -0.11332318       1.22294655      -0.23445974
C       -0.88988954      -0.03465702       0.20315597
C        0.33548572      -0.92182008       0.08889056
O        1.00567323      -0.54588191      -1.14880817
C        1.26370927       0.54704442      -0.39694028
H       -1.72221997      -0.27275436      -0.45593986
H       -1.25632480       0.09642926       1.22154331
H        0.24310940      -2.00035110       0.10667958
H        1.53924020      -0.46614823       0.81328376
10
Frame=16 idx=000138 GeodesicLength=0.8683287375576176 rxn_smarts="[O:1]=[C:2]1[C:3]([H:7])([H:8])[C@@:4]2([H:9])[O:5][C@@:6]12[H:10]>>[O-:1][C:2]1=[C:6]=[O+:5][C:4]([H:9])([H:10])[C:3]1([H:7])[H:8]"
O       -0.41095561       2.37600626      -0.19464342
C       -0.11824799       1.22416011      -0.24150086
C       -0.89091707      -0.03484342       0.20233366
C        0.33479783      -0.92315690       0.09578391
O        1.01305325      -0.54691820      -1.14213434
C        1.25786411       0.54799070      -0.39689811
H       -1.72311626      -0.27407791      -0.45637493
H       -1.25880484       0.10140830       1.21950377
H        0.22903947      -2.00056784       0.09820285
H        1.56728712      -0.47000110       0.81572748
