14
Frame=0 idx=002976 GeodesicLength=0.0 rxn_smarts="[C:1]([C@@:2]1([H:10])[O:3][C@:4]1([C:5]([O:6][H:14])([H:12])[H:13])[H:11])([H:7])([H:8])[H:9]>>[C:1]([C@@:2]1([H:10])[O:3][C:4]1([H:11])[H:14])([H:7])([H:8])[H:9].[C:5](=[O:6])([H:12])[H:13]"
C        1.55939234       0.59937692       0.05894078
C        0.85630291      -0.62708962       0.55811932
O       -0.03477592      -0.45324753       1.64647994
C       -0.58041781      -0.84657261       0.38729985
C       -1.45802691       0.31958599      -0.87540090
O       -1.89423887       1.37060609      -0.21766218
H        0.87942616       1.45184701       0.02667548
H        1.96600078       0.42638749      -0.93973004
H        2.38879215       0.84609940       0.72308597
H        1.46458404      -1.52496111       0.64980258
H       -1.01961862      -1.83907780       0.35249830
H       -2.17982585      -0.43597573      -1.22466008
H       -0.60365297       0.42770052      -1.56123771
H       -1.34394138       0.28532093       0.41578874
14
Frame=1 idx=002976 GeodesicLength=0.09898090465396257 rxn_smarts="[C:1]([C@@:2]1([H:10])[O:3][C@:4]1([C:5]([O:6][H:14])([H:12])[H:13])[H:11])([H:7])([H:8])[H:9]>>[C:1]([C@@:2]1([H:10])[O:3][C:4]1([H:11])[H:14])([H:7])([H:8])[H:9].[C:5](=[O:6])([H:12])[H:13]"
C        1.56891909       0.59688783       0.06026743
C        0.85883009      -0.62715477       0.55577250
O       -0.02066456      -0.45079513       1.65324671
C       -0.58045847      -0.83784284       0.39871834
C       -1.46312413       0.31514650      -0.88483360
O       -1.92454520       1.35562409      -0.22906946
H        0.89483650       1.45417614       0.03485377
H        1.97032530       0.42577075      -0.94088245
H        2.40377373       0.83411775       0.72111262
H        1.46241501      -1.52924723       0.63798175
H       -1.02288590      -1.82938204       0.37060426
H       -2.16920231      -0.44603632      -1.25293992
H       -0.60822888       0.45147416      -1.56496944
H       -1.36999027       0.28726111       0.44013749
14
Frame=2 idx=002976 GeodesicLength=0.19782769760026264 rxn_smarts="[C:1]([C@@:2]1([H:10])[O:3][C@:4]1([C:5]([O:6][H:14])([H:12])[H:13])[H:11])([H:7])([H:8])[H:9]>>[C:1]([C@@:2]1([H:10])[O:3][C:4]1([H:11])[H:14])([H:7])([H:8])[H:9].[C:5](=[O:6])([H:12])[H:13]"
C        1.57872774       0.59416892       0.06140861
C        0.86118924      -0.62703251       0.55350708
O       -0.00654478      -0.44786479       1.66002731
C       -0.58060349      -0.82848298       0.41035789
C       -1.46803141       0.31070822      -0.89466435
O       -1.95610715       1.33878853      -0.24010488
H        0.91095458       1.45651807       0.04297166
H        1.97463217       0.42474255      -0.94228773
H        2.41919334       0.82155913       0.71871752
H        1.45967443      -1.53348309       0.62631905
H       -1.02618047      -1.81908360       0.38886242
H       -2.15719706      -0.45636297      -1.28198130
H       -0.61311415       0.47676675      -1.56829361
H       -1.39659299       0.28905780       0.46516035
14
Frame=3 idx=002976 GeodesicLength=0.29659253597207147 rxn_smarts="[C:1]([C@@:2]1([H:10])[O:3][C@:4]1([C:5]([O:6][H:14])([H:12])[H:13])[H:11])([H:7])([H:8])[H:9]>>[C:1]([C@@:2]1([H:10])[O:3][C:4]1([H:11])[H:14])([H:7])([H:8])[H:9].[C:5](=[O:6])([H:12])[H:13]"
C        1.58880905       0.59119515       0.06233928
C        0.86334399      -0.62671313       0.55132589
O        0.00759819      -0.44443651       1.66683745
C       -0.58088399      -0.81843192       0.42225656
C       -1.47273062       0.30627153      -0.90492420
O       -1.98898292       1.31990956      -0.25078710
H        0.92782294       1.45886625       0.05102905
H        1.97886733       0.42327644      -0.94398330
H        2.43505582       0.80835800       0.71584465
H        1.45628893      -1.53767343       0.61480727
H       -1.02951897      -1.80810877       0.40728493
H       -2.14354438      -0.46699884      -1.31188387
H       -0.61838416       0.50373319      -1.57111295
H       -1.42374121       0.29075249       0.49096635
14
Frame=4 idx=002976 GeodesicLength=0.39530014827988463 rxn_smarts="[C:1]([C@@:2]1([H:10])[O:3][C@:4]1([C:5]([O:6][H:14])([H:12])[H:13])[H:11])([H:7])([H:8])[H:9]>>[C:1]([C@@:2]1([H:10])[O:3][C:4]1([H:11])[H:14])([H:7])([H:8])[H:9].[C:5](=[O:6])([H:12])[H:13]"
C        1.59914366       0.58793298       0.06302275
C        0.86525030      -0.62618772       0.54923767
O        0.02177024      -0.44048494       1.67369679
C       -0.58133550      -0.80762161       0.43446031
C       -1.47717797       0.30184262      -0.91565050
O       -2.02324043       1.29871922      -0.26115483
H        0.94548938       1.46121337       0.05902926
H        1.98295137       0.42134070      -0.94601937
H        2.45135529       0.79443523       0.71240847
H        1.45216084      -1.54182382       0.60344339
H       -1.03291614      -1.79636789       0.42587158
H       -2.12787064      -0.47794404      -1.34272832
H       -0.62415473       0.53254175      -1.57328824
H       -1.45142567       0.29240416       0.51767104
14
Frame=5 idx=002976 GeodesicLength=0.49396171034427677 rxn_smarts="[C:1]([C@@:2]1([H:10])[O:3][C@:4]1([C:5]([O:6][H:14])([H:12])[H:13])[H:11])([H:7])([H:8])[H:9]>>[C:1]([C@@:2]1([H:10])[O:3][C:4]1([H:11])[H:14])([H:7])([H:8])[H:9].[C:5](=[O:6])([H:12])[H:13]"
C        1.60969353       0.58434446       0.06340792
C        0.86685493      -0.62544790       0.54725828
O        0.03596919      -0.43597262       1.68063455
C       -0.58200218      -0.79597217       0.44702982
C       -1.48127991       0.29742890      -0.92690812
O       -2.05894159       1.27487798      -0.27124524
H        0.96400415       1.46355314       0.06699497
H        1.98673202       0.41890102      -0.94847891
H        2.46810387       0.77968910       0.70828421
H        1.44719041      -1.54594338       0.59223556
H       -1.03641973      -1.78378158       0.44465555
H       -2.10967794      -0.48917522      -1.37463023
H       -0.63058993       0.56341181      -1.57462367
H       -1.47963683       0.29408648       0.54538531
14
Frame=6 idx=002976 GeodesicLength=0.5926132254655402 rxn_smarts="[C:1]([C@@:2]1([H:10])[O:3][C@:4]1([C:5]([O:6][H:14])([H:12])[H:13])[H:11])([H:7])([H:8])[H:9]>>[C:1]([C@@:2]1([H:10])[O:3][C:4]1([H:11])[H:14])([H:7])([H:8])[H:9].[C:5](=[O:6])([H:12])[H:13]"
C        1.62042601       0.58040151       0.06345939
C        0.86810525      -0.62448158       0.54539514
O        0.05020027      -0.43088314       1.68766578
C       -0.58291803      -0.78339193       0.45999923
C       -1.48495523       0.29304959      -0.93875937
O       -2.09609072       1.24799531      -0.28114169
H        0.98341979       1.46587318       0.07493169
H        1.99010882       0.41594878      -0.95140937
H        2.48527145       0.76402793       0.70337708
H        1.44127366      -1.55003108       0.58117274
H       -1.04006539      -1.77026099       0.46363021
H       -2.08858690      -0.50060938      -1.40759825
H       -0.63782181       0.59647245      -1.57496577
H       -1.50836717       0.29588933       0.57424319
14
Frame=7 idx=002976 GeodesicLength=0.6912143895072032 rxn_smarts="[C:1]([C@@:2]1([H:10])[O:3][C@:4]1([C:5]([O:6][H:14])([H:12])[H:13])[H:11])([H:7])([H:8])[H:9]>>[C:1]([C@@:2]1([H:10])[O:3][C:4]1([H:11])[H:14])([H:7])([H:8])[H:9].[C:5](=[O:6])([H:12])[H:13]"
C        1.63129876       0.57606793       0.06313732
C        0.86895901      -0.62327146       0.54366644
O        0.06445749      -0.42517901       1.69480796
C       -0.58411779      -0.76978739       0.47341042
C       -1.48810643       0.28873162      -0.95127616
O       -2.13462587       1.21759690      -0.29089368
H        1.00378475       1.46816364       0.08285547
H        1.99293995       0.41247445      -0.95486712
H        2.50283517       0.74733790       0.69757836
H        1.43430534      -1.55408573       0.57026533
H       -1.04388987      -1.75571543       0.48281057
H       -2.06424138      -0.51216560      -1.44168559
H       -0.64600432       0.63190458      -1.57414683
H       -1.53759479       0.29792759       0.60433751
14
Frame=8 idx=002976 GeodesicLength=0.7897315146791921 rxn_smarts="[C:1]([C@@:2]1([H:10])[O:3][C@:4]1([C:5]([O:6][H:14])([H:12])[H:13])[H:11])([H:7])([H:8])[H:9]>>[C:1]([C@@:2]1([H:10])[O:3][C:4]1([H:11])[H:14])([H:7])([H:8])[H:9].[C:5](=[O:6])([H:12])[H:13]"
C        1.64223305       0.57130521       0.06238327
C        0.86935096      -0.62180227       0.54210460
O        0.07872531      -0.41882770       1.70208477
C       -0.58563827      -0.75506655       0.48730890
C       -1.49057284       0.28450866      -0.96454616
O       -2.17441656       1.18315885      -0.30060036
H        1.02515287       1.47039619       0.09078891
H        1.99500407       0.40847228      -0.95894029
H        2.52074093       0.72949263       0.69072261
H        1.42616530      -1.55809163       0.55954546
H       -1.04792960      -1.74005593       0.50219353
H       -2.03610959      -0.52365179      -1.47688657
H       -0.65537961       0.66985124      -1.57191933
H       -1.56732602       0.30031081       0.63576065
14
Frame=9 idx=002976 GeodesicLength=0.8881181526283267 rxn_smarts="[C:1]([C@@:2]1([H:10])[O:3][C@:4]1([C:5]([O:6][H:14])([H:12])[H:13])[H:11])([H:7])([H:8])[H:9]>>[C:1]([C@@:2]1([H:10])[O:3][C:4]1([H:11])[H:14])([H:7])([H:8])[H:9].[C:5](=[O:6])([H:12])[H:13]"
C        1.65317712       0.56609728       0.06118442
C        0.86928145      -0.62004482       0.54071097
O        0.09296212      -0.41177568       1.70949083
C       -0.58746861      -0.73918552       0.50168288
C       -1.49230260       0.28054208      -0.97863900
O       -2.21504141       1.14408186      -0.31045381
H        1.04752460       1.47252525       0.09869057
H        1.99621931       0.40398886      -0.96361787
H        2.53890616       0.71044033       0.68279564
H        1.41689114      -1.56199250       0.54905872
H       -1.05217118      -1.72334543       0.52177541
H       -2.00443048      -0.53469548      -1.51306928
H       -0.66594967       0.71025505      -1.56816075
H       -1.59759795       0.30310873       0.66855128
14
Frame=10 idx=002976 GeodesicLength=0.9862418943243447 rxn_smarts="[C:1]([C@@:2]1([H:10])[O:3][C@:4]1([C:5]([O:6][H:14])([H:12])[H:13])[H:11])([H:7])([H:8])[H:9]>>[C:1]([C@@:2]1([H:10])[O:3][C:4]1([H:11])[H:14])([H:7])([H:8])[H:9].[C:5](=[O:6])([H:12])[H:13]"
C        1.66399428       0.56038343       0.05942540
C        0.86862919      -0.61798835       0.53955903
O        0.10713417      -0.40397388       1.71707436
C       -0.58969644      -0.72203199       0.51662813
C       -1.49309985       0.27683178      -0.99361902
O       -2.25619904       1.09986256      -0.32036941
H        1.07095603       1.47454823       0.10661268
H        1.99621764       0.39897282      -0.96906325
H        2.55727354       0.69001238       0.67348219
H        1.40622869      -1.56580491       0.53885979
H       -1.05667392      -1.70540353       0.54156023
H       -1.96806019      -0.54520496      -1.55036099
H       -0.67824024       0.75334089      -1.56252045
H       -1.62846385       0.30645553       0.70273131
14
Frame=11 idx=002976 GeodesicLength=1.084030696692591 rxn_smarts="[C:1]([C@@:2]1([H:10])[O:3][C@:4]1([C:5]([O:6][H:14])([H:12])[H:13])[H:11])([H:7])([H:8])[H:9]>>[C:1]([C@@:2]1([H:10])[O:3][C:4]1([H:11])[H:14])([H:7])([H:8])[H:9].[C:5](=[O:6])([H:12])[H:13]"
C        1.67457289       0.55416193       0.05706510
C        0.86734524      -0.61560856       0.53870518
O        0.12116714      -0.39539290       1.72484510
C       -0.59233209      -0.70357393       0.53215078
C       -1.49283216       0.27346618      -1.00955939
O       -2.29717884       1.05020550      -0.33039682
H        1.09543405       1.47643076       0.11455552
H        1.99476361       0.39347649      -0.97532420
H        2.57572032       0.66814567       0.66262849
H        1.39413095      -1.56948229       0.52904022
H       -1.06140567      -1.68622825       0.56149122
H       -1.92679972      -0.55484071      -1.58860522
H       -0.69252821       0.79893242      -1.55483555
H       -1.66005751       0.31030769       0.73823958
14
Frame=12 idx=002976 GeodesicLength=1.1814302663155238 rxn_smarts="[C:1]([C@@:2]1([H:10])[O:3][C@:4]1([C:5]([O:6][H:14])([H:12])[H:13])[H:11])([H:7])([H:8])[H:9]>>[C:1]([C@@:2]1([H:10])[O:3][C:4]1([H:11])[H:14])([H:7])([H:8])[H:9].[C:5](=[O:6])([H:12])[H:13]"
C        1.68478801       0.54745833       0.05407809
C        0.86541308      -0.61287939       0.53820989
O        0.13496676      -0.38599818       1.73279190
C       -0.59537566      -0.68383454       0.54821495
C       -1.49139669       0.27055436      -1.02651121
O       -2.33692717       0.99503085      -0.34055812
H        1.12091659       1.47817394       0.12251393
H        1.99167498       0.38756566      -0.98240652
H        2.59410256       0.64486233       0.65014007
H        1.38061019      -1.57296257       0.51972986
H       -1.06629717      -1.66590276       0.58146186
H       -1.88076710      -0.56313380      -1.62749957
H       -0.70908302       0.84660212      -1.54510447
H       -1.69262534       0.31446364       0.77493935
14
Frame=13 idx=002976 GeodesicLength=1.2783666086510934 rxn_smarts="[C:1]([C@@:2]1([H:10])[O:3][C@:4]1([C:5]([O:6][H:14])([H:12])[H:13])[H:11])([H:7])([H:8])[H:9]>>[C:1]([C@@:2]1([H:10])[O:3][C:4]1([H:11])[H:14])([H:7])([H:8])[H:9].[C:5](=[O:6])([H:12])[H:13]"
C        1.69457609       0.54037923       0.05054655
C        0.86289954      -0.60975625       0.53809447
O        0.14844294      -0.37582415       1.74087140
C       -0.59872091      -0.66294983       0.56468949
C       -1.48889129       0.26822584      -1.04447523
O       -2.37405934       0.93505362      -0.35084186
H        1.14728063       1.47975154       0.13043825
H        1.98705379       0.38141689      -0.99016245
H        2.61221742       0.62038326       0.63621719
H        1.36586666      -1.57610558       0.51104089
H       -1.07113502      -1.64466898       0.60127810
H       -1.83125109      -0.56964933      -1.66652179
H       -0.72777078       0.89539121      -1.53376643
H       -1.72650863       0.31835251       0.81259142
14
Frame=14 idx=002976 GeodesicLength=1.3749312902643802 rxn_smarts="[C:1]([C@@:2]1([H:10])[O:3][C@:4]1([C:5]([O:6][H:14])([H:12])[H:13])[H:11])([H:7])([H:8])[H:9]>>[C:1]([C@@:2]1([H:10])[O:3][C:4]1([H:11])[H:14])([H:7])([H:8])[H:9].[C:5](=[O:6])([H:12])[H:13]"
C        1.70383634       0.53301997       0.04646776
C        0.85980552      -0.60622417       0.53843627
O        0.16144716      -0.36485668       1.74908862
C       -0.60240252      -0.64101355       0.58152582
C       -1.48520178       0.26654471      -1.06346703
O       -2.40717460       0.87098793      -0.36114058
H        1.17443568       1.48124501       0.13837479
H        1.98077022       0.37513580      -0.99858070
H        2.62997222       0.59484581       0.62075704
H        1.34997253      -1.57888748       0.50309192
H       -1.07586138      -1.62266730       0.62078912
H       -1.77855207      -0.57396974      -1.70522422
H       -0.74891129       0.94446175      -1.52108807
H       -1.76213604       0.32137794       0.85096926
14
Frame=15 idx=002976 GeodesicLength=1.4712216129286422 rxn_smarts="[C:1]([C@@:2]1([H:10])[O:3][C@:4]1([C:5]([O:6][H:14])([H:12])[H:13])[H:11])([H:7])([H:8])[H:9]>>[C:1]([C@@:2]1([H:10])[O:3][C:4]1([H:11])[H:14])([H:7])([H:8])[H:9].[C:5](=[O:6])([H:12])[H:13]"
C        1.71255677       0.52555433       0.04199797
C        0.85623676      -0.60223758       0.53923205
O        0.17391057      -0.35320001       1.75737780
C       -0.60629981      -0.61819053       0.59854290
C       -1.48045766       0.26554869      -1.08344947
O       -2.43487302       0.80450384      -0.37125088
H        1.20221952       1.48268830       0.14632306
H        1.97308262       0.36895802      -1.00741698
H        2.64719236       0.56858037       0.60410013
H        1.33318106      -1.58118091       0.49591444
H       -1.08024512      -1.60013170       0.63972511
H       -1.72442110      -0.57597233      -1.74300021
H       -0.77217913       0.99249205      -1.50794654
H       -1.79990382       0.32258746       0.88985061
14
Frame=16 idx=002976 GeodesicLength=1.5673369742798537 rxn_smarts="[C:1]([C@@:2]1([H:10])[O:3][C@:4]1([C:5]([O:6][H:14])([H:12])[H:13])[H:11])([H:7])([H:8])[H:9]>>[C:1]([C@@:2]1([H:10])[O:3][C:4]1([H:11])[H:14])([H:7])([H:8])[H:9].[C:5](=[O:6])([H:12])[H:13]"
C        1.72077548       0.51815702       0.03732725
C        0.85231628      -0.59775007       0.54046064
O        0.18581723      -0.34095873       1.76567370
C       -0.61027565      -0.59463528       0.61557666
C       -1.47486911       0.26523426      -1.10434753
O       -2.45612985       0.73748980      -0.38094071
H        1.23050931       1.48411113       0.15430258
H        1.96431621       0.36312117      -1.01639205
H        2.66373599       0.54188206       0.58662837
H        1.31575664      -1.58286139       0.48951006
H       -1.08405249      -1.57727046       0.65786424
H       -1.67069645      -0.57573490      -1.77935887
H       -0.79708660       1.03827206      -1.49534067
H       -1.84011699       0.32094332       0.92903633
