16
Frame=0 idx=007640 GeodesicLength=0.0 rxn_smarts="[C:1]([C@:2]12[C:3]([H:11])([H:12])[C@@:4]1([H:13])[C@@:5]1([H:14])[N:6]([H:15])[C@@:7]21[H:16])([H:8])([H:9])[H:10]>>[C:1]([C:2]1=[C:7]([H:16])[N:6]([H:15])[C:5]([H:14])=[C:4]([H:13])[C:3]1([H:11])[H:12])([H:8])([H:9])[H:10]"
C        1.65360135      -0.77300853       0.83617287
C        0.54823997      -0.46944664      -0.12386020
C        0.56325979       0.74325890      -1.02520058
C       -0.45587428       1.07811330      -0.01144144
C       -1.89057876       0.80611026      -0.23779043
N       -1.87576106      -0.61319467      -0.72665552
C       -0.80330145      -0.80032439       0.14224421
H        1.29635910      -1.39507703       1.65976677
H        2.09830086       0.13118251       1.26639863
H        2.46170287      -1.32135981       0.34395157
H        1.48613478       1.30951456      -0.96725406
H        0.21870057       0.63913439      -2.05390681
H       -0.13932062       1.68002658       0.83580042
H       -2.50517727       0.88594356       0.65599372
H       -1.60011660      -0.65910401      -1.70118534
H       -1.05616930      -1.24176894       1.10696616
16
Frame=1 idx=007640 GeodesicLength=0.07286177891304606 rxn_smarts="[C:1]([C@:2]12[C:3]([H:11])([H:12])[C@@:4]1([H:13])[C@@:5]1([H:14])[N:6]([H:15])[C@@:7]21[H:16])([H:8])([H:9])[H:10]>>[C:1]([C:2]1=[C:7]([H:16])[N:6]([H:15])[C:5]([H:14])=[C:4]([H:13])[C:3]1([H:11])[H:12])([H:8])([H:9])[H:10]"
C        1.65630185      -0.77893064       0.83281792
C        0.54304076      -0.45799072      -0.11155856
C        0.56764834       0.74881653      -1.01744137
C       -0.45914287       1.09611658      -0.01464194
C       -1.88521943       0.79551683      -0.23378897
N       -1.87610589      -0.61673578      -0.72029733
C       -0.80567612      -0.80500140       0.15177581
H        1.30522078      -1.40569016       1.65544904
H        2.11156666       0.11874314       1.26528888
H        2.45462815      -1.32803232       0.32556487
H        1.48998052       1.31619750      -0.95244406
H        0.23809427       0.63581594      -2.04997576
H       -0.15533611       1.72579154       0.81661786
H       -2.51914915       0.89856501       0.64307231
H       -1.61023864      -0.67367804      -1.69617753
H       -1.05561312      -1.26950402       1.10573883
16
Frame=2 idx=007640 GeodesicLength=0.14569445301745532 rxn_smarts="[C:1]([C@:2]12[C:3]([H:11])([H:12])[C@@:4]1([H:13])[C@@:5]1([H:14])[N:6]([H:15])[C@@:7]21[H:16])([H:8])([H:9])[H:10]>>[C:1]([C:2]1=[C:7]([H:16])[N:6]([H:15])[C:5]([H:14])=[C:4]([H:13])[C:3]1([H:11])[H:12])([H:8])([H:9])[H:10]"
C        1.65901625      -0.78499212       0.82939033
C        0.53774852      -0.44612168      -0.09839746
C        0.57212418       0.75444114      -1.00918535
C       -0.46261182       1.11442291      -0.01806123
C       -1.87958198       0.78495436      -0.22892817
N       -1.87639440      -0.62018232      -0.71349696
C       -0.80792987      -0.80988160       0.16164662
H        1.31429452      -1.41653855       1.65099914
H        2.12536368       0.10581435       1.26392219
H        2.44696393      -1.33483458       0.30674982
H        1.49376886       1.32308859      -0.93700343
H        0.25804960       0.63230110      -2.04537157
H       -0.17227634       1.77265180       0.79539120
H       -2.53330222       0.91148228       0.62924926
H       -1.62070656      -0.68809165      -1.69062349
H       -1.05452636      -1.29851403       1.10371909
16
Frame=3 idx=007640 GeodesicLength=0.21849058131528387 rxn_smarts="[C:1]([C@:2]12[C:3]([H:11])([H:12])[C@@:4]1([H:13])[C@@:5]1([H:14])[N:6]([H:15])[C@@:7]21[H:16])([H:8])([H:9])[H:10]>>[C:1]([C:2]1=[C:7]([H:16])[N:6]([H:15])[C:5]([H:14])=[C:4]([H:13])[C:3]1([H:11])[H:12])([H:8])([H:9])[H:10]"
C        1.66174498      -0.79120012       0.82588295
C        0.53235856      -0.43380757      -0.08428631
C        0.57668799       0.76012781      -1.00038319
C       -0.46629443       1.13303987      -0.02171026
C       -1.87365314       0.77443682      -0.22311364
N       -1.87661857      -0.62350756      -0.70620345
C       -0.81004436      -0.81497276       0.17188425
H        1.32360768      -1.42765287       1.64639488
H        2.13971293       0.09235396       1.26227608
H        2.43864819      -1.34175049       0.28748516
H        1.49748252       1.33020337      -0.92088086
H        0.27859731       0.62856619      -2.04001378
H       -0.19021896       1.82059008       0.77191193
H       -2.54763558       0.92472414       0.61443215
H       -1.63154623      -0.70229656      -1.68447250
H       -1.05282889      -1.32885431       1.10079659
16
Frame=4 idx=007640 GeodesicLength=0.29124219441419497 rxn_smarts="[C:1]([C@:2]12[C:3]([H:11])([H:12])[C@@:4]1([H:13])[C@@:5]1([H:14])[N:6]([H:15])[C@@:7]21[H:16])([H:8])([H:9])[H:10]>>[C:1]([C:2]1=[C:7]([H:16])[N:6]([H:15])[C:5]([H:14])=[C:4]([H:13])[C:3]1([H:11])[H:12])([H:8])([H:9])[H:10]"
C        1.66448897      -0.79756265       0.82228891
C        0.52686615      -0.42101482      -0.06911957
C        0.58133865       0.76587049      -0.99097326
C       -0.47020479       1.15197191      -0.02559483
C       -1.86741964       0.76398234      -0.21623803
N       -1.87677356      -0.62667666      -0.69836081
C       -0.81199672      -0.82028364       0.18252628
H        1.33319525      -1.43907110       1.64161083
H        2.15464345       0.07831671       1.26032070
H        2.42961523      -1.34876100       0.26773175
H        1.50110062       1.33756047      -0.90401248
H        0.29977249       0.62458391      -2.03380149
H       -0.20925974       1.86956937       0.74594242
H       -2.56214863       0.93833161       0.59849918
H       -1.64278704      -0.71624253      -1.67766984
H       -1.05043069      -1.36057442       1.09685024
16
Frame=5 idx=007640 GeodesicLength=0.363934272021358 rxn_smarts="[C:1]([C@:2]12[C:3]([H:11])([H:12])[C@@:4]1([H:13])[C@@:5]1([H:14])[N:6]([H:15])[C@@:7]21[H:16])([H:8])([H:9])[H:10]>>[C:1]([C:2]1=[C:7]([H:16])[N:6]([H:15])[C:5]([H:14])=[C:4]([H:13])[C:3]1([H:11])[H:12])([H:8])([H:9])[H:10]"
C        1.66723927      -0.80409207       0.81860018
C        0.52127329      -0.40770871      -0.05280602
C        0.58607562       0.77167385      -0.98088632
C       -0.47435663       1.17121762      -0.02970410
C       -1.86086984       0.75360305      -0.20817787
N       -1.87684332      -0.62965813      -0.68990134
C       -0.81377062      -0.82582884       0.19360249
H        1.34306363      -1.45082253       1.63662000
H        2.17017811       0.06364783       1.25802938
H        2.41982694      -1.35586207       0.24747619
H        1.50459568       1.34519189      -0.88632783
H        0.32158791       0.62034371      -2.02665460
H       -0.22946576       1.91955216       0.71719292
H       -2.57683809       0.95232552       0.58134068
H       -1.65445023      -0.72986692      -1.67014015
H       -1.04724595      -1.39371637       1.09173639
16
Frame=6 idx=007640 GeodesicLength=0.4365452930183487 rxn_smarts="[C:1]([C@:2]12[C:3]([H:11])([H:12])[C@@:4]1([H:13])[C@@:5]1([H:14])[N:6]([H:15])[C@@:7]21[H:16])([H:8])([H:9])[H:10]>>[C:1]([C:2]1=[C:7]([H:16])[N:6]([H:15])[C:5]([H:14])=[C:4]([H:13])[C:3]1([H:11])[H:12])([H:8])([H:9])[H:10]"
C        1.66999573      -0.81079211       0.81480301
C        0.51557429      -0.39385890      -0.03521670
C        0.59089518       0.77752463      -0.97004692
C       -0.47875951       1.19077476      -0.03404244
C       -1.85398311       0.74332606      -0.19877947
N       -1.87682326      -0.63240738      -0.68074839
C       -0.81532881      -0.83162047       0.20515400
H        1.35326093      -1.46294158       1.63139252
H        2.18633922       0.04830236       1.25535404
H        2.40918022      -1.36301555       0.22668203
H        1.50794292       1.35311390      -0.86775348
H        0.34408016       0.61582189      -2.01843836
H       -0.25095280       1.97042278       0.68539158
H       -2.59168820       0.96676677       0.56276744
H       -1.66658870      -0.74309464      -1.66181622
H       -1.04314424      -1.42832253       1.08529736
16
Frame=7 idx=007640 GeodesicLength=0.5090339850513426 rxn_smarts="[C:1]([C@:2]12[C:3]([H:11])([H:12])[C@@:4]1([H:13])[C@@:5]1([H:14])[N:6]([H:15])[C@@:7]21[H:16])([H:8])([H:9])[H:10]>>[C:1]([C:2]1=[C:7]([H:16])[N:6]([H:15])[C:5]([H:14])=[C:4]([H:13])[C:3]1([H:11])[H:12])([H:8])([H:9])[H:10]"
C        1.67274520      -0.81766433       0.81088689
C        0.50977186      -0.37944587      -0.01623715
C        0.59579589       0.78341357      -0.95836743
C       -0.48341685       1.21062768      -0.03858694
C       -1.84674061       0.73318097      -0.18786168
N       -1.87670814      -0.63487164      -0.67081491
C       -0.81663784      -0.83767865       0.21721430
H        1.36381475      -1.47545813       1.62589739
H        2.20313425       0.03224021       1.25224908
H        2.39760671      -1.37017662       0.20532950
H        1.51111390       1.36135042      -0.84820761
H        0.36725615       0.61099954      -2.00903915
H       -0.27381858       2.02202371       0.65022359
H       -2.60665988       0.98170564       0.54257762
H       -1.67925704      -0.75583095      -1.65260917
H       -1.03799977      -1.46441555       1.07734567
16
Frame=8 idx=007640 GeodesicLength=0.5813591544338647 rxn_smarts="[C:1]([C@:2]12[C:3]([H:11])([H:12])[C@@:4]1([H:13])[C@@:5]1([H:14])[N:6]([H:15])[C@@:7]21[H:16])([H:8])([H:9])[H:10]>>[C:1]([C:2]1=[C:7]([H:16])[N:6]([H:15])[C:5]([H:14])=[C:4]([H:13])[C:3]1([H:11])[H:12])([H:8])([H:9])[H:10]"
C        1.67546769      -0.82470193       0.80684369
C        0.50387239      -0.36446723       0.00424531
C        0.60077094       0.78932457      -0.94575206
C       -0.48832184       1.23074833      -0.04329921
C       -1.83912458       0.72319377      -0.17520595
N       -1.87649042      -0.63699299      -0.65999613
C       -0.81765957      -0.84404092       0.22980340
H        1.37474962      -1.48839436       1.62010570
H        2.22054863       0.01543055       1.24866188
H        2.38503023      -1.37728046       0.18341468
H        1.51407821       1.36991774      -0.82760437
H        0.39111410       0.60587495      -1.99832311
H       -0.29813997       2.07416950       0.61132479
H       -2.62168658       0.99718312       0.52054103
H       -1.69253421      -0.76794636      -1.64241397
H       -1.03167465      -1.50201827       1.06765432
16
Frame=9 idx=007640 GeodesicLength=0.6535930024289079 rxn_smarts="[C:1]([C@:2]12[C:3]([H:11])([H:12])[C@@:4]1([H:13])[C@@:5]1([H:14])[N:6]([H:15])[C@@:7]21[H:16])([H:8])([H:9])[H:10]>>[C:1]([C:2]1=[C:7]([H:16])[N:6]([H:15])[C:5]([H:14])=[C:4]([H:13])[C:3]1([H:11])[H:12])([H:8])([H:9])[H:10]"
C        1.67813926      -0.83190380       0.80269788
C        0.49787383      -0.34889645       0.02640462
C        0.60579091       0.79526191      -0.93206684
C       -0.49353339       1.25106085      -0.04816207
C       -1.83108102       0.71330143      -0.16048323
N       -1.87621001      -0.63873342      -0.64814957
C       -0.81828933      -0.85078109       0.24290990
H        1.38607312      -1.50174840       1.61402600
H        2.23861371      -0.00216428       1.24452690
H        2.37139742      -1.38432625       0.16095340
H        1.51676198       1.37886299      -0.80580830
H        0.41566201       0.60042958      -1.98611961
H       -0.32382805       2.12688939       0.56819869
H       -2.63678108       1.01323228       0.49638142
H       -1.70660426      -0.77924790      -1.63111678
H       -1.02398509      -1.54123683       1.05580759
16
Frame=10 idx=007640 GeodesicLength=0.7255729188190022 rxn_smarts="[C:1]([C@:2]12[C:3]([H:11])([H:12])[C@@:4]1([H:13])[C@@:5]1([H:14])[N:6]([H:15])[C@@:7]21[H:16])([H:8])([H:9])[H:10]>>[C:1]([C:2]1=[C:7]([H:16])[N:6]([H:15])[C:5]([H:14])=[C:4]([H:13])[C:3]1([H:11])[H:12])([H:8])([H:9])[H:10]"
C        1.68072793      -0.83920192       0.79844195
C        0.49181759      -0.33285412       0.05021861
C        0.61084399       0.80115341      -0.91726868
C       -0.49896445       1.27149175      -0.05305519
C       -1.82256233       0.70360241      -0.14333151
N       -1.87587752      -0.63995375      -0.63513095
C       -0.81849949      -0.85796769       0.25652072
H        1.39781026      -1.51549945       1.60761654
H        2.25715916      -0.02044692       1.23984324
H        2.35668785      -1.39111520       0.13803366
H        1.51914115       1.38814380      -0.78282109
H        0.44080933       0.59468053      -1.97235753
H       -0.35104326       2.17948736       0.52065124
H       -2.65166954       1.02998223       0.46964460
H       -1.72163667      -0.78951159      -1.61856066
H       -1.01474398      -1.58199085       1.04155505
16
Frame=11 idx=007640 GeodesicLength=0.7971913333912695 rxn_smarts="[C:1]([C@:2]12[C:3]([H:11])([H:12])[C@@:4]1([H:13])[C@@:5]1([H:14])[N:6]([H:15])[C@@:7]21[H:16])([H:8])([H:9])[H:10]>>[C:1]([C:2]1=[C:7]([H:16])[N:6]([H:15])[C:5]([H:14])=[C:4]([H:13])[C:3]1([H:11])[H:12])([H:8])([H:9])[H:10]"
C        1.68318644      -0.84650898       0.79411026
C        0.48573612      -0.31646936       0.07562693
C        0.61589205       0.80694428      -0.90132449
C       -0.50456814       1.29192124      -0.05788436
C       -1.81349552       0.69410410      -0.12331122
N       -1.87554243      -0.64053676      -0.62074742
C       -0.81822081      -0.86570351       0.27052809
H        1.40992283      -1.52956677       1.60088466
H        2.27599288      -0.03927034       1.23463817
H        2.34096348      -1.39747322       0.11482029
H        1.52115641       1.39773155      -0.75865231
H        0.46643173       0.58867510      -1.95698560
H       -0.37971555       2.23126924       0.46848740
H       -2.66603896       1.04749432       0.43985482
H       -1.73792886      -0.79842161      -1.60455319
H       -1.00377166      -1.62418928       1.02450798
16
Frame=12 idx=007640 GeodesicLength=0.8683462001956328 rxn_smarts="[C:1]([C@:2]12[C:3]([H:11])([H:12])[C@@:4]1([H:13])[C@@:5]1([H:14])[N:6]([H:15])[C@@:7]21[H:16])([H:8])([H:9])[H:10]>>[C:1]([C:2]1=[C:7]([H:16])[N:6]([H:15])[C:5]([H:14])=[C:4]([H:13])[C:3]1([H:11])[H:12])([H:8])([H:9])[H:10]"
C        1.68545098      -0.85370038       0.78977636
C        0.47966866      -0.29995606       0.10245352
C        0.62088522       0.81256381      -0.88425123
C       -0.51027354       1.31217686      -0.06252801
C       -1.80380556       0.68483637      -0.09993050
N       -1.87529091      -0.64031190      -0.60482740
C       -0.81740000      -0.87413914       0.28477853
H        1.42234092      -1.54382853       1.59386859
H        2.29481455      -0.05839459       1.22900391
H        2.32437182      -1.40317113       0.09158396
H        1.52275034       1.40755951      -0.73337127
H        0.49234306       0.58249230      -1.94001120
H       -0.40971661       2.28146109       0.41152636
H       -2.67934743       1.06571908       0.40663137
H       -1.75585432      -0.80558171      -1.58891814
H       -0.99093717      -1.66772558       1.00421515
16
Frame=13 idx=007640 GeodesicLength=0.9391214806674134 rxn_smarts="[C:1]([C@:2]12[C:3]([H:11])([H:12])[C@@:4]1([H:13])[C@@:5]1([H:14])[N:6]([H:15])[C@@:7]21[H:16])([H:8])([H:9])[H:10]>>[C:1]([C:2]1=[C:7]([H:16])[N:6]([H:15])[C:5]([H:14])=[C:4]([H:13])[C:3]1([H:11])[H:12])([H:8])([H:9])[H:10]"
C        1.68744668      -0.86068027       0.78560698
C        0.47365685      -0.28358224       0.13044867
C        0.62577902       0.81793418      -0.86608973
C       -0.51602530       1.33203985      -0.06686793
C       -1.79336090       0.67582450      -0.07264932
N       -1.87526200      -0.63907721      -0.58719434
C       -0.81596676      -0.88344582       0.29901555
H        1.43490067      -1.55818397       1.58666731
H        2.31324317      -0.07754966       1.22321460
H        2.30720918      -1.40802164       0.06873654
H        1.52388001       1.41753513      -0.70701869
H        0.51836926       0.57623091      -1.92148320
H       -0.44092524       2.32985060       0.34907863
H       -2.69087378       1.08437476       0.37019403
H       -1.77593758      -0.81056158      -1.57147966
H       -0.97613327      -1.71268755       0.97982055
16
Frame=14 idx=007640 GeodesicLength=1.009308582381914 rxn_smarts="[C:1]([C@:2]12[C:3]([H:11])([H:12])[C@@:4]1([H:13])[C@@:5]1([H:14])[N:6]([H:15])[C@@:7]21[H:16])([H:8])([H:9])[H:10]>>[C:1]([C:2]1=[C:7]([H:16])[N:6]([H:15])[C:5]([H:14])=[C:4]([H:13])[C:3]1([H:11])[H:12])([H:8])([H:9])[H:10]"
C        1.68907764      -0.86724055       0.78173582
C        0.46769987      -0.26766022       0.15915567
C        0.63050825       0.82298565      -0.84705176
C       -0.52175169       1.35135544      -0.07090646
C       -1.78218414       0.66724680      -0.04128866
N       -1.87561147      -0.63655857      -0.56779284
C       -0.81397021      -0.89368371       0.31301581
H        1.44741456      -1.57239119       1.57941538
H        2.33080965      -0.09630752       1.21753525
H        2.28976606      -1.41172999       0.04669523
H        1.52449920       1.42756193      -0.67984245
H        0.54427828       0.57000930      -1.90162861
H       -0.47329096       2.37480313       0.28147702
H       -2.69924356       1.10304918       0.33063231
H       -1.79863750      -0.81290228      -1.55217365
H       -0.95936399      -1.75853739       0.95102193
16
Frame=15 idx=007640 GeodesicLength=1.07891595106158 rxn_smarts="[C:1]([C@:2]12[C:3]([H:11])([H:12])[C@@:4]1([H:13])[C@@:5]1([H:14])[N:6]([H:15])[C@@:7]21[H:16])([H:8])([H:9])[H:10]>>[C:1]([C:2]1=[C:7]([H:16])[N:6]([H:15])[C:5]([H:14])=[C:4]([H:13])[C:3]1([H:11])[H:12])([H:8])([H:9])[H:10]"
C        1.69016368      -0.87319431       0.77838660
C        0.46175438      -0.25238985       0.18807800
C        0.63511083       0.82767659      -0.82745179
C       -0.52744149       1.37002930      -0.07498132
C       -1.77031955       0.65937319      -0.00638958
N       -1.87647081      -0.63253273      -0.54688219
C       -0.81151640      -0.90473675       0.32646313
H        1.45946931      -1.58614816       1.57235032
H        2.34702514      -0.11426910       1.21233827
H        2.27228687      -1.41416926       0.02598949
H        1.52463973       1.43756360      -0.65205370
H        0.57013091       0.56385789      -1.88078478
H       -0.50674087       2.41529477       0.20880336
H       -2.70297427       1.12072593       0.29002328
H       -1.82425343      -0.81246111      -1.53121365
H       -0.94086402      -1.80462000       0.91732453
16
Frame=16 idx=007640 GeodesicLength=1.148089440687545 rxn_smarts="[C:1]([C@:2]12[C:3]([H:11])([H:12])[C@@:4]1([H:13])[C@@:5]1([H:14])[N:6]([H:15])[C@@:7]21[H:16])([H:8])([H:9])[H:10]>>[C:1]([C:2]1=[C:7]([H:16])[N:6]([H:15])[C:5]([H:14])=[C:4]([H:13])[C:3]1([H:11])[H:12])([H:8])([H:9])[H:10]"
C        1.69044289      -0.87837284       0.77581529
C        0.45573680      -0.23786967       0.21664653
C        0.63977660       0.83200956      -0.80769266
C       -0.53302571       1.38805979      -0.07971805
C       -1.75775287       0.65256310       0.03057242
N       -1.87788675      -0.62690609      -0.52513592
C       -0.80881767      -0.91634266       0.33890900
H        1.47048198      -1.59916981       1.56571479
H        2.36134457      -0.13108881       1.20810249
H        2.25496818      -1.41527592       0.00720570
H        1.52445657       1.44750219      -0.62382309
H        0.59634170       0.55776488      -1.85936750
H       -0.54116921       2.45052709       0.13090031
H       -2.70099210       1.13606678       0.25262333
H       -1.85277263      -0.80952386      -1.50913013
H       -0.92113235      -1.84994373       0.87837748
