10
Frame=0 idx=000834 GeodesicLength=0.0 rxn_smarts="[O:1]=[C:2]1[C:3]([H:7])([H:8])[N:4]=[C:5]([H:9])[N:6]1[H:10]>>[H:8][H:9].[O-:1][C:2]1=[C:3]([H:7])[N:4]=[C:5]=[N+:6]1[H:10]"
O       -1.26048453       1.75337944       0.21726738
C       -0.56179542       0.80822325       0.29222621
C       -0.79885944      -0.70524800       0.30841011
N        0.32342519      -1.19483883       0.85641448
C        1.15229361      -0.47663978       0.08519735
N        0.93152756       0.83117876       0.33499847
H       -1.78052076      -1.13213576       0.49227540
H       -0.20946124      -0.70204610      -1.17583947
H        0.84185361      -0.72699918      -1.17224800
H        1.36202142       1.54512620      -0.23870194
10
Frame=1 idx=000834 GeodesicLength=0.08241982233945347 rxn_smarts="[O:1]=[C:2]1[C:3]([H:7])([H:8])[N:4]=[C:5]([H:9])[N:6]1[H:10]>>[H:8][H:9].[O-:1][C:2]1=[C:3]([H:7])[N:4]=[C:5]=[N+:6]1[H:10]"
O       -1.26264644       1.75295154       0.20787306
C       -0.56141024       0.80953608       0.29617706
C       -0.79992710      -0.70385267       0.30569428
N        0.32370305      -1.19693397       0.85305224
C        1.16114237      -0.47475462       0.08878710
N        0.92639028       0.83217529       0.33795248
H       -1.78047909      -1.12442415       0.50893512
H       -0.22051640      -0.71349708      -1.19000399
H        0.84939112      -0.73391226      -1.18750143
H        1.36435243       1.55271184      -0.22096591
10
Frame=2 idx=000834 GeodesicLength=0.16480419708961275 rxn_smarts="[O:1]=[C:2]1[C:3]([H:7])([H:8])[N:4]=[C:5]([H:9])[N:6]1[H:10]>>[H:8][H:9].[O-:1][C:2]1=[C:3]([H:7])[N:4]=[C:5]=[N+:6]1[H:10]"
O       -1.26467491       1.75251962       0.19843062
C       -0.56104192       0.81093030       0.30019871
C       -0.80099607      -0.70236731       0.30300621
N        0.32400698      -1.19894276       0.84965700
C        1.17012022      -0.47272036       0.09267115
N        0.92128334       0.83323031       0.34078473
H       -1.78007216      -1.11666997       0.52534393
H       -0.23222637      -0.72531263      -1.20423485
H        0.85699211      -0.74100180      -1.20298900
H        1.36660878       1.56033459      -0.20286851
10
Frame=3 idx=000834 GeodesicLength=0.2471662252978269 rxn_smarts="[O:1]=[C:2]1[C:3]([H:7])([H:8])[N:4]=[C:5]([H:9])[N:6]1[H:10]>>[H:8][H:9].[O-:1][C:2]1=[C:3]([H:7])[N:4]=[C:5]=[N+:6]1[H:10]"
O       -1.26656664       1.75208667       0.18895741
C       -0.56068595       0.81241109       0.30428163
C       -0.80205775      -0.70078628       0.30034261
N        0.32434388      -1.20085824       0.84622653
C        1.17923897      -0.47052668       0.09687086
N        0.91621108       0.83435276       0.34348736
H       -1.77930616      -1.10888187       0.54147542
H       -0.24463839      -0.73751675      -1.21852622
H        0.86467037      -0.74828285      -1.21871801
H        1.36879060       1.56800213      -0.18439759
10
Frame=4 idx=000834 GeodesicLength=0.32952208636332453 rxn_smarts="[O:1]=[C:2]1[C:3]([H:7])([H:8])[N:4]=[C:5]([H:9])[N:6]1[H:10]>>[H:8][H:9].[O-:1][C:2]1=[C:3]([H:7])[N:4]=[C:5]=[N+:6]1[H:10]"
O       -1.26831825       1.75165339       0.17946256
C       -0.56033804       0.81398300       0.30841289
C       -0.80310303      -0.69910475       0.29769834
N        0.32472176      -1.20267385       0.84275502
C        1.18851102      -0.46816265       0.10140658
N        0.91117707       0.83555204       0.34604647
H       -1.77818508      -1.10106480       0.55731449
H       -0.25780626      -0.75013519      -1.23287407
H        0.87244178      -0.75577047      -1.23469963
H        1.37089903       1.57572328      -0.16552265
10
Frame=5 idx=000834 GeodesicLength=0.4118715193161281 rxn_smarts="[O:1]=[C:2]1[C:3]([H:7])([H:8])[N:4]=[C:5]([H:9])[N:6]1[H:10]>>[H:8][H:9].[O-:1][C:2]1=[C:3]([H:7])[N:4]=[C:5]=[N+:6]1[H:10]"
O       -1.26993007       1.75122502       0.16995928
C       -0.55999233       0.81564995       0.31258530
C       -0.80412274      -0.69731801       0.29506727
N        0.32514830      -1.20438571       0.83923665
C        1.19794897      -0.46561809       0.10630310
N        0.90618713       0.83683574       0.34845580
H       -1.77671815      -1.09322824       0.57283991
H       -0.27178011      -0.76318745      -1.24727233
H        0.88032524      -0.76347709      -1.25094079
H        1.37293377       1.58350386      -0.14623418
10
Frame=6 idx=000834 GeodesicLength=0.49423666546609707 rxn_smarts="[O:1]=[C:2]1[C:3]([H:7])([H:8])[N:4]=[C:5]([H:9])[N:6]1[H:10]>>[H:8][H:9].[O-:1][C:2]1=[C:3]([H:7])[N:4]=[C:5]=[N+:6]1[H:10]"
O       -1.27139680       1.75080215       0.16045237
C       -0.55964432       0.81741651       0.31678418
C       -0.80510664      -0.69542187       0.29243924
N        0.32563286      -1.20598832       0.83565991
C        1.20756682      -0.46287944       0.11158389
N        0.90124479       0.83821379       0.35070033
H       -1.77490616      -1.08537391       0.58804095
H       -0.28662916      -0.77670574      -1.26171471
H        0.88834342      -0.77141936      -1.26745591
H        1.37489519       1.59135620      -0.12649025
10
Frame=7 idx=000834 GeodesicLength=0.5766203688814315 rxn_smarts="[O:1]=[C:2]1[C:3]([H:7])([H:8])[N:4]=[C:5]([H:9])[N:6]1[H:10]>>[H:8][H:9].[O-:1][C:2]1=[C:3]([H:7])[N:4]=[C:5]=[N+:6]1[H:10]"
O       -1.27271917       1.75038895       0.15094118
C       -0.55928608       0.81928594       0.32099372
C       -0.80604235      -0.69341239       0.28980384
N        0.32618738      -1.20747654       0.83201428
C        1.21737969      -0.45993503       0.11727426
N        0.89635688       0.83969582       0.35276098
H       -1.77275231      -1.07750619       0.60290852
H       -0.30241891      -0.79071847      -1.27619129
H        0.89651175      -0.77961132      -1.28426262
H        1.37678311       1.59928922      -0.10624287
10
Frame=8 idx=000834 GeodesicLength=0.6590370178943908 rxn_smarts="[O:1]=[C:2]1[C:3]([H:7])([H:8])[N:4]=[C:5]([H:9])[N:6]1[H:10]>>[H:8][H:9].[O-:1][C:2]1=[C:3]([H:7])[N:4]=[C:5]=[N+:6]1[H:10]"
O       -1.27389219       1.74998648       0.14142314
C       -0.55891174       0.82126267       0.32520052
C       -0.80691948      -0.69128559       0.28715090
N        0.32682304      -1.20884703       0.82828157
C        1.22740205      -0.45676991       0.12340234
N        0.89152827       0.84129129       0.35462024
H       -1.77025656      -1.06962717       0.61743454
H       -0.31923033      -0.80525858      -1.29069238
H        0.90485961      -0.78806712      -1.30137727
H        1.37859733       1.60731495      -0.08544361
10
Frame=9 idx=000834 GeodesicLength=0.7414649943670715 rxn_smarts="[O:1]=[C:2]1[C:3]([H:7])([H:8])[N:4]=[C:5]([H:9])[N:6]1[H:10]>>[H:8][H:9].[O-:1][C:2]1=[C:3]([H:7])[N:4]=[C:5]=[N+:6]1[H:10]"
O       -1.27491911       1.74960009       0.13191046
C       -0.55851393       0.82335030       0.32939615
C       -0.80772566      -0.68903745       0.28446890
N        0.32755071      -1.21009577       0.82445537
C        1.23764912      -0.45337109       0.13000421
N        0.88676830       0.84300695       0.35626343
H       -1.76742507      -1.06174664       0.63159496
H       -0.33712900      -0.82034277      -1.30521031
H        0.91340870      -0.79680087      -1.31880736
H        1.38033594       1.61543725      -0.06407582
10
Frame=10 idx=000834 GeodesicLength=0.823931081932291 rxn_smarts="[O:1]=[C:2]1[C:3]([H:7])([H:8])[N:4]=[C:5]([H:9])[N:6]1[H:10]>>[H:8][H:9].[O-:1][C:2]1=[C:3]([H:7])[N:4]=[C:5]=[N+:6]1[H:10]"
O       -1.27579193       1.74923059       0.12238132
C       -0.55808480       0.82555278       0.33355276
C       -0.80844720      -0.68666454       0.28173918
N        0.32838694      -1.21121789       0.82050410
C        1.24813783      -0.44971874       0.13710395
N        0.88208142       0.84485601       0.35765710
H       -1.76424737      -1.05385746       0.64540042
H       -0.35622751      -0.83602340      -1.31972306
H        0.92219555      -0.80583136      -1.33658396
H        1.38199706       1.62367402      -0.04203181
10
Frame=11 idx=000834 GeodesicLength=0.9064229357304442 rxn_smarts="[O:1]=[C:2]1[C:3]([H:7])([H:8])[N:4]=[C:5]([H:9])[N:6]1[H:10]>>[H:8][H:9].[O-:1][C:2]1=[C:3]([H:7])[N:4]=[C:5]=[N+:6]1[H:10]"
O       -1.27650996       1.74888326       0.11282579
C       -0.55761404       0.82787655       0.33764653
C       -0.80906859      -0.68416085       0.27894352
N        0.32934978      -1.21220570       0.81640513
C        1.25888569      -0.44579444       0.14472982
N        0.87747867       0.84684984       0.35876183
H       -1.76071824      -1.04596029       0.65884434
H       -0.37662651      -0.85234484      -1.33420479
H        0.93124924      -0.81517703      -1.35473201
H        1.38357395       1.63203350      -0.01922015
10
Frame=12 idx=000834 GeodesicLength=0.9889387713850902 rxn_smarts="[O:1]=[C:2]1[C:3]([H:7])([H:8])[N:4]=[C:5]([H:9])[N:6]1[H:10]>>[H:8][H:9].[O-:1][C:2]1=[C:3]([H:7])[N:4]=[C:5]=[N+:6]1[H:10]"
O       -1.27706877       1.74856004       0.10321946
C       -0.55709166       0.83032560       0.34164788
C       -0.80957370      -0.68152330       0.27606238
N        0.33045978      -1.21305266       0.81212817
C        1.26991061      -0.44157645       0.15291456
N        0.87296853       0.84900165       0.35953127
H       -1.75682409      -1.03805069       0.67193150
H       -0.39844304      -0.86935399      -1.34862854
H        0.94060037      -0.82485774      -1.37328366
H        1.38506197       1.64052753       0.00447696
10
Frame=13 idx=000834 GeodesicLength=1.0714596181624954 rxn_smarts="[O:1]=[C:2]1[C:3]([H:7])([H:8])[N:4]=[C:5]([H:9])[N:6]1[H:10]>>[H:8][H:9].[O-:1][C:2]1=[C:3]([H:7])[N:4]=[C:5]=[N+:6]1[H:10]"
O       -1.27746546       1.74826420       0.09354639
C       -0.55650574       0.83290542       0.34553016
C       -0.80994563      -0.67874605       0.27307445
N        0.33173745      -1.21375220       0.80764208
C        1.28123092      -0.43704142       0.16169571
N        0.86856334       0.85132344       0.35992012
H       -1.75255283      -1.03012540       0.68465544
H       -0.42179526      -0.88709701      -1.36296177
H        0.95028399      -0.83489324      -1.39226698
H        1.38644922       1.64916227       0.02916439
10
Frame=14 idx=000834 GeodesicLength=1.153967674977649 rxn_smarts="[O:1]=[C:2]1[C:3]([H:7])([H:8])[N:4]=[C:5]([H:9])[N:6]1[H:10]>>[H:8][H:9].[O-:1][C:2]1=[C:3]([H:7])[N:4]=[C:5]=[N+:6]1[H:10]"
O       -1.27769742       1.74800272       0.08378596
C       -0.55584272       0.83562461       0.34925376
C       -0.81016371      -0.67582159       0.26995297
N        0.33321030      -1.21429023       0.80291035
C        1.29286651      -0.43216076       0.17110231
N        0.86427658       0.85383228       0.35984980
H       -1.74788621      -1.02217871       0.69701208
H       -0.44682797      -0.90563488      -1.37715398
H        0.96034543      -0.84531319      -1.41171713
H        1.38771921       1.65793976       0.05500389
10
Frame=15 idx=000834 GeodesicLength=1.2364557425100913 rxn_smarts="[O:1]=[C:2]1[C:3]([H:7])([H:8])[N:4]=[C:5]([H:9])[N:6]1[H:10]>>[H:8][H:9].[O-:1][C:2]1=[C:3]([H:7])[N:4]=[C:5]=[N+:6]1[H:10]"
O       -1.27775726       1.74777595       0.07386536
C       -0.55508487       0.83849360       0.35275628
C       -0.81020404      -0.67274308       0.26667442
N        0.33491860      -1.21464702       0.79788026
C        1.30483968      -0.42690054       0.18114733
N        0.86012475       0.85655033       0.35919910
H       -1.74278645      -1.01419233       0.70903117
H       -0.47371851      -0.92505669      -1.39114276
H        0.97081251      -0.85615543      -1.43169701
H        1.38885559       1.66687521       0.08228585
10
Frame=16 idx=000834 GeodesicLength=1.3188987684131375 rxn_smarts="[O:1]=[C:2]1[C:3]([H:7])([H:8])[N:4]=[C:5]([H:9])[N:6]1[H:10]>>[H:8][H:9].[O-:1][C:2]1=[C:3]([H:7])[N:4]=[C:5]=[N+:6]1[H:10]"
O       -1.27763971       1.74758886       0.06372522
C       -0.55421158       0.84152551       0.35597180
C       -0.81003956      -0.66950146       0.26321115
N        0.33690636      -1.21479730       0.79250030
C        1.31717333      -0.42122051       0.19184939
N        0.85612826       0.85950265       0.35783076
H       -1.73721565      -1.00615046       0.72073021
H       -0.50264676      -0.94544604      -1.40485735
H        0.98171802      -0.86746614      -1.45226510
H        1.38982730       1.67596489       0.11130362
