11
Frame=0 idx=011660 GeodesicLength=0.0 rxn_smarts="[O:1]=[C:2]1[O:3][C:4]([H:8])([H:9])[C@@:5]12[C:6]([H:10])([H:11])[O:7]2>>[O:1]1[C@:2]2([O:3][C:4]2([H:8])[H:9])[C@@:5]12[C:6]([H:10])([H:11])[O:7]2"
O       -0.76850035       0.65539047      -1.72116213
C       -0.71155329       0.48818948      -0.47323626
O       -1.45544397       1.21156354       0.52405557
C       -1.70981173      -0.17249631       0.49263484
C        0.63659913       0.20648634      -0.01021761
C        1.90772630      -0.40306702      -0.22641171
O        1.49704610       0.58883777       0.84098823
H       -2.62032186      -0.47601579      -0.01960348
H       -1.45689378      -0.72260415       1.39795963
H        2.57605413       0.01779028      -0.96646131
H        2.10509929      -1.39407465       0.16145420
11
Frame=1 idx=011660 GeodesicLength=0.07616117103160629 rxn_smarts="[O:1]=[C:2]1[O:3][C:4]([H:8])([H:9])[C@@:5]12[C:6]([H:10])([H:11])[O:7]2>>[O:1]1[C@:2]2([O:3][C:4]2([H:8])[H:9])[C@@:5]12[C:6]([H:10])([H:11])[O:7]2"
O       -0.72754509       0.70876623      -1.72213743
C       -0.71926261       0.52460468      -0.47609506
O       -1.47894092       1.20454048       0.52937928
C       -1.68879508      -0.19002700       0.49167171
C        0.62155031       0.21429591      -0.01588193
C        1.88721318      -0.41225740      -0.22189352
O        1.50163567       0.61165783       0.81742688
H       -2.58920606      -0.52181695      -0.02102195
H       -1.43908731      -0.72222687       1.40828557
H        2.55432997      -0.02272157      -0.98020533
H        2.07810794      -1.39481535       0.19047179
11
Frame=2 idx=011660 GeodesicLength=0.15215120899479706 rxn_smarts="[O:1]=[C:2]1[O:3][C:4]([H:8])([H:9])[C@@:5]12[C:6]([H:10])([H:11])[O:7]2>>[O:1]1[C@:2]2([O:3][C:4]2([H:8])[H:9])[C@@:5]12[C:6]([H:10])([H:11])[O:7]2"
O       -0.68624055       0.76137041      -1.72077659
C       -0.72730441       0.55798950      -0.47888181
O       -1.50207056       1.19708873       0.53205541
C       -1.66785930      -0.20644413       0.49105040
C        0.60641271       0.22115348      -0.02147207
C        1.86714706      -0.42072044      -0.21790017
O        1.50571730       0.63167574       0.79436715
H       -2.55714950      -0.56648677      -0.02213034
H       -1.42350027      -0.71972058       1.41960471
H        2.53225418      -0.06111161      -0.99280970
H        2.05259333      -1.39479433       0.21689302
11
Frame=3 idx=011660 GeodesicLength=0.22835873658719086 rxn_smarts="[O:1]=[C:2]1[O:3][C:4]([H:8])([H:9])[C@@:5]12[C:6]([H:10])([H:11])[O:7]2>>[O:1]1[C@:2]2([O:3][C:4]2([H:8])[H:9])[C@@:5]12[C:6]([H:10])([H:11])[O:7]2"
O       -0.64452258       0.81333109      -1.71709807
C       -0.73550823       0.58834259      -0.48193574
O       -1.52461533       1.18931326       0.53181697
C       -1.64693033      -0.22180076       0.49088234
C        0.59117682       0.22712467      -0.02707273
C        1.84733516      -0.42848502      -0.21442701
O        1.50904793       0.64886492       0.77204208
H       -2.52404518      -0.61023573      -0.02254011
H       -1.40984866      -0.71509557       1.43185093
H        2.50975831      -0.09707131      -1.00423114
H        2.02815210      -1.39428814       0.24071249
11
Frame=4 idx=011660 GeodesicLength=0.3043699163821892 rxn_smarts="[O:1]=[C:2]1[O:3][C:4]([H:8])([H:9])[C@@:5]12[C:6]([H:10])([H:11])[O:7]2>>[O:1]1[C@:2]2([O:3][C:4]2([H:8])[H:9])[C@@:5]12[C:6]([H:10])([H:11])[O:7]2"
O       -0.60267645       0.86452109      -1.71127985
C       -0.74396457       0.61585802      -0.48546313
O       -1.54697253       1.18131185       0.52890409
C       -1.62633071      -0.23607306       0.49124825
C        0.57595800       0.23225935      -0.03264615
C        1.82814089      -0.43564536      -0.21150105
O        1.51182186       0.66346390       0.75074273
H       -2.49039211      -0.65292722      -0.02214281
H       -1.39814071      -0.70850508       1.44490803
H        2.48743198      -0.13072295      -1.01470375
H        2.00512436      -1.39354053       0.26193364
11
Frame=5 idx=011660 GeodesicLength=0.38043729153330114 rxn_smarts="[O:1]=[C:2]1[O:3][C:4]([H:8])([H:9])[C@@:5]12[C:6]([H:10])([H:11])[O:7]2>>[O:1]1[C@:2]2([O:3][C:4]2([H:8])[H:9])[C@@:5]12[C:6]([H:10])([H:11])[O:7]2"
O       -0.56067228       0.91499678      -1.70315299
C       -0.75253845       0.64075219      -0.48959460
O       -1.56907030       1.17301215       0.52335711
C       -1.60597631      -0.24934363       0.49214201
C        0.56076193       0.23669808      -0.03822344
C        1.80938525      -0.44224048      -0.20907600
O        1.51401432       0.67577679       0.73037587
H       -2.45606108      -0.69465439      -0.02077706
H       -1.38812756      -0.70014578       1.45848485
H        2.46517745      -0.16221930      -1.02432700
H        1.98310703      -1.39263241       0.28079126
11
Frame=6 idx=011660 GeodesicLength=0.45649635243882825 rxn_smarts="[O:1]=[C:2]1[O:3][C:4]([H:8])([H:9])[C@@:5]12[C:6]([H:10])([H:11])[O:7]2>>[O:1]1[C@:2]2([O:3][C:4]2([H:8])[H:9])[C@@:5]12[C:6]([H:10])([H:11])[O:7]2"
O       -0.51858755       0.96479280      -1.69274049
C       -0.76118561       0.66301410      -0.49457540
O       -1.59092491       1.16444363       0.51509762
C       -1.58594176      -0.26162741       0.49360381
C        0.54560799       0.24041303      -0.04383618
C        1.79113267      -0.44831672      -0.20718119
O        1.51552335       0.68579937       0.71121717
H       -2.42121550      -0.73544178      -0.01817785
H       -1.37972009      -0.68991166       1.47254969
H        2.44317791      -0.19138245      -1.03315991
H        1.96213348      -1.39178291       0.29720272
11
Frame=7 idx=011660 GeodesicLength=0.5324512897204483 rxn_smarts="[O:1]=[C:2]1[O:3][C:4]([H:8])([H:9])[C@@:5]12[C:6]([H:10])([H:11])[O:7]2>>[O:1]1[C@:2]2([O:3][C:4]2([H:8])[H:9])[C@@:5]12[C:6]([H:10])([H:11])[O:7]2"
O       -0.47656233       1.01386632      -1.68004786
C       -0.76989985       0.68287030      -0.50052922
O       -1.61269161       1.15555028       0.50426916
C       -1.56632957      -0.27294976       0.49563956
C        0.53056525       0.24350281      -0.04949709
C        1.77347628      -0.45393215      -0.20581806
O        1.51650568       0.69372845       0.69335230
H       -2.38603778      -0.77529116      -0.01426689
H       -1.37286213      -0.67790003       1.48698646
H        2.42167034      -0.21833525      -1.04137475
H        1.94216573      -1.39110982       0.31128639
11
Frame=8 idx=011660 GeodesicLength=0.6083678678934991 rxn_smarts="[O:1]=[C:2]1[O:3][C:4]([H:8])([H:9])[C@@:5]12[C:6]([H:10])([H:11])[O:7]2>>[O:1]1[C@:2]2([O:3][C:4]2([H:8])[H:9])[C@@:5]12[C:6]([H:10])([H:11])[O:7]2"
O       -0.43477239       1.06198122      -1.66493393
C       -0.77861053       0.70053687      -0.50749251
O       -1.63435171       1.14632548       0.49089238
C       -1.54699182      -0.28328008       0.49820027
C        0.51559801       0.24603727      -0.05519596
C        1.75629378      -0.45913142      -0.20495789
O        1.51680865       0.69968296       0.67683024
H       -2.35027306      -0.81413677      -0.00896142
H       -1.36728854      -0.66416073       1.50151300
H        2.40057755      -0.24309408      -1.04894398
H        1.92301007      -1.39076073       0.32304981
11
Frame=9 idx=011660 GeodesicLength=0.6842635798567539 rxn_smarts="[O:1]=[C:2]1[O:3][C:4]([H:8])([H:9])[C@@:5]12[C:6]([H:10])([H:11])[O:7]2>>[O:1]1[C@:2]2([O:3][C:4]2([H:8])[H:9])[C@@:5]12[C:6]([H:10])([H:11])[O:7]2"
O       -0.39327261       1.10931027      -1.64740073
C       -0.78727423       0.71612232      -0.51564208
O       -1.65598612       1.13665286       0.47498986
C       -1.52803897      -0.29268025       0.50130126
C        0.50079258       0.24810282      -0.06097639
C        1.73965646      -0.46395692      -0.20461428
O        1.51662903       0.70379131       0.66177481
H       -2.31412980      -0.85214339      -0.00212684
H       -1.36301618      -0.64863916       1.51617229
H        2.38009407      -0.26571143      -1.05606330
H        1.90454578      -1.39084842       0.33258541
11
Frame=10 idx=011660 GeodesicLength=0.7600988978299701 rxn_smarts="[O:1]=[C:2]1[O:3][C:4]([H:8])([H:9])[C@@:5]12[C:6]([H:10])([H:11])[O:7]2>>[O:1]1[C@:2]2([O:3][C:4]2([H:8])[H:9])[C@@:5]12[C:6]([H:10])([H:11])[O:7]2"
O       -0.35225637       1.15555636      -1.62743331
C       -0.79580512       0.72980883      -0.52498061
O       -1.67757362       1.12647518       0.45664941
C       -1.50946998      -0.30112045       0.50491541
C        0.48617110       0.24971605      -0.06680946
C        1.72357419      -0.46842564      -0.20479533
O        1.51597659       0.70613124       0.64825979
H       -2.27763815      -0.88916457       0.00630041
H       -1.36003808      -0.63138777       1.53080324
H        2.36030450      -0.28613000      -1.06279158
H        1.88675494      -1.39145923       0.33988204
11
Frame=11 idx=011660 GeodesicLength=0.8359666066730387 rxn_smarts="[O:1]=[C:2]1[O:3][C:4]([H:8])([H:9])[C@@:5]12[C:6]([H:10])([H:11])[O:7]2>>[O:1]1[C@:2]2([O:3][C:4]2([H:8])[H:9])[C@@:5]12[C:6]([H:10])([H:11])[O:7]2"
O       -0.31188326       1.20071075      -1.60484344
C       -0.80414032       0.74173254      -0.53555571
O       -1.69913622       1.11568728       0.43584009
C       -1.49120361      -0.30859297       0.50897704
C        0.47173351       0.25093329      -0.07269142
C        1.70798959      -0.47259082      -0.20547675
O        1.51482100       0.70679334       0.63630149
H       -2.24066265      -0.92522614       0.01640488
H       -1.35819165      -0.61232429       1.54523041
H        2.34115514      -0.30444357      -1.06917088
H        1.86951848      -1.39267940       0.34498427
11
Frame=12 idx=011660 GeodesicLength=0.911776160648617 rxn_smarts="[O:1]=[C:2]1[O:3][C:4]([H:8])([H:9])[C@@:5]12[C:6]([H:10])([H:11])[O:7]2>>[O:1]1[C@:2]2([O:3][C:4]2([H:8])[H:9])[C@@:5]12[C:6]([H:10])([H:11])[O:7]2"
O       -0.27234392       1.24457334      -1.57976526
C       -0.81220285       0.75213471      -0.54731867
O       -1.72070725       1.10418706       0.41273768
C       -1.47334354      -0.31509183       0.51348818
C        0.45756392       0.25182360      -0.07857381
C        1.69298090      -0.47646905      -0.20666603
O        1.51341257       0.70591851       0.62592802
H       -2.20335761      -0.96025651       0.02813903
H       -1.35762236      -0.59157220       1.55941994
H        2.32277431      -0.32070359      -1.07538526
H        1.85284584      -1.39454405       0.34799619
11
Frame=13 idx=011660 GeodesicLength=0.9876470332102482 rxn_smarts="[O:1]=[C:2]1[O:3][C:4]([H:8])([H:9])[C@@:5]12[C:6]([H:10])([H:11])[O:7]2>>[O:1]1[C@:2]2([O:3][C:4]2([H:8])[H:9])[C@@:5]12[C:6]([H:10])([H:11])[O:7]2"
O       -0.23391036       1.28683104      -1.55209591
C       -0.81987475       0.76125920      -0.56008113
O       -1.74218038       1.09189043       0.38745011
C       -1.45573263      -0.32056123       0.51835513
C        0.44363845       0.25244340      -0.08438215
C        1.67841840      -0.48009700      -0.20831653
O        1.51168107       0.70364340       0.61701601
H       -2.16539654      -0.99410336       0.04142309
H       -1.35823734      -0.56920760       1.57304824
H        2.30495880      -0.33505453      -1.08141898
H        1.83663529      -1.39704375       0.34900211
11
Frame=14 idx=011660 GeodesicLength=1.0635012742740482 rxn_smarts="[O:1]=[C:2]1[O:3][C:4]([H:8])([H:9])[C@@:5]12[C:6]([H:10])([H:11])[O:7]2>>[O:1]1[C@:2]2([O:3][C:4]2([H:8])[H:9])[C@@:5]12[C:6]([H:10])([H:11])[O:7]2"
O       -0.19670845       1.32763331      -1.52187822
C       -0.82711199       0.76924157      -0.57386686
O       -1.76366741       1.07860682       0.35999043
C       -1.43846085      -0.32503401       0.52358439
C        0.43003823       0.25284357      -0.09008639
C        1.66440179      -0.48351714      -0.21043493
O        1.50987614       0.70003008       0.60957207
H       -2.12692580      -1.02679555       0.05629731
H       -1.36018539      -0.54518155       1.58618124
H        2.28780660      -0.34760222      -1.08746782
H        1.82093714      -1.40022487       0.34810879
11
Frame=15 idx=011660 GeodesicLength=1.1393353052786117 rxn_smarts="[O:1]=[C:2]1[O:3][C:4]([H:8])([H:9])[C@@:5]12[C:6]([H:10])([H:11])[O:7]2>>[O:1]1[C@:2]2([O:3][C:4]2([H:8])[H:9])[C@@:5]12[C:6]([H:10])([H:11])[O:7]2"
O       -0.16084149       1.36667215      -1.48929242
C       -0.83379689       0.77634818      -0.58853090
O       -1.78509965       1.06432848       0.33051709
C       -1.42160260      -0.32847370       0.52917124
C        0.41677350       0.25305304      -0.09563445
C        1.65093360      -0.48674371      -0.21302150
O        1.50800798       0.69521777       0.60353067
H       -2.08804749      -1.05821063       0.07281694
H       -1.36349224      -0.51972840       1.59866298
H        2.27139927      -0.35833972      -1.09356204
H        1.80576602      -1.40412346       0.34534239
11
Frame=16 idx=011660 GeodesicLength=1.2153747693510704 rxn_smarts="[O:1]=[C:2]1[O:3][C:4]([H:8])([H:9])[C@@:5]12[C:6]([H:10])([H:11])[O:7]2>>[O:1]1[C@:2]2([O:3][C:4]2([H:8])[H:9])[C@@:5]12[C:6]([H:10])([H:11])[O:7]2"
O       -0.12660371       1.40381667      -1.45407793
C       -0.83982812       0.78258306      -0.60387443
O       -1.80623550       1.04865515       0.29902966
C       -1.40493343      -0.33085539       0.53498088
C        0.40386758       0.25309008      -0.10092639
C        1.63783927      -0.48975487      -0.21601493
O        1.50625809       0.68919773       0.59876348
H       -2.04850416      -1.08814325       0.09078684
H       -1.36810974      -0.49264662       1.61021617
H        2.25529093      -0.36745357      -1.09968213
H        1.79095880      -1.40848899       0.34079878
