10
Frame=0 idx=000410 GeodesicLength=0.0 rxn_smarts="[C:1]([n:2]1[c:3]([H:10])[n:4][n:5][n:6]1)([H:7])([H:8])[H:9]>>[C:1]([C:3]1([H:10])[N:2]=[N:6][N:5]=[N:4]1)([H:7])([H:8])[H:9]"
C       -1.13646506       0.03814331       0.29587678
N        0.13105290      -0.13707606      -1.08952163
C        0.61385434       0.67279559      -0.07973886
N        1.61178339       0.06044605       0.56962903
N        1.71639529      -1.10960503      -0.01112448
N        0.83442933      -1.25659695      -0.97118773
H       -0.97417984       0.28865193       1.34119135
H       -1.40235910      -1.00292331       0.17645977
H       -1.81880616       0.71207632      -0.20383392
H        0.42429491       1.73408816      -0.02775031
10
Frame=1 idx=000410 GeodesicLength=0.04551504994122266 rxn_smarts="[C:1]([n:2]1[c:3]([H:10])[n:4][n:5][n:6]1)([H:7])([H:8])[H:9]>>[C:1]([C:3]1([H:10])[N:2]=[N:6][N:5]=[N:4]1)([H:7])([H:8])[H:9]"
C       -1.14128919       0.03862980       0.29611925
N        0.13044340      -0.14935061      -1.07903251
C        0.61119902       0.67008899      -0.07567266
N        1.62054477       0.06495607       0.56735821
N        1.74454246      -1.09704306      -0.02084862
N        0.83888853      -1.26166890      -0.96435853
H       -0.99002358       0.26861690       1.34792023
H       -1.43113859      -0.99553516       0.16764205
H       -1.81542344       0.72725367      -0.19536528
H        0.43225662       1.73405231      -0.04376215
10
Frame=2 idx=000410 GeodesicLength=0.08992687137080824 rxn_smarts="[C:1]([n:2]1[c:3]([H:10])[n:4][n:5][n:6]1)([H:7])([H:8])[H:9]>>[C:1]([C:3]1([H:10])[N:2]=[N:6][N:5]=[N:4]1)([H:7])([H:8])[H:9]"
C       -1.14579564       0.03883002       0.29657247
N        0.12990709      -0.16146151      -1.06842370
C        0.60863958       0.66766849      -0.07169922
N        1.62970256       0.06998970       0.56446803
N        1.77059402      -1.08483927      -0.02929315
N        0.84384235      -1.26630699      -0.95789494
H       -1.00586759       0.24787741       1.35443913
H       -1.45955906      -0.98768179       0.15835608
H       -1.81169065       0.74209154      -0.18609984
H        0.44022733       1.73383240      -0.06042485
10
Frame=3 idx=000410 GeodesicLength=0.1334588257408056 rxn_smarts="[C:1]([n:2]1[c:3]([H:10])[n:4][n:5][n:6]1)([H:7])([H:8])[H:9]>>[C:1]([C:3]1([H:10])[N:2]=[N:6][N:5]=[N:4]1)([H:7])([H:8])[H:9]"
C       -1.15003928       0.03877953       0.29723542
N        0.12943789      -0.17344064      -1.05765333
C        0.60616914       0.66548570      -0.06778133
N        1.63915253       0.07548095       0.56107356
N        1.79496814      -1.07293548      -0.03670616
N        0.84919922      -1.27056986      -0.95177088
H       -1.02181531       0.22656077       1.36070891
H       -1.48764751      -0.97930924       0.14867580
H       -1.80763136       0.75659623      -0.17609105
H        0.44820653       1.73335204      -0.07769094
10
Frame=4 idx=000410 GeodesicLength=0.17630263797226559 rxn_smarts="[C:1]([n:2]1[c:3]([H:10])[n:4][n:5][n:6]1)([H:7])([H:8])[H:9]>>[C:1]([C:3]1([H:10])[N:2]=[N:6][N:5]=[N:4]1)([H:7])([H:8])[H:9]"
C       -1.15407159       0.03850695       0.29810466
N        0.12902574      -0.18532009      -1.04668503
C        0.60378647       0.66349810      -0.06388598
N        1.64880949       0.08134875       0.55728210
N        1.81803485      -1.06126254      -0.04333037
N        0.85488203      -1.27451933      -0.94596022
H       -1.03796885       0.20481102       1.36669291
H       -1.51541317      -0.97037842       0.13867545
H       -1.80327747       0.77076419      -0.16539905
H        0.45619249       1.73255138      -0.09549447
10
Frame=5 idx=000410 GeodesicLength=0.21852698060765935 rxn_smarts="[C:1]([n:2]1[c:3]([H:10])[n:4][n:5][n:6]1)([H:7])([H:8])[H:9]>>[C:1]([C:3]1([H:10])[N:2]=[N:6][N:5]=[N:4]1)([H:7])([H:8])[H:9]"
C       -1.15791184       0.03803044       0.29918122
N        0.12867015      -0.19709243      -1.03551564
C        0.60149842       0.66170202      -0.06000694
N        1.65862246       0.08753812       0.55313601
N        1.83994534      -1.04983686      -0.04925921
N        0.86086404      -1.27815787      -0.94050777
H       -1.05439988       0.18276277       1.37234906
H       -1.54280162      -0.96088152       0.12846010
H       -1.79866430       0.78454678      -0.15408005
H        0.46417723       1.73138855      -0.11375677
10
Frame=6 idx=000410 GeodesicLength=0.2602076203050001 rxn_smarts="[C:1]([n:2]1[c:3]([H:10])[n:4][n:5][n:6]1)([H:7])([H:8])[H:9]>>[C:1]([C:3]1([H:10])[N:2]=[N:6][N:5]=[N:4]1)([H:7])([H:8])[H:9]"
C       -1.16158982       0.03737093       0.30046322
N        0.12836060      -0.20876895      -1.02412819
C        0.59932482       0.66006959      -0.05612782
N        1.66854184       0.09398140       0.54870767
N        1.86090825      -1.03862175      -0.05464283
N        0.86710165      -1.28152573      -0.93541978
H       -1.07117459       0.16055976       1.37763064
H       -1.56977612      -0.95081189       0.11809726
H       -1.79383361       0.79792132      -0.14217913
H        0.47213698       1.72982532      -0.13240106
10
Frame=7 idx=000410 GeodesicLength=0.30135590203130447 rxn_smarts="[C:1]([n:2]1[c:3]([H:10])[n:4][n:5][n:6]1)([H:7])([H:8])[H:9]>>[C:1]([C:3]1([H:10])[N:2]=[N:6][N:5]=[N:4]1)([H:7])([H:8])[H:9]"
C       -1.16504602       0.03654215       0.30194903
N        0.12811993      -0.22026024      -1.01259382
C        0.59720807       0.65865924      -0.05236024
N        1.67853958       0.10075925       0.54384749
N        1.88058572      -1.02788313      -0.05908960
N        0.87359236      -1.28444053      -0.93092609
H       -1.08814831       0.13819003       1.38261906
H       -1.59617028      -0.94032276       0.10772821
H       -1.78873935       0.81083232      -0.12984318
H        0.48005830       1.72792365      -0.15133086
10
Frame=8 idx=000410 GeodesicLength=0.342036132024472 rxn_smarts="[C:1]([n:2]1[c:3]([H:10])[n:4][n:5][n:6]1)([H:7])([H:8])[H:9]>>[C:1]([C:3]1([H:10])[N:2]=[N:6][N:5]=[N:4]1)([H:7])([H:8])[H:9]"
C       -1.16838130       0.03554647       0.30362744
N        0.12792887      -0.23170645      -1.00081626
C        0.59521241       0.65738787      -0.04857601
N        1.68857054       0.10771619       0.53878917
N        1.89961181      -1.01731626      -0.06321189
N        0.88029314      -1.28709710      -0.92678456
H       -1.10555287       0.11583613       1.38721952
H       -1.62214650      -0.92924891       0.09730792
H       -1.78344787       0.82332262      -0.11701456
H        0.48791176       1.72555943      -0.17054077
10
Frame=9 idx=000410 GeodesicLength=0.382442149640067 rxn_smarts="[C:1]([n:2]1[c:3]([H:10])[n:4][n:5][n:6]1)([H:7])([H:8])[H:9]>>[C:1]([C:3]1([H:10])[N:2]=[N:6][N:5]=[N:4]1)([H:7])([H:8])[H:9]"
C       -1.17160969       0.03441626       0.30551250
N        0.12778750      -0.24316655      -0.98874512
C        0.59330431       0.65621197      -0.04480274
N        1.69858597       0.11482164       0.53355014
N        1.91818417      -1.00677467      -0.06710705
N        0.88716504      -1.28958454      -0.92293035
H       -1.12341457       0.09346263       1.39142068
H       -1.64775506      -0.91753803       0.08679597
H       -1.77793110       0.83545842      -0.10368312
H        0.49568344       1.72269288      -0.19001092
10
Frame=10 idx=000410 GeodesicLength=0.42258277225874186 rxn_smarts="[C:1]([n:2]1[c:3]([H:10])[n:4][n:5][n:6]1)([H:7])([H:8])[H:9]>>[C:1]([C:3]1([H:10])[N:2]=[N:6][N:5]=[N:4]1)([H:7])([H:8])[H:9]"
C       -1.17476142       0.03314383       0.30760027
N        0.12771397      -0.25471894      -0.97633750
C        0.59148737       0.65510436      -0.04103299
N        1.70856649       0.12206714       0.52817132
N        1.93646049      -0.99615695      -0.07092618
N        0.89421894      -1.29197715      -0.91927283
H       -1.14178155       0.07105637       1.39521388
H       -1.67307140      -0.90510837       0.07613203
H       -1.77217015       0.84729210      -0.08978771
H        0.50333726       1.71929761      -0.20976028
10
Frame=11 idx=000410 GeodesicLength=0.4624527710531141 rxn_smarts="[C:1]([n:2]1[c:3]([H:10])[n:4][n:5][n:6]1)([H:7])([H:8])[H:9]>>[C:1]([C:3]1([H:10])[N:2]=[N:6][N:5]=[N:4]1)([H:7])([H:8])[H:9]"
C       -1.17779491       0.03174002       0.30987990
N        0.12769435      -0.26627351      -0.96363871
C        0.58975010       0.65413226      -0.03730346
N        1.71850489       0.12947192       0.52260447
N        1.95427781      -0.98569772      -0.07448949
N        0.90142425      -1.29407852      -0.91598361
H       -1.16060637       0.04873202       1.39861545
H       -1.69793552      -0.89208226       0.06549191
H       -1.76617623       0.85870704      -0.07549672
H        0.51086163       1.71534876      -0.22967974
10
Frame=12 idx=000410 GeodesicLength=0.5020807747700717 rxn_smarts="[C:1]([n:2]1[c:3]([H:10])[n:4][n:5][n:6]1)([H:7])([H:8])[H:9]>>[C:1]([C:3]1([H:10])[N:2]=[N:6][N:5]=[N:4]1)([H:7])([H:8])[H:9]"
C       -1.18073770       0.03019548       0.31236521
N        0.12774894      -0.27791137      -0.95061644
C        0.58810783       0.65325123      -0.03363786
N        1.72841725       0.13703138       0.51684419
N        1.97172188      -0.97527804      -0.07784524
N        0.90881383      -1.29602883      -0.91299832
H       -1.17992103       0.02644546       1.40159759
H       -1.72239955      -0.87837377       0.05476267
H       -1.75995094       0.86978197      -0.06067698
H        0.51819948       1.71088649      -0.24979482
10
Frame=13 idx=000410 GeodesicLength=0.5415110463404843 rxn_smarts="[C:1]([n:2]1[c:3]([H:10])[n:4][n:5][n:6]1)([H:7])([H:8])[H:9]>>[C:1]([C:3]1([H:10])[N:2]=[N:6][N:5]=[N:4]1)([H:7])([H:8])[H:9]"
C       -1.18360969       0.02852692       0.31505349
N        0.12788486      -0.28969548      -0.93720659
C        0.58655129       0.65243948      -0.03002429
N        1.73827368       0.14473196       0.51093385
N        1.98895665      -0.96479279      -0.08115090
N        0.91636755      -1.29786525      -0.91021775
H       -1.19977176       0.00414976       1.40413422
H       -1.74651758      -0.86389581       0.04391657
H       -1.75345548       0.88055381      -0.04531076
H        0.52532048       1.70584740      -0.27012785
10
Frame=14 idx=000410 GeodesicLength=0.5808601791776441 rxn_smarts="[C:1]([n:2]1[c:3]([H:10])[n:4][n:5][n:6]1)([H:7])([H:8])[H:9]>>[C:1]([C:3]1([H:10])[N:2]=[N:6][N:5]=[N:4]1)([H:7])([H:8])[H:9]"
C       -1.18642373       0.02673157       0.31794546
N        0.12809923      -0.30167653      -0.92338204
C        0.58506238       0.65169451      -0.02648344
N        1.74807933       0.15258890       0.50487744
N        2.00607299      -0.95422133      -0.08442721
N        0.92407370      -1.29962268      -0.90761387
H       -1.22016716      -0.01817158       1.40622646
H       -1.77029999      -0.84860787       0.03289065
H       -1.74668905       0.89106076      -0.02934691
H        0.53219230       1.70022424      -0.29068652
10
Frame=15 idx=000410 GeodesicLength=0.6201433637371917 rxn_smarts="[C:1]([n:2]1[c:3]([H:10])[n:4][n:5][n:6]1)([H:7])([H:8])[H:9]>>[C:1]([C:3]1([H:10])[N:2]=[N:6][N:5]=[N:4]1)([H:7])([H:8])[H:9]"
C       -1.18919697       0.02479914       0.32105057
N        0.12841746      -0.31391261      -0.90906381
C        0.58364800       0.65098850      -0.02303256
N        1.75782367       0.16062670       0.49865654
N        2.02313852      -0.94344669      -0.08776767
N        0.93193004      -1.30131030      -0.90508490
H       -1.24117904      -0.04058732       1.40783687
H       -1.79380958      -0.83240534       0.02161801
H       -1.73958674       0.90131758      -0.01269802
H        0.53881464       1.69393033      -0.31151503
10
Frame=16 idx=000410 GeodesicLength=0.6591601553703588 rxn_smarts="[C:1]([n:2]1[c:3]([H:10])[n:4][n:5][n:6]1)([H:7])([H:8])[H:9]>>[C:1]([C:3]1([H:10])[N:2]=[N:6][N:5]=[N:4]1)([H:7])([H:8])[H:9]"
C       -1.19186603       0.02273746       0.32435740
N        0.12883150      -0.32630910      -0.89430228
C        0.58229900       0.65036435      -0.01969499
N        1.76747394       0.16881036       0.49224049
N        2.03989677      -0.93270318      -0.09094743
N        0.93993884      -1.30282592      -0.90284379
H       -1.26270729      -0.06296463       1.40892172
H       -1.81677365      -0.81540357       0.01027395
H       -1.73218798       0.91122908       0.00451243
H        0.54509491       1.68706514      -0.33251750
