16
Frame=0 idx=008571 GeodesicLength=0.0 rxn_smarts="[C:1]([c:2]1[c:3]([H:11])[c:4]([C:5]([H:12])([H:13])[H:14])[c:6]([H:15])[n:7]1[H:16])([H:8])([H:9])[H:10]>>[C:1]([C@@:2]12[C@@:3]([H:11])([C:4]([H:12])=[C:6]([H:15])[N:7]1[H:16])[C:5]2([H:13])[H:14])([H:8])([H:9])[H:10]"
C        2.46052141      -0.35080747       0.22628719
C        1.00914796      -0.02118681       0.27172187
C       -0.06717254      -0.75367814       0.67703255
C       -1.23255583       0.05161664       0.51027966
C       -2.85801171      -0.81755536      -0.72120005
C       -0.81680160       1.25520577      -0.00606741
N        0.53069705       1.20358220      -0.14139579
H        3.04705695       0.30349079       0.87587280
H        2.61314480      -1.37570449       0.56071529
H        2.86209489      -0.26843712      -0.78685624
H       -0.03705916      -1.76431677       1.05296365
H       -2.25316224      -0.20133519       0.83178849
H       -2.08188217      -1.42886283      -1.21349843
H       -2.89336621       0.09339036      -1.34562956
H       -1.38246028       2.12914351      -0.28584930
H        1.09980872       1.94545491      -0.50616469
16
Frame=1 idx=008571 GeodesicLength=0.14650648692677545 rxn_smarts="[C:1]([c:2]1[c:3]([H:11])[c:4]([C:5]([H:12])([H:13])[H:14])[c:6]([H:15])[n:7]1[H:16])([H:8])([H:9])[H:10]>>[C:1]([C@@:2]12[C@@:3]([H:11])([C:4]([H:12])=[C:6]([H:15])[N:7]1[H:16])[C:5]2([H:13])[H:14])([H:8])([H:9])[H:10]"
C        2.42046643      -0.37573662       0.17585436
C        0.97265268      -0.03052509       0.23152500
C       -0.09862004      -0.72831046       0.71711286
C       -1.25403617       0.09650476       0.56738984
C       -2.72328203      -0.83232774      -0.75092619
C       -0.82718278       1.30352716       0.07260457
N        0.51524611       1.22556575      -0.11052509
H        3.01908216       0.25328675       0.83924459
H        2.56226592      -1.41110842       0.48189678
H        2.81792986      -0.26956605      -0.83672504
H       -0.06511886      -1.72176821       1.13625827
H       -2.30431791      -0.17129504       0.83369435
H       -1.96918416      -1.50212016      -1.19410529
H       -2.75678940       0.04198383      -1.42267255
H       -1.39233067       2.16727841      -0.23889037
H        1.08321886       1.95461113      -0.50173609
16
Frame=2 idx=008571 GeodesicLength=0.29324578963041015 rxn_smarts="[C:1]([c:2]1[c:3]([H:11])[c:4]([C:5]([H:12])([H:13])[H:14])[c:6]([H:15])[n:7]1[H:16])([H:8])([H:9])[H:10]>>[C:1]([C@@:2]12[C@@:3]([H:11])([C:4]([H:12])=[C:6]([H:15])[N:7]1[H:16])[C:5]2([H:13])[H:14])([H:8])([H:9])[H:10]"
C        2.38047747      -0.39743238       0.13094221
C        0.93633066      -0.03633624       0.19765333
C       -0.12661083      -0.70564910       0.74945187
C       -1.27326132       0.13601756       0.61363611
C       -2.59392271      -0.84315602      -0.76981652
C       -0.83518917       1.34443847       0.13617000
N        0.50288036       1.24591663      -0.08037400
H        2.99064192       0.20614932       0.80730595
H        2.51095035      -1.44212682       0.40927798
H        2.77504569      -0.26858533      -0.88014142
H       -0.08755246      -1.68387935       1.20255033
H       -2.35094150      -0.14344213       0.82505357
H       -1.87315423      -1.57236265      -1.16730450
H       -2.62483804      -0.00526420      -1.48362005
H       -1.39908979       2.20137732      -0.19661225
H        1.06823360       1.96433493      -0.49417259
16
Frame=3 idx=008571 GeodesicLength=0.4401000446707266 rxn_smarts="[C:1]([c:2]1[c:3]([H:11])[c:4]([C:5]([H:12])([H:13])[H:14])[c:6]([H:15])[n:7]1[H:16])([H:8])([H:9])[H:10]>>[C:1]([C@@:2]12[C@@:3]([H:11])([C:4]([H:12])=[C:6]([H:15])[N:7]1[H:16])[C:5]2([H:13])[H:14])([H:8])([H:9])[H:10]"
C        2.34183752      -0.41629492       0.09060763
C        0.90158775      -0.03919351       0.16946526
C       -0.15171520      -0.68554731       0.77587545
C       -1.29078377       0.17076106       0.65117057
C       -2.47024081      -0.85104703      -0.78077366
C       -0.84170929       1.37958883       0.18881603
N        0.49298212       1.26443004      -0.05198597
H        2.96312249       0.16219037       0.77867215
H        2.46068688      -1.46916409       0.34231850
H        2.73412090      -0.26617722      -0.91843189
H       -0.10584816      -1.65049874       1.25598083
H       -2.39387147      -0.11831869       0.80688922
H       -1.79252692      -1.63884828      -1.13463994
H       -2.49907638      -0.04900963      -1.53191495
H       -1.40367246       2.23257699      -0.15805804
H        1.05510682       1.97455215      -0.48399120
16
Frame=4 idx=008571 GeodesicLength=0.586899454546548 rxn_smarts="[C:1]([c:2]1[c:3]([H:11])[c:4]([C:5]([H:12])([H:13])[H:14])[c:6]([H:15])[n:7]1[H:16])([H:8])([H:9])[H:10]>>[C:1]([C@@:2]12[C@@:3]([H:11])([C:4]([H:12])=[C:6]([H:15])[N:7]1[H:16])[C:5]2([H:13])[H:14])([H:8])([H:9])[H:10]"
C        2.30540849      -0.43261687       0.05447070
C        0.86911169      -0.04011841       0.14534814
C       -0.17419594      -0.66790855       0.79762413
C       -1.30682444       0.20111746       0.68151870
C       -2.35254697      -0.85684818      -0.78538502
C       -0.84715504       1.40986529       0.23306686
N        0.48499613       1.28084989      -0.02628290
H        2.93672865       0.12165418       0.75325651
H        2.41267396      -1.49252553       0.28094988
H        2.69637865      -0.26259576      -0.95193569
H       -0.12089809      -1.62143525       1.29928743
H       -2.43330082      -0.09620142       0.78042527
H       -1.72565564      -1.69978657      -1.09811888
H       -2.38188147      -0.08945774      -1.56919008
H       -1.40657945       2.26131305      -0.12235038
H        1.04374029       1.98469442      -0.47268465
16
Frame=5 idx=008571 GeodesicLength=0.7333400403830952 rxn_smarts="[C:1]([c:2]1[c:3]([H:11])[c:4]([C:5]([H:12])([H:13])[H:14])[c:6]([H:15])[n:7]1[H:16])([H:8])([H:9])[H:10]>>[C:1]([C@@:2]12[C@@:3]([H:11])([C:4]([H:12])=[C:6]([H:15])[N:7]1[H:16])[C:5]2([H:13])[H:14])([H:8])([H:9])[H:10]"
C        2.27166671      -0.44659649       0.02225658
C        0.83921223      -0.03992076       0.12402879
C       -0.19414762      -0.65262760       0.81555378
C       -1.32141814       0.22740229       0.70594225
C       -2.24116687      -0.86081547      -0.78492781
C       -0.85163346       1.43582829       0.27091170
N        0.47850136       1.29506870      -0.00361702
H        2.91144884       0.08483919       0.73101669
H        2.36779004      -1.51240469       0.22518646
H        2.66250819      -0.25813889      -0.98090697
H       -0.13316313      -1.59645110       1.33437227
H       -2.46918859      -0.07709378       0.74685697
H       -1.67152156      -1.75429101      -1.05899745
H       -2.27439108      -0.12672868      -1.59748366
H       -1.40818045       2.28778303      -0.08843935
H        1.03368351       1.99414697      -0.46175323
16
Frame=6 idx=008571 GeodesicLength=0.8794684792726155 rxn_smarts="[C:1]([c:2]1[c:3]([H:11])[c:4]([C:5]([H:12])([H:13])[H:14])[c:6]([H:15])[n:7]1[H:16])([H:8])([H:9])[H:10]>>[C:1]([C@@:2]12[C@@:3]([H:11])([C:4]([H:12])=[C:6]([H:15])[N:7]1[H:16])[C:5]2([H:13])[H:14])([H:8])([H:9])[H:10]"
C        2.24085167      -0.45855223      -0.00636134
C        0.81194087      -0.03913389       0.10477851
C       -0.21177681      -0.63952507       0.83044096
C       -1.33471842       0.25000334       0.72544463
C       -2.13618390      -0.86332826      -0.78029829
C       -0.85532213       1.45805652       0.30375930
N        0.47314633       1.30723191       0.01597400
H        2.88742136       0.05167260       0.71176991
H        2.32652635      -1.52924574       0.17481751
H        2.63274619      -0.25308265      -1.00577073
H       -0.14316316      -1.57524243       1.36279750
H       -2.50167174      -0.06083412       0.70723729
H       -1.62847206      -1.80160691      -1.01855966
H       -2.17703731      -0.16130504      -1.61813896
H       -1.40877481       2.31226158      -0.05561520
H        1.02448759       2.00263039      -0.45227542
16
Frame=7 idx=008571 GeodesicLength=1.0252884207463673 rxn_smarts="[C:1]([c:2]1[c:3]([H:11])[c:4]([C:5]([H:12])([H:13])[H:14])[c:6]([H:15])[n:7]1[H:16])([H:8])([H:9])[H:10]>>[C:1]([C@@:2]12[C@@:3]([H:11])([C:4]([H:12])=[C:6]([H:15])[N:7]1[H:16])[C:5]2([H:13])[H:14])([H:8])([H:9])[H:10]"
C        2.21292044      -0.46875329      -0.03183783
C        0.78720037      -0.03804269       0.08713895
C       -0.22728368      -0.62834101       0.84291370
C       -1.34684377       0.26932649       0.74087845
C       -2.03751820      -0.86459368      -0.77228327
C       -0.85834570       1.47702424       0.33269153
N        0.46867715       1.31759003       0.03280198
H        2.86469601       0.02187457       0.69518782
H        2.28895477      -1.54346313       0.12924194
H        2.60688546      -0.24755881      -1.02707268
H       -0.15125503      -1.55736589       1.38585784
H       -2.53083896      -0.04711401       0.66240818
H       -1.59540860      -1.84176138      -0.97728842
H       -2.08904683      -0.19382972      -1.63268846
H       -1.40860968       2.33486901      -0.02344476
H        1.01581626       2.01013928      -0.44450496
16
Frame=8 idx=008571 GeodesicLength=1.1707951464082882 rxn_smarts="[C:1]([c:2]1[c:3]([H:11])[c:4]([C:5]([H:12])([H:13])[H:14])[c:6]([H:15])[n:7]1[H:16])([H:8])([H:9])[H:10]>>[C:1]([C@@:2]12[C@@:3]([H:11])([C:4]([H:12])=[C:6]([H:15])[N:7]1[H:16])[C:5]2([H:13])[H:14])([H:8])([H:9])[H:10]"
C        2.18774113      -0.47744330      -0.05459272
C        0.76482703      -0.03683100       0.07080061
C       -0.24087532      -0.61885534       0.85346764
C       -1.35791646       0.28575419       0.75297406
C       -1.94504667      -0.86482992      -0.76147411
C       -0.86083503       1.49315201       0.35851729
N        0.46487996       1.32639661       0.04716670
H        2.84329939      -0.00486036       0.68093969
H        2.25499597      -1.55544752       0.08787791
H        2.58460704      -0.24166874      -1.04532729
H       -0.15772825      -1.54244304       1.40457764
H       -2.55678825      -0.03559670       0.61311235
H       -1.57132753      -1.87490327      -0.93558477
H       -2.00933892      -0.22490930      -1.64229892
H       -1.40789807       2.35572093       0.00834805
H        1.00740398       2.01676477      -0.43850414
16
Frame=9 idx=008571 GeodesicLength=1.315947493369813 rxn_smarts="[C:1]([c:2]1[c:3]([H:11])[c:4]([C:5]([H:12])([H:13])[H:14])[c:6]([H:15])[n:7]1[H:16])([H:8])([H:9])[H:10]>>[C:1]([C@@:2]12[C@@:3]([H:11])([C:4]([H:12])=[C:6]([H:15])[N:7]1[H:16])[C:5]2([H:13])[H:14])([H:8])([H:9])[H:10]"
C        2.16508331      -0.48487346      -0.07502758
C        0.74459763      -0.03560298       0.05553366
C       -0.25277204      -0.61080311       0.86250284
C       -1.36807083       0.29970388       0.76232207
C       -1.85864211      -0.86436022      -0.74826748
C       -0.86293193       1.50686477       0.38175895
N        0.46155969       1.33389371       0.05932623
H        2.82316561      -0.02897425       0.66873237
H        2.22438355      -1.56559103       0.05005240
H        2.56553500      -0.23546347      -1.06097568
H       -0.16283116      -1.53001488       1.41979132
H       -2.57961871      -0.02593349       0.56003681
H       -1.55497808      -1.90115829      -0.89386171
H       -1.93672461      -0.25516205      -1.64775225
H       -1.40682458       2.37485591       0.03998757
H        0.99906924       2.02261895      -0.43415950
16
Frame=10 idx=008571 GeodesicLength=1.4608039368421695 rxn_smarts="[C:1]([c:2]1[c:3]([H:11])[c:4]([C:5]([H:12])([H:13])[H:14])[c:6]([H:15])[n:7]1[H:16])([H:8])([H:9])[H:10]>>[C:1]([C@@:2]12[C@@:3]([H:11])([C:4]([H:12])=[C:6]([H:15])[N:7]1[H:16])[C:5]2([H:13])[H:14])([H:8])([H:9])[H:10]"
C        2.14477192      -0.49119574      -0.09338666
C        0.72630239      -0.03451529       0.04112501
C       -0.26315921      -0.60411248       0.87028887
C       -1.37736759       0.31142882       0.76954643
C       -1.77818232      -0.86321978      -0.73297103
C       -0.86467734       1.51838663       0.40305063
N        0.45854257       1.34019417       0.06937368
H        2.80424138      -0.05048871       0.65826273
H        2.19703351      -1.57410943       0.01564962
H        2.54933102      -0.22916302      -1.07438840
H       -0.16677429      -1.51994349       1.43204230
H       -2.59944395      -0.01777089       0.50384819
H       -1.54547779      -1.92081211      -0.85267418
H       -1.87011710      -0.28476959      -1.64966854
H       -1.40552420       2.39240715       0.07168630
H        0.99050101       2.02768377      -0.43178495
16
Frame=11 idx=008571 GeodesicLength=1.6054145166685514 rxn_smarts="[C:1]([c:2]1[c:3]([H:11])[c:4]([C:5]([H:12])([H:13])[H:14])[c:6]([H:15])[n:7]1[H:16])([H:8])([H:9])[H:10]>>[C:1]([C@@:2]12[C@@:3]([H:11])([C:4]([H:12])=[C:6]([H:15])[N:7]1[H:16])[C:5]2([H:13])[H:14])([H:8])([H:9])[H:10]"
C        2.12654853      -0.49658353      -0.10995005
C        0.70969271      -0.03364492       0.02742362
C       -0.27222885      -0.59860000       0.87707490
C       -1.38589924       0.32123239       0.77512366
C       -1.70350366      -0.86156057      -0.71578013
C       -0.86614878       1.52796383       0.42277185
N        0.45567904       1.34541658       0.07746026
H        2.78641669      -0.06967576       0.64926281
H        2.17266248      -1.58124403      -0.01572380
H        2.53560860      -0.22285937      -1.08588175
H       -0.16973562      -1.51189664       1.44183803
H       -2.61636612      -0.01078521       0.44508804
H       -1.54167793      -1.93416151      -0.81243899
H       -1.80846609      -0.31395570      -1.64844249
H       -1.40409469       2.40839161       0.10354952
H        0.98151294       2.03196283      -0.43137548
16
Frame=12 idx=008571 GeodesicLength=1.749753219684406 rxn_smarts="[C:1]([c:2]1[c:3]([H:11])[c:4]([C:5]([H:12])([H:13])[H:14])[c:6]([H:15])[n:7]1[H:16])([H:8])([H:9])[H:10]>>[C:1]([C@@:2]12[C@@:3]([H:11])([C:4]([H:12])=[C:6]([H:15])[N:7]1[H:16])[C:5]2([H:13])[H:14])([H:8])([H:9])[H:10]"
C        2.11013321      -0.50121357      -0.12498545
C        0.69451625      -0.03304459       0.01432427
C       -0.28015956      -0.59411885       0.88312795
C       -1.39375587       0.32940903       0.77949539
C       -1.63439726      -0.85953560      -0.69688593
C       -0.86741245       1.53588155       0.44124488
N        0.45283911       1.34972111       0.08374311
H        2.76956551      -0.08680964       0.64149324
H        2.15094177      -1.58727111      -0.04444952
H        2.52396215      -0.21663389      -1.09579459
H       -0.17186387      -1.50562674       1.44968271
H       -2.63047814      -0.00466728       0.38420533
H       -1.54241478      -1.94170280      -0.77350344
H       -1.75082368      -0.34286117      -1.64445866
H       -1.40260472       2.42292670       0.13564869
H        0.97195233       2.03554684      -0.43288799
16
Frame=13 idx=008571 GeodesicLength=1.8937981691149592 rxn_smarts="[C:1]([c:2]1[c:3]([H:11])[c:4]([C:5]([H:12])([H:13])[H:14])[c:6]([H:15])[n:7]1[H:16])([H:8])([H:9])[H:10]>>[C:1]([C@@:2]12[C@@:3]([H:11])([C:4]([H:12])=[C:6]([H:15])[N:7]1[H:16])[C:5]2([H:13])[H:14])([H:8])([H:9])[H:10]"
C        2.09523278      -0.50525917      -0.13874201
C        0.68051306      -0.03275078       0.00173243
C       -0.28714566      -0.59049894       0.88866629
C       -1.40105089       0.33625333       0.78301204
C       -1.57067339      -0.85728110      -0.67643155
C       -0.86852832       1.54240558       0.45869588
N        0.44990432       1.35323089       0.08832978
H        2.75352992      -0.10219349       0.63471796
H        2.13149847      -1.59243528      -0.07089726
H        2.51401502      -0.21057085      -1.10441086
H       -0.17332423      -1.50084162       1.45600185
H       -2.64189473       0.00090647       0.32155166
H       -1.54629816      -1.94399989      -0.73614831
H       -1.69641151      -0.37156984      -1.63797417
H       -1.40108879       2.43611849       0.16814395
H        0.96172213       2.03848619      -0.43624769
16
Frame=14 idx=008571 GeodesicLength=2.0375890858091763 rxn_smarts="[C:1]([c:2]1[c:3]([H:11])[c:4]([C:5]([H:12])([H:13])[H:14])[c:6]([H:15])[n:7]1[H:16])([H:8])([H:9])[H:10]>>[C:1]([C@@:2]12[C@@:3]([H:11])([C:4]([H:12])=[C:6]([H:15])[N:7]1[H:16])[C:5]2([H:13])[H:14])([H:8])([H:9])[H:10]"
C        2.08161897      -0.50881860      -0.15137904
C        0.66747862      -0.03280358      -0.01041064
C       -0.29330913      -0.58764989       0.89385545
C       -1.40781684       0.34195745       0.78603301
C       -1.51205191      -0.85472533      -0.65457638
C       -0.86948853       1.54768443       0.47542415
N        0.44681009       1.35601485       0.09138149
H        2.73822090      -0.11591256       0.62871443
H        2.11409486      -1.59686674      -0.09517594
H        2.50540612      -0.20479896      -1.11197158
H       -0.17422778      -1.49739992       1.46106174
H       -2.65062662       0.00610626       0.25745112
H       -1.55248864      -1.94165073      -0.70062321
H       -1.64477200      -0.39990856      -1.62923970
H       -1.39955264       2.44799242       0.20087005
H        0.95070453       2.04077944      -0.44141494
16
Frame=15 idx=008571 GeodesicLength=2.181127317101142 rxn_smarts="[C:1]([c:2]1[c:3]([H:11])[c:4]([C:5]([H:12])([H:13])[H:14])[c:6]([H:15])[n:7]1[H:16])([H:8])([H:9])[H:10]>>[C:1]([C@@:2]12[C@@:3]([H:11])([C:4]([H:12])=[C:6]([H:15])[N:7]1[H:16])[C:5]2([H:13])[H:14])([H:8])([H:9])[H:10]"
C        2.06905907      -0.51200140      -0.16306127
C        0.65520954      -0.03321421      -0.02216935
C       -0.29877926      -0.58544765       0.89883406
C       -1.41411695       0.34674164       0.78881401
C       -1.45825569      -0.85185960      -0.63148267
C       -0.87030194       1.55190920       0.49160319
N        0.44349963       1.35816013       0.09303243
H        2.72350557      -0.12818930       0.62333615
H        2.09843191      -1.60072082      -0.11754688
H        2.49785279      -0.19934897      -1.11865674
H       -0.17468229      -1.49510066       1.46511870
H       -2.65669747       0.01111413       0.19212505
H       -1.56004175      -1.93530426      -0.66700756
H       -1.59554058      -0.42781688      -1.61847285
H       -1.39797804       2.45862740       0.23382398
H        0.93883544       2.04245124      -0.44829024
16
Frame=16 idx=008571 GeodesicLength=2.324403208763548 rxn_smarts="[C:1]([c:2]1[c:3]([H:11])[c:4]([C:5]([H:12])([H:13])[H:14])[c:6]([H:15])[n:7]1[H:16])([H:8])([H:9])[H:10]>>[C:1]([C@@:2]12[C@@:3]([H:11])([C:4]([H:12])=[C:6]([H:15])[N:7]1[H:16])[C:5]2([H:13])[H:14])([H:8])([H:9])[H:10]"
C        2.05735389      -0.51488900      -0.17393423
C        0.64353776      -0.03397629      -0.03358680
C       -0.30366260      -0.58379497       0.90371951
C       -1.41999656       0.35079243       0.79157903
C       -1.40896753      -0.84863183      -0.60733267
C       -0.87096510       1.55525233       0.50738400
N        0.43994757       1.35975719       0.09345398
H        2.70927818      -0.13920485       0.61845202
H        2.08424736      -1.60412208      -0.13823913
H        2.49110876      -0.19423067      -1.12463513
H       -0.17478632      -1.49380323       1.46837016
H       -2.66009109       0.01602670       0.12576242
H       -1.56827769      -1.92560676      -0.63527202
H       -1.54848533      -0.45521900      -1.60590101
H       -1.39634875       2.46808987       0.26686913
H        0.92610745       2.04356016      -0.45668927
