13
Frame=0 idx=003125 GeodesicLength=0.0 rxn_smarts="[O:1]([C:2]([C:3]([C:4]([C:5]#[N:6])([H:12])[H:13])([H:10])[H:11])([H:8])[H:9])[H:7]>>[O:1]([C@@:2]1([H:8])[C:3]([H:10])([H:11])[C:4]([H:12])([H:13])[C:5][N:6]1[H:9])[H:7]"
O        1.49905541       0.16564066       1.11805347
C        0.99515421       0.25648205      -0.16386096
C        0.06106413      -0.83101924      -0.49419731
C       -1.32845662      -0.62024732       0.17720218
C       -1.60788401       0.85097134       0.19150376
N       -0.68595614       1.62581027       0.00350384
H        2.19976259       0.80621268       1.24356078
H        1.73468948       0.52165469      -0.92263685
H        0.18085792       2.02013074      -0.32638459
H        0.45490988      -1.78930106      -0.14534499
H       -0.06253869      -0.88251052      -1.57681358
H       -1.32085342      -0.94735785       1.22099591
H       -2.11980475      -1.17646640      -0.32558171
13
Frame=1 idx=003125 GeodesicLength=0.09349330271376062 rxn_smarts="[O:1]([C:2]([C:3]([C:4]([C:5]#[N:6])([H:12])[H:13])([H:10])[H:11])([H:8])[H:9])[H:7]>>[O:1]([C@@:2]1([H:8])[C:3]([H:10])([H:11])[C:4]([H:12])([H:13])[C:5][N:6]1[H:9])[H:7]"
O        1.49680288       0.16578195       1.11591095
C        0.98705786       0.26798326      -0.16522962
C        0.05939030      -0.82953325      -0.49564946
C       -1.32778499      -0.62104027       0.17851518
C       -1.61328036       0.84854444       0.19001283
N       -0.69826746       1.62897690      -0.00868616
H        2.19544166       0.80783489       1.24534429
H        1.73266813       0.51820945      -0.92366519
H        0.20897839       2.00600459      -0.31166042
H        0.45989176      -1.78540519      -0.14854130
H       -0.06545276      -0.88250186      -1.57807743
H       -1.31579342      -0.94567471       1.22298785
H       -2.11965199      -1.17918021      -0.32126153
13
Frame=2 idx=003125 GeodesicLength=0.1867198690586695 rxn_smarts="[O:1]([C:2]([C:3]([C:4]([C:5]#[N:6])([H:12])[H:13])([H:10])[H:11])([H:8])[H:9])[H:7]>>[O:1]([C@@:2]1([H:8])[C:3]([H:10])([H:11])[C:4]([H:12])([H:13])[C:5][N:6]1[H:9])[H:7]"
O        1.49469407       0.16570594       1.11376408
C        0.97922930       0.27910375      -0.16655830
C        0.05778928      -0.82816073      -0.49708880
C       -1.32699764      -0.62170924       0.17983782
C       -1.61826990       0.84627134       0.18873366
N       -0.71022503       1.63194809      -0.02149892
H        2.19109733       0.80936312       1.24723336
H        1.73050096       0.51491136      -0.92456907
H        0.23586029       1.99232682      -0.29676572
H        0.46476019      -1.78166270      -0.15176686
H       -0.06829072      -0.88259200      -1.57932540
H       -1.31067025      -0.94390796       1.22495281
H       -2.11947786      -1.18159778      -0.31694865
13
Frame=3 idx=003125 GeodesicLength=0.27986288647042507 rxn_smarts="[O:1]([C:2]([C:3]([C:4]([C:5]#[N:6])([H:12])[H:13])([H:10])[H:11])([H:8])[H:9])[H:7]>>[O:1]([C@@:2]1([H:8])[C:3]([H:10])([H:11])[C:4]([H:12])([H:13])[C:5][N:6]1[H:9])[H:7]"
O        1.49274403       0.16540182       1.11161113
C        0.97163897       0.28987392      -0.16782912
C        0.05625129      -0.82688806      -0.49851380
C       -1.32610949      -0.62227044       0.18116880
C       -1.62290801       0.84413201       0.18760143
N       -0.72186243       1.63472167      -0.03469601
H        2.18671053       0.81081580       1.24924033
H        1.72817777       0.51177826      -0.92535260
H        0.26167444       1.97907371      -0.28189653
H        0.46951829      -1.77806161      -0.15503258
H       -0.07105968      -0.88275214      -1.58055650
H       -1.30549863      -0.94205867       1.22689383
H       -2.11927708      -1.18376626      -0.31263840
13
Frame=4 idx=003125 GeodesicLength=0.37301640053915497 rxn_smarts="[O:1]([C:2]([C:3]([C:4]([C:5]#[N:6])([H:12])[H:13])([H:10])[H:11])([H:8])[H:9])[H:7]>>[O:1]([C@@:2]1([H:8])[C:3]([H:10])([H:11])[C:4]([H:12])([H:13])[C:5][N:6]1[H:9])[H:7]"
O        1.49095689       0.16487093       1.10945704
C        0.96426176       0.30032451      -0.16902748
C        0.05476648      -0.82570105      -0.49992501
C       -1.32513662      -0.62274273       0.18250929
C       -1.62724769       0.84210395       0.18657965
N       -0.73321777       1.63729763      -0.04807498
H        2.18226613       0.81220752       1.25138434
H        1.72570216       0.50881492      -0.92601730
H        0.28659066       1.96623509      -0.26724774
H        0.47417291      -1.77458901      -0.15834989
H       -0.07376929      -0.88295116      -1.58177377
H       -1.30029304      -0.94014399       1.22881494
H       -2.11905258      -1.18572661      -0.30832910
13
Frame=5 idx=003125 GeodesicLength=0.466153109645623 rxn_smarts="[O:1]([C:2]([C:3]([C:4]([C:5]#[N:6])([H:12])[H:13])([H:10])[H:11])([H:8])[H:9])[H:7]>>[O:1]([C@@:2]1([H:8])[C:3]([H:10])([H:11])[C:4]([H:12])([H:13])[C:5][N:6]1[H:9])[H:7]"
O        1.48931844       0.16412960       1.10730816
C        0.95707057       0.31048570      -0.17014298
C        0.05332618      -0.82458791      -0.50132185
C       -1.32409273      -0.62314514       0.18386060
C       -1.63133437       0.84016406       0.18564758
N       -0.74433811       1.63967707      -0.06151408
H        2.17776445       0.81353423       1.25366988
H        1.72307798       0.50601770      -0.92656394
H        0.31077300       1.95382516      -0.25294089
H        0.47873351      -1.77123138      -0.16172436
H       -0.07642845      -0.88316821      -1.58297760
H       -1.29506369      -0.93818346       1.23071843
H       -2.11880678      -1.18751743      -0.30401895
13
Frame=6 idx=003125 GeodesicLength=0.5594494216813074 rxn_smarts="[O:1]([C:2]([C:3]([C:4]([C:5]#[N:6])([H:12])[H:13])([H:10])[H:11])([H:8])[H:9])[H:7]>>[O:1]([C@@:2]1([H:8])[C:3]([H:10])([H:11])[C:4]([H:12])([H:13])[C:5][N:6]1[H:9])[H:7]"
O        1.48779128       0.16321538       1.10517728
C        0.95002909       0.32039829      -0.17116567
C        0.05191923      -0.82353132      -0.50270488
C       -1.32299207      -0.62350181       0.18522685
C       -1.63522117       0.83828027       0.18481323
N       -0.75530090       1.64186134      -0.07494661
H        2.17322021       0.81477565       1.25609447
H        1.72030951       0.50337467      -0.92698298
H        0.33443912       1.94186171      -0.23907903
H        0.48321338      -1.76796570      -0.16516421
H       -0.07904983      -0.88337807      -1.58416906
H       -1.28981726      -0.93620991       1.23260614
H       -2.11854058      -1.18918049      -0.29970554
13
Frame=7 idx=003125 GeodesicLength=0.6528640033540813 rxn_smarts="[O:1]([C:2]([C:3]([C:4]([C:5]#[N:6])([H:12])[H:13])([H:10])[H:11])([H:8])[H:9])[H:7]>>[O:1]([C@@:2]1([H:8])[C:3]([H:10])([H:11])[C:4]([H:12])([H:13])[C:5][N:6]1[H:9])[H:7]"
O        1.48633610       0.16216612       1.10307651
C        0.94310643       0.33009540      -0.17208943
C        0.05053740      -0.82251994      -0.50407296
C       -1.32184535      -0.62383199       0.18661119
C       -1.63894420       0.83642807       0.18409164
N       -0.76617667       1.64385278      -0.08837705
H        2.16866224       0.81589866       1.25864473
H        1.71739918       0.50087691      -0.92726928
H        0.35775611       1.93037474      -0.22569027
H        0.48762513      -1.76477334      -0.16866935
H       -0.08164168      -0.88356910      -1.58534730
H       -1.28455875      -0.93425088       1.23448001
H       -2.11825594      -1.19074742      -0.29538844
13
Frame=8 idx=003125 GeodesicLength=0.7464696546506611 rxn_smarts="[O:1]([C:2]([C:3]([C:4]([C:5]#[N:6])([H:12])[H:13])([H:10])[H:11])([H:8])[H:9])[H:7]>>[O:1]([C@@:2]1([H:8])[C:3]([H:10])([H:11])[C:4]([H:12])([H:13])[C:5][N:6]1[H:9])[H:7]"
O        1.48490809       0.16102411       1.10101963
C        0.93626849       0.33961602      -0.17290818
C        0.04917235      -0.82153933      -0.50542476
C       -1.32066367      -0.62415443       0.18801767
C       -1.64253868       0.83458357       0.18350972
N       -0.77704940       1.64564533      -0.10183448
H        2.16412448       0.81686696       1.26130327
H        1.71434741       0.49851641      -0.92741297
H        0.38090877       1.91938490      -0.21279153
H        0.49198259      -1.76163123      -0.17223962
H       -0.08421193      -0.88372863      -1.58651126
H       -1.27929327      -0.93233754       1.23634072
H       -2.11795523      -1.19224614      -0.29106821
13
Frame=9 idx=003125 GeodesicLength=0.8404038840987104 rxn_smarts="[O:1]([C:2]([C:3]([C:4]([C:5]#[N:6])([H:12])[H:13])([H:10])[H:11])([H:8])[H:9])[H:7]>>[O:1]([C@@:2]1([H:8])[C:3]([H:10])([H:11])[C:4]([H:12])([H:13])[C:5][N:6]1[H:9])[H:7]"
O        1.48345792       0.15983170       1.09902016
C        0.92947484       0.34900929      -0.17361781
C        0.04781564      -0.82056775      -0.50675751
C       -1.31945876      -0.62448520       0.18945061
C       -1.64604274       0.83272557       0.18309709
N       -0.78800991       1.64722041      -0.11537652
H        2.15964861       0.81764196       1.26404431
H        1.71115384       0.49627981      -0.92740081
H        0.40409055       1.90889739      -0.20037121
H        0.49630172      -1.75850756      -0.17587395
H       -0.08676836      -0.88384194      -1.58765752
H       -1.27402392      -0.93049923       1.23818784
H       -2.11763941      -1.19370446      -0.28674468
13
Frame=10 idx=003125 GeodesicLength=0.9345215634133011 rxn_smarts="[O:1]([C:2]([C:3]([C:4]([C:5]#[N:6])([H:12])[H:13])([H:10])[H:11])([H:8])[H:9])[H:7]>>[O:1]([C@@:2]1([H:8])[C:3]([H:10])([H:11])[C:4]([H:12])([H:13])[C:5][N:6]1[H:9])[H:7]"
O        1.48194712       0.15862683       1.09708969
C        0.92270043       0.35830503      -0.17421459
C        0.04646458      -0.81959810      -0.50806728
C       -1.31823716      -0.62483535       0.19091134
C       -1.64947220       0.83084122       0.18287756
N       -0.79913412       1.64857871      -0.12909345
H        2.15529241       0.81816544       1.26683726
H        1.70781341       0.49416919      -0.92722696
H        0.42740667       1.89893443      -0.18837203
H        0.50059459      -1.75538535      -0.17956072
H       -0.08930965      -0.88391167      -1.58878242
H       -1.26875629      -0.92875311       1.24002276
H       -2.11730980      -1.19513726      -0.28242119
13
Frame=11 idx=003125 GeodesicLength=1.0288598063473198 rxn_smarts="[O:1]([C:2]([C:3]([C:4]([C:5]#[N:6])([H:12])[H:13])([H:10])[H:11])([H:8])[H:9])[H:7]>>[O:1]([C@@:2]1([H:8])[C:3]([H:10])([H:11])[C:4]([H:12])([H:13])[C:5][N:6]1[H:9])[H:7]"
O        1.48033237       0.15744418       1.09524355
C        0.91591308       0.36754158      -0.17469363
C        0.04511407      -0.81861613      -0.50934987
C       -1.31700754      -0.62521677       0.19240344
C       -1.65284314       0.82891769       0.18288965
N       -0.81051086       1.64969970      -0.14308467
H        2.15110819       0.81839154       1.26965010
H        1.70432061       0.49218212      -0.92687941
H        0.45100296       1.88951467      -0.17674705
H        0.50487423      -1.75224055      -0.18329381
H       -0.09183785      -0.88393356      -1.58988171
H       -1.26349560      -0.92712650       1.24184532
H       -2.11697053      -1.19655797      -0.27810191
13
Frame=12 idx=003125 GeodesicLength=1.1232723568729686 rxn_smarts="[O:1]([C:2]([C:3]([C:4]([C:5]#[N:6])([H:12])[H:13])([H:10])[H:11])([H:8])[H:9])[H:7]>>[O:1]([C@@:2]1([H:8])[C:3]([H:10])([H:11])[C:4]([H:12])([H:13])[C:5][N:6]1[H:9])[H:7]"
O        1.47858788       0.15630562       1.09348995
C        0.90908767       0.37675340      -0.17504967
C        0.04376304      -0.81760910      -0.51059957
C       -1.31577640      -0.62563300       0.19392720
C       -1.65616553       0.82695239       0.18314688
N       -0.82220579       1.65056217      -0.15742502
H        2.14714852       0.81827745       1.27245115
H        1.70066748       0.49032243      -0.92635129
H        0.47496176       1.88062959      -0.16544126
H        0.50915070      -1.74905231      -0.18706159
H       -0.09434791      -0.88390736      -1.59094967
H       -1.25824891      -0.92562826       1.24365433
H       -2.11662250      -1.19797300      -0.27379144
13
Frame=13 idx=003125 GeodesicLength=1.217754358774067 rxn_smarts="[O:1]([C:2]([C:3]([C:4]([C:5]#[N:6])([H:12])[H:13])([H:10])[H:11])([H:8])[H:9])[H:7]>>[O:1]([C@@:2]1([H:8])[C:3]([H:10])([H:11])[C:4]([H:12])([H:13])[C:5][N:6]1[H:9])[H:7]"
O        1.47668066       0.15523679       1.09184268
C        0.90219378       0.38598180      -0.17527428
C        0.04240907      -0.81656018      -0.51180960
C       -1.31455217      -0.62609043       0.19548373
C       -1.65945243       0.82494006       0.18367187
N       -0.83430339       1.65113681      -0.17219745
H        2.14347372       0.81777368       1.27520406
H        1.69684353       0.48859407      -0.92562884
H        0.49939989       1.87227714      -0.15441134
H        0.51343582      -1.74579480      -0.19085402
H       -0.09683532      -0.88382831      -1.59197981
H       -1.25302513      -0.92427430       1.24544980
H       -2.11626802      -1.19939232      -0.26949680
13
Frame=14 idx=003125 GeodesicLength=1.3121493971492493 rxn_smarts="[O:1]([C:2]([C:3]([C:4]([C:5]#[N:6])([H:12])[H:13])([H:10])[H:11])([H:8])[H:9])[H:7]>>[O:1]([C@@:2]1([H:8])[C:3]([H:10])([H:11])[C:4]([H:12])([H:13])[C:5][N:6]1[H:9])[H:7]"
O        1.47459060       0.15425066       1.09030998
C        0.89520732       0.39526333      -0.17535862
C        0.04105245      -0.81545376      -0.51297312
C       -1.31334099      -0.62658953       0.19707310
C       -1.66271291       0.82288178       0.18447089
N       -0.84686570       1.65139682      -0.18746958
H        2.14014074       0.81683936       1.27787480
H        1.69283831       0.48700235      -0.92470097
H        0.52438355       1.86443653      -0.14360845
H        0.51773826      -1.74244582      -0.19466051
H       -0.09929185      -0.88369284      -1.59296559
H       -1.24783270      -0.92306793       1.24723141
H       -2.11590709      -1.20082094      -0.26522335
13
Frame=15 idx=003125 GeodesicLength=1.4063955275761353 rxn_smarts="[O:1]([C:2]([C:3]([C:4]([C:5]#[N:6])([H:12])[H:13])([H:10])[H:11])([H:8])[H:9])[H:7]>>[O:1]([C@@:2]1([H:8])[C:3]([H:10])([H:11])[C:4]([H:12])([H:13])[C:5][N:6]1[H:9])[H:7]"
O        1.47229233       0.15336348       1.08890498
C        0.88809980       0.40464000      -0.17529027
C        0.03969277      -0.81427107      -0.51408196
C       -1.31215075      -0.62713286       0.19869538
C       -1.66595907       0.82077662       0.18555417
N       -0.85997004       1.65130787      -0.20331179
H        2.13721447       0.81542512       1.28042431
H        1.68863821       0.48555453      -0.92355143
H        0.55000532       1.85709324      -0.13299455
H        0.52206800      -1.73897899      -0.19847041
H       -0.10170840      -0.88349441      -1.59389946
H       -1.24268236      -0.92201637       1.24899934
H       -2.11554027      -1.20226718      -0.26097831
13
Frame=16 idx=003125 GeodesicLength=1.5003441716821582 rxn_smarts="[O:1]([C:2]([C:3]([C:4]([C:5]#[N:6])([H:12])[H:13])([H:10])[H:11])([H:8])[H:9])[H:7]>>[O:1]([C@@:2]1([H:8])[C:3]([H:10])([H:11])[C:4]([H:12])([H:13])[C:5][N:6]1[H:9])[H:7]"
O        1.46976825       0.15258326       1.08763781
C        0.88084663       0.41414992      -0.17505521
C        0.03833095      -0.81299447      -0.51512753
C       -1.31098855      -0.62771982       0.20034981
C       -1.66920246       0.81862681       0.18691951
N       -0.87368068       1.65083670      -0.21978553
H        2.13476151       0.81348688       1.28281309
H        1.68422796       0.48426026      -0.92216561
H        0.57632944       1.85022496      -0.12252628
H        0.52643259      -1.73537103      -0.20227260
H       -0.10407329      -0.88322704      -1.59477351
H       -1.23758569      -0.92111835       1.25075397
H       -2.11516666      -1.20373809      -0.25676791
