11
Frame=0 idx=001480 GeodesicLength=0.0 rxn_smarts="[C:1]([C:2]#[C:3][C:4](=[O:5])[N:6]([H:10])[H:11])([H:7])([H:8])[H:9]>>[C:1](=[C:2]=[C:3]=[C:4]([O:5][H:9])[N:6]([H:10])[H:11])([H:7])[H:8]"
C       -2.04876487      -0.07343717       0.14399686
C       -1.09292778       0.71731056      -0.42351239
C        0.08702886       1.05627905      -0.70172733
C        0.92079870       0.01277106      -0.05261633
O        0.43526065      -0.94914063       0.60404042
N        2.23713463       0.11115905      -0.17814157
H       -2.63414817      -0.72898927      -0.49482223
H       -2.55667951       0.28079055       1.03676827
H       -0.79644562      -0.74485419       0.52675954
H        2.84712220      -0.56735438       0.24256611
H        2.60162088       0.88546535      -0.70331132
11
Frame=1 idx=001480 GeodesicLength=0.09337075498712742 rxn_smarts="[C:1]([C:2]#[C:3][C:4](=[O:5])[N:6]([H:10])[H:11])([H:7])([H:8])[H:9]>>[C:1](=[C:2]=[C:3]=[C:4]([O:5][H:9])[N:6]([H:10])[H:11])([H:7])[H:8]"
C       -2.05903232      -0.06925047       0.14582069
C       -1.09973646       0.71322909      -0.43191510
C        0.08663644       1.03213231      -0.70233046
C        0.93018756      -0.01282284      -0.08008876
O        0.45365380      -0.96206132       0.60399395
N        2.24789940       0.11606691      -0.18267385
H       -2.66427109      -0.70314757      -0.49658827
H       -2.56191810       0.29351557       1.03796819
H       -0.80206093      -0.76505992       0.54392030
H        2.86363294      -0.54964149       0.24975891
H        2.60500876       0.90703972      -0.68786561
11
Frame=2 idx=001480 GeodesicLength=0.18653003194577805 rxn_smarts="[C:1]([C:2]#[C:3][C:4](=[O:5])[N:6]([H:10])[H:11])([H:7])([H:8])[H:9]>>[C:1](=[C:2]=[C:3]=[C:4]([O:5][H:9])[N:6]([H:10])[H:11])([H:7])[H:8]"
C       -2.06904674      -0.06534676       0.14691442
C       -1.10651296       0.70781625      -0.44256710
C        0.08604284       1.00501392      -0.70622132
C        0.94038199      -0.03305682      -0.09892136
O        0.47265154      -0.97508773       0.60393756
N        2.25805797       0.12162859      -0.18687706
H       -2.69461534      -0.67723996      -0.49758726
H       -2.56611361       0.30733976       1.03818626
H       -0.80754066      -0.78556208       0.56172308
H        2.87949832      -0.53570494       0.25003240
H        2.60719666       0.93019976      -0.66861961
11
Frame=3 idx=001480 GeodesicLength=0.27975143455654045 rxn_smarts="[C:1]([C:2]#[C:3][C:4](=[O:5])[N:6]([H:10])[H:11])([H:7])([H:8])[H:9]>>[C:1](=[C:2]=[C:3]=[C:4]([O:5][H:9])[N:6]([H:10])[H:11])([H:7])[H:8]"
C       -2.07876569      -0.06073279       0.14863375
C       -1.11316307       0.70196326      -0.45407978
C        0.08520454       0.97467366      -0.71367397
C        0.95104896      -0.05284406      -0.11635800
O        0.49183248      -0.99251619       0.59804896
N        2.26813271       0.12865987      -0.18903216
H       -2.72740657      -0.64752879      -0.49669570
H       -2.56674532       0.32175825       1.04076276
H       -0.81316277      -0.80854985       0.57713908
H        2.89529599      -0.51751582       0.25612195
H        2.60772872       0.95263247      -0.65086689
11
Frame=4 idx=001480 GeodesicLength=0.37300125082252117 rxn_smarts="[C:1]([C:2]#[C:3][C:4](=[O:5])[N:6]([H:10])[H:11])([H:7])([H:8])[H:9]>>[C:1](=[C:2]=[C:3]=[C:4]([O:5][H:9])[N:6]([H:10])[H:11])([H:7])[H:8]"
C       -2.08788489      -0.05506973       0.15129204
C       -1.11965239       0.69460007      -0.46802042
C        0.08394032       0.93916690      -0.72724970
C        0.96223904      -0.07382263      -0.13501386
O        0.51124008      -1.01450354       0.58627594
N        2.27770142       0.13754592      -0.18874096
H       -2.76269630      -0.61433457      -0.49192250
H       -2.56272492       0.33870078       1.04558597
H       -0.81872608      -0.83352194       0.59095376
H        2.91046506      -0.49652299       0.26565663
H        2.60609868       0.97776172      -0.62881691
11
Frame=5 idx=001480 GeodesicLength=0.4662314491681473 rxn_smarts="[C:1]([C:2]#[C:3][C:4](=[O:5])[N:6]([H:10])[H:11])([H:7])([H:8])[H:9]>>[C:1](=[C:2]=[C:3]=[C:4]([O:5][H:9])[N:6]([H:10])[H:11])([H:7])[H:8]"
C       -2.09693762      -0.05014617       0.15237414
C       -1.12592508       0.68824264      -0.48074912
C        0.08278985       0.90507955      -0.73688581
C        0.97376381      -0.09328757      -0.15054676
O        0.53147739      -1.03366606       0.57933744
N        2.28695664       0.14565951      -0.19020140
H       -2.79543559      -0.58089600      -0.49005121
H       -2.56078558       0.35355483       1.04803047
H       -0.82436876      -0.85815658       0.60682761
H        2.92552176      -0.47755620       0.27090343
H        2.60294318       1.00117204      -0.60903878
11
Frame=6 idx=001480 GeodesicLength=0.5594646610929732 rxn_smarts="[C:1]([C:2]#[C:3][C:4](=[O:5])[N:6]([H:10])[H:11])([H:7])([H:8])[H:9]>>[C:1](=[C:2]=[C:3]=[C:4]([O:5][H:9])[N:6]([H:10])[H:11])([H:7])[H:8]"
C       -2.10596772      -0.04562583       0.15239697
C       -1.13198890       0.68275702      -0.49247413
C        0.08160480       0.87145223      -0.74401476
C        0.98564835      -0.11204712      -0.16419653
O        0.55240891      -1.05164487       0.57490939
N        2.29596005       0.15370505      -0.19222563
H       -2.82681789      -0.54603462      -0.49006218
H       -2.55967850       0.36663707       1.04939166
H       -0.83027158      -0.88336655       0.62353020
H        2.94050427      -0.45870244       0.27488440
H        2.59859821       1.02287006      -0.59213937
11
Frame=7 idx=001480 GeodesicLength=0.6528909302440817 rxn_smarts="[C:1]([C:2]#[C:3][C:4](=[O:5])[N:6]([H:10])[H:11])([H:7])([H:8])[H:9]>>[C:1](=[C:2]=[C:3]=[C:4]([O:5][H:9])[N:6]([H:10])[H:11])([H:7])[H:8]"
C       -2.11454841      -0.04057233       0.15240809
C       -1.13771593       0.67664321      -0.50543296
C        0.08011783       0.83433484      -0.75390129
C        0.99802701      -0.13184879      -0.17846556
O        0.57393461      -1.07135932       0.56908594
N        2.30437162       0.16280401      -0.19325307
H       -2.85889372      -0.50814152      -0.48842515
H       -2.55590315       0.38064311       1.05145787
H       -0.83635587      -0.91019386       0.63967383
H        2.95510985      -0.43824562       0.27990102
H        2.59185616       1.04593627      -0.57304872
11
Frame=8 idx=001480 GeodesicLength=0.7461757923899159 rxn_smarts="[C:1]([C:2]#[C:3][C:4](=[O:5])[N:6]([H:10])[H:11])([H:7])([H:8])[H:9]>>[C:1](=[C:2]=[C:3]=[C:4]([O:5][H:9])[N:6]([H:10])[H:11])([H:7])[H:8]"
C       -2.12297789      -0.03562947       0.15174353
C       -1.14310482       0.67150898      -0.51727276
C        0.07857042       0.79723457      -0.76181729
C        1.01072966      -0.15156532      -0.19184765
O        0.59613862      -1.09170670       0.56308319
N        2.31229051       0.17208771      -0.19426555
H       -2.88993511      -0.46753143      -0.48785614
H       -2.55186121       0.39276862       1.05353803
H       -0.84274318      -0.93838804       0.65566137
H        2.96888971      -0.41529814       0.28773135
H        2.58400328       1.06651923      -0.55869808
11
Frame=9 idx=001480 GeodesicLength=0.8394909633095995 rxn_smarts="[C:1]([C:2]#[C:3][C:4](=[O:5])[N:6]([H:10])[H:11])([H:7])([H:8])[H:9]>>[C:1](=[C:2]=[C:3]=[C:4]([O:5][H:9])[N:6]([H:10])[H:11])([H:7])[H:8]"
C       -2.13079942      -0.03009073       0.15086665
C       -1.14794109       0.66552858      -0.53070449
C        0.07668300       0.75624165      -0.77242122
C        1.02393047      -0.17247809      -0.20570742
O        0.61907981      -1.11329461       0.55663470
N        2.31932938       0.18237243      -0.19453417
H       -2.92121542      -0.42356127      -0.48542814
H       -2.54471028       0.40593987       1.05608808
H       -0.84949461      -0.96856016       0.67088649
H        2.98203768      -0.39095098       0.29583517
H        2.57310047       1.08885332      -0.54151565
11
Frame=10 idx=001480 GeodesicLength=0.9328381673131709 rxn_smarts="[C:1]([C:2]#[C:3][C:4](=[O:5])[N:6]([H:10])[H:11])([H:7])([H:8])[H:9]>>[C:1](=[C:2]=[C:3]=[C:4]([O:5][H:9])[N:6]([H:10])[H:11])([H:7])[H:8]"
C       -2.13843178      -0.02451780       0.14916007
C       -1.15231156       0.65978206      -0.54416092
C        0.07465645       0.71412583      -0.78202354
C        1.03753228      -0.19370288      -0.21893291
O        0.64296311      -1.13479635       0.55123885
N        2.32573283       0.19286327      -0.19513130
H       -2.95141483      -0.37691639      -0.48326892
H       -2.53675103       0.41814514       1.05827579
H       -0.85673679      -1.00008279       0.68625189
H        2.99459238      -0.36555540       0.30390964
H        2.56016896       1.11065532      -0.52531864
11
Frame=11 idx=001480 GeodesicLength=1.0263084472457695 rxn_smarts="[C:1]([C:2]#[C:3][C:4](=[O:5])[N:6]([H:10])[H:11])([H:7])([H:8])[H:9]>>[C:1](=[C:2]=[C:3]=[C:4]([O:5][H:9])[N:6]([H:10])[H:11])([H:7])[H:8]"
C       -2.14594842      -0.01895971       0.14636131
C       -1.15613219       0.65447273      -0.55745007
C        0.07239225       0.67099604      -0.78996847
C        1.05149285      -0.21499616      -0.23108500
O        0.66775339      -1.15580281       0.54791553
N        2.33152860       0.20356982      -0.19625185
H       -2.98011763      -0.32772983      -0.48180967
H       -2.52839847       0.42913664       1.05976299
H       -0.86471274      -1.03301381       0.70196680
H        3.00684785      -0.33970196       0.31065555
H        2.54529452       1.13202904      -0.51009712
11
Frame=12 idx=001480 GeodesicLength=1.1197928558878718 rxn_smarts="[C:1]([C:2]#[C:3][C:4](=[O:5])[N:6]([H:10])[H:11])([H:7])([H:8])[H:9]>>[C:1](=[C:2]=[C:3]=[C:4]([O:5][H:9])[N:6]([H:10])[H:11])([H:7])[H:8]"
C       -2.15379925      -0.01381081       0.14205304
C       -1.15953247       0.65027727      -0.56962952
C        0.07000495       0.62881419      -0.79395385
C        1.06566496      -0.23564276      -0.24140023
O        0.69355090      -1.17537793       0.54745144
N        2.33703371       0.21396810      -0.19858318
H       -3.00659376      -0.27704038      -0.48241486
H       -2.52153308       0.43777133       1.05993758
H       -0.87351468      -1.06655464       0.71903158
H        3.01918845      -0.31432324       0.31487307
H        2.52953028       1.15191886      -0.49736507
11
Frame=13 idx=001480 GeodesicLength=1.2133546138828146 rxn_smarts="[C:1]([C:2]#[C:3][C:4](=[O:5])[N:6]([H:10])[H:11])([H:7])([H:8])[H:9]>>[C:1](=[C:2]=[C:3]=[C:4]([O:5][H:9])[N:6]([H:10])[H:11])([H:7])[H:8]"
C       -2.16202344      -0.00898145       0.13624339
C       -1.16248446       0.64707002      -0.58095954
C        0.06741127       0.58741440      -0.79415706
C        1.08001037      -0.25572142      -0.25011530
O        0.72032235      -1.19389751       0.54935158
N        2.34226465       0.22416544      -0.20202395
H       -3.03091034      -0.22497068      -0.48478970
H       -2.51606190       0.44431658       1.05884894
H       -0.88321393      -1.10063358       0.73766858
H        3.03170973      -0.28942807       0.31650345
H        2.51297571       1.17066625      -0.48657039
11
Frame=14 idx=001480 GeodesicLength=1.3069366778575937 rxn_smarts="[C:1]([C:2]#[C:3][C:4](=[O:5])[N:6]([H:10])[H:11])([H:7])([H:8])[H:9]>>[C:1](=[C:2]=[C:3]=[C:4]([O:5][H:9])[N:6]([H:10])[H:11])([H:7])[H:8]"
C       -2.17092638      -0.00466541       0.12868974
C       -1.16507167       0.64522226      -0.59093088
C        0.06463007       0.54789076      -0.78937827
C        1.09440904      -0.27483970      -0.25693025
O        0.74812213      -1.21090673       0.55389836
N        2.34746767       0.23388618      -0.20696691
H       -3.05278278      -0.17230660      -0.48965834
H       -2.51316378       0.44823343       1.05614094
H       -0.89387229      -1.13468341       0.75861438
H        3.04483263      -0.26576854       0.31449900
H        2.49635536       1.18793776      -0.47797777
11
Frame=15 idx=001480 GeodesicLength=1.4005512074984898 rxn_smarts="[C:1]([C:2]#[C:3][C:4](=[O:5])[N:6]([H:10])[H:11])([H:7])([H:8])[H:9]>>[C:1](=[C:2]=[C:3]=[C:4]([O:5][H:9])[N:6]([H:10])[H:11])([H:7])[H:8]"
C       -2.18062305      -0.00087450       0.11929090
C       -1.16729075       0.64486152      -0.59940154
C        0.06161911       0.51059632      -0.77920961
C        1.10877376      -0.29286593      -0.26182748
O        0.77697728      -1.22643354       0.56095211
N        2.35274616       0.24308952      -0.21348786
H       -3.07221542      -0.11937613      -0.49715758
H       -2.51323941       0.44940137       1.05172628
H       -0.90558162      -1.16857597       0.78213862
H        3.05876522      -0.24359378       0.30852338
H        2.48006873       1.20377110      -0.47154722
11
Frame=16 idx=001480 GeodesicLength=1.4941942805945756 rxn_smarts="[C:1]([C:2]#[C:3][C:4](=[O:5])[N:6]([H:10])[H:11])([H:7])([H:8])[H:9]>>[C:1](=[C:2]=[C:3]=[C:4]([O:5][H:9])[N:6]([H:10])[H:11])([H:7])[H:8]"
C       -2.19126827       0.00232425       0.10792815
C       -1.16917623       0.64615786      -0.60611083
C        0.05839438       0.47622824      -0.76293495
C        1.12300425      -0.30961267      -0.26483205
O        0.80695722      -1.24050910       0.57019735
N        2.35824727       0.25164248      -0.22176065
H       -3.08918092      -0.06676513      -0.50759375
H       -2.51695945       0.44764128       1.04541139
H       -0.91837410      -1.20191587       0.80880194
H        3.07371410      -0.22328029       0.29813984
H        2.46464176       1.21808894      -0.46724643
