16
Frame=0 idx=000668 GeodesicLength=0.0 rxn_smarts="[C:1]([C:2]([C:3]([H:10])([H:11])[H:12])([C:4]([H:13])([H:14])[H:15])[C:5]#[C:6][H:16])([H:7])([H:8])[H:9]>>[C:1]([C+:2]([C:3]([H:10])([H:11])[H:12])[C:5]([C:4]([H:13])([H:14])[H:15])=[C-:6][H:16])([H:7])([H:8])[H:9]"
C       -1.04369297       1.06493711      -0.80804609
C       -0.14083027       0.46432151       0.21293057
C       -0.61956214       0.38894742       1.61937272
C        0.37445434      -1.28748668      -0.87409777
C        1.13587626      -0.01178328      -0.07211246
C        2.40385496       0.08437370       0.24518259
H       -1.24237713       2.09098287      -0.48035235
H       -2.01315185       0.55918440      -0.85748335
H       -0.58985721       1.10337255      -1.79507353
H        0.12137740       0.92167709       2.22910868
H       -1.61491998       0.81020176       1.76080906
H       -0.61318376      -0.64216655       1.97747165
H       -0.61518821      -1.62573349      -0.55853763
H        0.35352337      -1.06544228      -1.93755834
H        1.08303329      -2.07608873      -0.64128463
H        3.02064387      -0.77929739      -0.02032907
16
Frame=1 idx=000668 GeodesicLength=0.057214181860213195 rxn_smarts="[C:1]([C:2]([C:3]([H:10])([H:11])[H:12])([C:4]([H:13])([H:14])[H:15])[C:5]#[C:6][H:16])([H:7])([H:8])[H:9]>>[C:1]([C+:2]([C:3]([H:10])([H:11])[H:12])[C:5]([C:4]([H:13])([H:14])[H:15])=[C-:6][H:16])([H:7])([H:8])[H:9]"
C       -1.04937286       1.05687161      -0.80799219
C       -0.14406366       0.45040256       0.20864999
C       -0.61390535       0.38956981       1.61896978
C        0.37188802      -1.28810249      -0.87360429
C        1.14177428       0.00154797      -0.08063231
C        2.40484317       0.10409390       0.24900491
H       -1.24409728       2.08405867      -0.48267838
H       -2.01892793       0.55084108      -0.85232987
H       -0.60333179       1.09048998      -1.79891035
H        0.15571770       0.85979425       2.24301963
H       -1.57453691       0.87994071       1.77794394
H       -0.68471293      -0.64630594       1.95586462
H       -0.62060557      -1.63551689      -0.57767687
H        0.36263005      -1.07166982      -1.93885877
H        1.07760322      -2.07728965      -0.63249681
H        3.03909784      -0.74872576      -0.00827302
16
Frame=2 idx=000668 GeodesicLength=0.11439144230009154 rxn_smarts="[C:1]([C:2]([C:3]([H:10])([H:11])[H:12])([C:4]([H:13])([H:14])[H:15])[C:5]#[C:6][H:16])([H:7])([H:8])[H:9]>>[C:1]([C+:2]([C:3]([H:10])([H:11])[H:12])[C:5]([C:4]([H:13])([H:14])[H:15])=[C-:6][H:16])([H:7])([H:8])[H:9]"
C       -1.05498162       1.04864889      -0.80765277
C       -0.14704751       0.43628061       0.20448851
C       -0.60820681       0.38970792       1.61852347
C        0.36921855      -1.28901820      -0.87296914
C        1.14740813       0.01477517      -0.08900940
C        2.40538235       0.12425718       0.25295130
H       -1.24572214       2.07695289      -0.48469191
H       -2.02465396       0.54242306      -0.84676488
H       -0.61687804       1.07736310      -1.80243008
H        0.18671907       0.79303744       2.25619718
H       -1.52791936       0.94842262       1.79427690
H       -0.75929066      -0.64427635       1.93432204
H       -0.62572247      -1.64554114      -0.59678563
H        0.37183009      -1.07811432      -1.93984396
H        1.07210508      -2.07862039      -0.62345032
H        3.05775929      -0.71629846       0.00283868
16
Frame=3 idx=000668 GeodesicLength=0.17154254603669802 rxn_smarts="[C:1]([C:2]([C:3]([H:10])([H:11])[H:12])([C:4]([H:13])([H:14])[H:15])[C:5]#[C:6][H:16])([H:7])([H:8])[H:9]>>[C:1]([C+:2]([C:3]([H:10])([H:11])[H:12])[C:5]([C:4]([H:13])([H:14])[H:15])=[C-:6][H:16])([H:7])([H:8])[H:9]"
C       -1.06067665       1.04025891      -0.80703857
C       -0.14982808       0.42193873       0.20031933
C       -0.60233860       0.38933144       1.61798159
C        0.36647007      -1.29017433      -0.87238506
C        1.15276078       0.02800721      -0.09745801
C        2.40538182       0.14491926       0.25705274
H       -1.24750662       2.06960114      -0.48628308
H       -2.03043503       0.53382325      -0.84078774
H       -0.63070465       1.06407450      -1.80566058
H        0.21409058       0.72150360       2.26814285
H       -1.47465406       1.01506942       1.80988250
H       -0.83608572      -0.63545688       1.91298544
H       -0.63044487      -1.65581374      -0.61588472
H        0.38103021      -1.08466847      -1.94069400
H        1.06662214      -2.07999587      -0.61442721
H        3.07631868      -0.68241816       0.01425452
16
Frame=4 idx=000668 GeodesicLength=0.22870563121815551 rxn_smarts="[C:1]([C:2]([C:3]([H:10])([H:11])[H:12])([C:4]([H:13])([H:14])[H:15])[C:5]#[C:6][H:16])([H:7])([H:8])[H:9]>>[C:1]([C+:2]([C:3]([H:10])([H:11])[H:12])[C:5]([C:4]([H:13])([H:14])[H:15])=[C-:6][H:16])([H:7])([H:8])[H:9]"
C       -1.06646865       1.03168415      -0.80612052
C       -0.15249069       0.40720900       0.19613821
C       -0.59631045       0.38841160       1.61738175
C        0.36364561      -1.29160433      -0.87199002
C        1.15777948       0.04113691      -0.10590522
C        2.40469210       0.16587816       0.26168038
H       -1.24952565       2.06193028      -0.48726425
H       -2.03626214       0.52499581      -0.83449357
H       -0.64474223       1.05074953      -1.80853221
H        0.23725372       0.64579197       2.27843108
H       -1.41463649       1.07916556       1.82454965
H       -0.91431937      -0.61921696       1.89238351
H       -0.63474528      -1.66639736      -0.63502855
H        0.39021806      -1.09121817      -1.94152056
H        1.06120495      -2.08146368      -0.60572924
H        3.09470704      -0.64705247       0.02601956
16
Frame=5 idx=000668 GeodesicLength=0.2859439291962817 rxn_smarts="[C:1]([C:2]([C:3]([H:10])([H:11])[H:12])([C:4]([H:13])([H:14])[H:15])[C:5]#[C:6][H:16])([H:7])([H:8])[H:9]>>[C:1]([C+:2]([C:3]([H:10])([H:11])[H:12])[C:5]([C:4]([H:13])([H:14])[H:15])=[C-:6][H:16])([H:7])([H:8])[H:9]"
C       -1.07233993       1.02303640      -0.80499916
C       -0.15501301       0.39232651       0.19187719
C       -0.59022373       0.38699512       1.61661901
C        0.36069198      -1.29328440      -0.87154836
C        1.16247637       0.05429451      -0.11434403
C        2.40318194       0.18690953       0.26737039
H       -1.25184934       2.05402261      -0.48771793
H       -2.04208881       0.51600267      -0.82804698
H       -0.65894133       1.03737760      -1.81112662
H        0.25573618       0.56565319       2.28670461
H       -1.34790478       1.13984669       1.83848338
H       -0.99302359      -0.59524894       1.87211734
H       -0.63873535      -1.67715182      -0.65401155
H        0.39941601      -1.09791295      -1.94210710
H        1.05565162      -2.08303364      -0.59684386
H        3.11296576      -0.60983308       0.03757369
16
Frame=6 idx=000668 GeodesicLength=0.34332826168112995 rxn_smarts="[C:1]([C:2]([C:3]([H:10])([H:11])[H:12])([C:4]([H:13])([H:14])[H:15])[C:5]#[C:6][H:16])([H:7])([H:8])[H:9]>>[C:1]([C+:2]([C:3]([H:10])([H:11])[H:12])[C:5]([C:4]([H:13])([H:14])[H:15])=[C-:6][H:16])([H:7])([H:8])[H:9]"
C       -1.07832523       1.01426912      -0.80358799
C       -0.15752912       0.37694699       0.18753395
C       -0.58397537       0.38506611       1.61578943
C        0.35758725      -1.29525254      -0.87147124
C        1.16676452       0.06723252      -0.12270305
C        2.40069241       0.20777916       0.27427462
H       -1.25455849       2.04575769      -0.48728509
H       -2.04793536       0.50676644      -0.82150641
H       -0.67323470       1.02422463      -1.81331964
H        0.26907298       0.48320111       2.29244061
H       -1.27495871       1.19599245       1.85119740
H       -1.07059129      -0.56330144       1.85331430
H       -0.64240997      -1.68817995      -0.67317452
H        0.40856905      -1.10446070      -1.94281558
H        1.05003090      -2.08479965      -0.58855467
H        3.13080113      -0.57124195       0.04986788
16
Frame=7 idx=000668 GeodesicLength=0.40083627545201245 rxn_smarts="[C:1]([C:2]([C:3]([H:10])([H:11])[H:12])([C:4]([H:13])([H:14])[H:15])[C:5]#[C:6][H:16])([H:7])([H:8])[H:9]>>[C:1]([C+:2]([C:3]([H:10])([H:11])[H:12])[C:5]([C:4]([H:13])([H:14])[H:15])=[C-:6][H:16])([H:7])([H:8])[H:9]"
C       -1.08445972       1.00546742      -0.80192943
C       -0.16008549       0.36110795       0.18301767
C       -0.57755570       0.38268840       1.61481540
C        0.35423696      -1.29746524      -0.87190174
C        1.17060032       0.07994094      -0.13104651
C        2.39709748       0.22828764       0.28249527
H       -1.25773114       2.03717659      -0.48587620
H       -2.05380822       0.49731934      -0.81498946
H       -0.68761245       1.01146534      -1.81513960
H        0.27725389       0.40026413       2.29515195
H       -1.19679251       1.24639500       1.86263781
H       -1.14488867      -0.52391711       1.83638542
H       -0.64590280      -1.69937134      -0.69269171
H        0.41762218      -1.11076547      -1.94377563
H        1.04416270      -2.08679795      -0.58099697
H        3.14786317      -0.53179566       0.06384374
16
Frame=8 idx=000668 GeodesicLength=0.4585935260026421 rxn_smarts="[C:1]([C:2]([C:3]([H:10])([H:11])[H:12])([C:4]([H:13])([H:14])[H:15])[C:5]#[C:6][H:16])([H:7])([H:8])[H:9]>>[C:1]([C+:2]([C:3]([H:10])([H:11])[H:12])[C:5]([C:4]([H:13])([H:14])[H:15])=[C-:6][H:16])([H:7])([H:8])[H:9]"
C       -1.09071662       0.99664215      -0.80001591
C       -0.16270115       0.34476350       0.17833581
C       -0.57092977       0.37995132       1.61372192
C        0.35057262      -1.29992521      -0.87296787
C        1.17396826       0.09230323      -0.13930407
C        2.39236545       0.24832328       0.29198782
H       -1.26132849       2.02827796      -0.48341969
H       -2.05968771       0.48766337      -0.80852593
H       -0.70200520       0.99920236      -1.81657366
H        0.28048246       0.31846369       2.29487146
H       -1.11453913       1.29032706       1.87248358
H       -1.21461056      -0.47770970       1.82171304
H       -0.64932705      -1.71068165      -0.71275897
H        0.42653494      -1.11672811      -1.94510286
H        1.03794732      -2.08910342      -0.57440060
H        3.16397464      -0.49176982       0.07995594
16
Frame=9 idx=000668 GeodesicLength=0.5167043751638413 rxn_smarts="[C:1]([C:2]([C:3]([H:10])([H:11])[H:12])([C:4]([H:13])([H:14])[H:15])[C:5]#[C:6][H:16])([H:7])([H:8])[H:9]>>[C:1]([C+:2]([C:3]([H:10])([H:11])[H:12])[C:5]([C:4]([H:13])([H:14])[H:15])=[C-:6][H:16])([H:7])([H:8])[H:9]"
C       -1.09662859       0.98801360      -0.79794029
C       -0.16528948       0.32818173       0.17374351
C       -0.56463077       0.37691747       1.61257250
C        0.34647678      -1.30280312      -0.87390703
C        1.17695633       0.10405867      -0.14676694
C        2.38645587       0.26697401       0.30387388
H       -1.26477223       2.01934072      -0.48016910
H       -2.06520303       0.47822150      -0.80241139
H       -0.71569960       0.98731987      -1.81761584
H        0.27810841       0.23755912       2.29217232
H       -1.02961168       1.32739205       1.88092568
H       -1.27984793      -0.42529505       1.80839922
H       -0.65299458      -1.72193526      -0.73302057
H        0.43560015      -1.12279498      -1.94602944
H        1.03089030      -2.09204115      -0.56753734
H        3.18019006      -0.44910917       0.09371081
16
Frame=10 idx=000668 GeodesicLength=0.5751787099049542 rxn_smarts="[C:1]([C:2]([C:3]([H:10])([H:11])[H:12])([C:4]([H:13])([H:14])[H:15])[C:5]#[C:6][H:16])([H:7])([H:8])[H:9]>>[C:1]([C+:2]([C:3]([H:10])([H:11])[H:12])[C:5]([C:4]([H:13])([H:14])[H:15])=[C-:6][H:16])([H:7])([H:8])[H:9]"
C       -1.10255908       0.97945631      -0.79566417
C       -0.16789171       0.31125192       0.16899950
C       -0.55816024       0.37370450       1.61128494
C        0.34192189      -1.30592129      -0.87547346
C        1.17952350       0.11533880      -0.15403582
C        2.37946638       0.28489748       0.31680084
H       -1.26842101       2.01022659      -0.47600573
H       -2.07065525       0.46871396      -0.79635035
H       -0.72927924       0.97597906      -1.81833557
H        0.27158087       0.16024854       2.28684353
H       -0.94315674       1.35727524       1.88764923
H       -1.33848794      -0.36800965       1.79733621
H       -0.65683817      -1.73312245      -0.75403471
H        0.44450566      -1.12854380      -1.94729559
H        1.02315556      -2.09542429      -0.56156981
H        3.19529552      -0.40607093       0.10985096
16
Frame=11 idx=000668 GeodesicLength=0.6340131413993643 rxn_smarts="[C:1]([C:2]([C:3]([H:10])([H:11])[H:12])([C:4]([H:13])([H:14])[H:15])[C:5]#[C:6][H:16])([H:7])([H:8])[H:9]>>[C:1]([C+:2]([C:3]([H:10])([H:11])[H:12])[C:5]([C:4]([H:13])([H:14])[H:15])=[C-:6][H:16])([H:7])([H:8])[H:9]"
C       -1.10829114       0.97106814      -0.79322171
C       -0.17043638       0.29411487       0.16422165
C       -0.55172012       0.37035045       1.60989443
C        0.33682660      -1.30933522      -0.87740105
C        1.18174579       0.12600610      -0.16084426
C        2.37149112       0.30175249       0.33092980
H       -1.27193117       2.00109319      -0.47110652
H       -2.07589261       0.45936067      -0.79038728
H       -0.74245723       0.96513079      -1.81874605
H        0.26120980       0.08708792       2.27946139
H       -0.85659388       1.38003966       1.89273425
H       -1.39038210      -0.30698618       1.78805278
H       -0.66102680      -1.74412959      -0.77572160
H        0.45332997      -1.13414479      -1.94862696
H        1.01448530      -2.09940238      -0.55607956
H        3.20964284      -0.36200614       0.12684069
16
Frame=12 idx=000668 GeodesicLength=0.6932507540926237 rxn_smarts="[C:1]([C:2]([C:3]([H:10])([H:11])[H:12])([C:4]([H:13])([H:14])[H:15])[C:5]#[C:6][H:16])([H:7])([H:8])[H:9]>>[C:1]([C+:2]([C:3]([H:10])([H:11])[H:12])[C:5]([C:4]([H:13])([H:14])[H:15])=[C-:6][H:16])([H:7])([H:8])[H:9]"
C       -1.11380933       0.96284520      -0.79062458
C       -0.17288312       0.27683546       0.15941694
C       -0.54528745       0.36691386       1.60839648
C        0.33116691      -1.31302653      -0.87969992
C        1.18367208       0.13605353      -0.16722775
C        2.36264912       0.31762235       0.34590882
H       -1.27519892       1.99198642      -0.46561085
H       -2.08092241       0.45019692      -0.78442526
H       -0.75526688       0.95472269      -1.81888330
H        0.24769267       0.01851852       2.27042384
H       -0.77084257       1.39606016       1.89621399
H       -1.43538675      -0.24318255       1.78035841
H       -0.66559130      -1.75490234      -0.79811691
H        0.46203895      -1.13962008      -1.95002651
H        1.00483358      -2.10398043      -0.55109348
H        3.22313543      -0.31704317       0.14499008
16
Frame=13 idx=000668 GeodesicLength=0.7529374685287046 rxn_smarts="[C:1]([C:2]([C:3]([H:10])([H:11])[H:12])([C:4]([H:13])([H:14])[H:15])[C:5]#[C:6][H:16])([H:7])([H:8])[H:9]>>[C:1]([C+:2]([C:3]([H:10])([H:11])[H:12])[C:5]([C:4]([H:13])([H:14])[H:15])=[C-:6][H:16])([H:7])([H:8])[H:9]"
C       -1.11887778       0.95492076      -0.78792958
C       -0.17511370       0.25963651       0.15468417
C       -0.53903841       0.36337799       1.60682113
C        0.32487210      -1.31706675      -0.88197113
C        1.18543040       0.14539585      -0.17297720
C        2.35308192       0.33216317       0.36192570
H       -1.27785190       1.98311032      -0.45975228
H       -2.08558144       0.44150100      -0.77847040
H       -0.76746431       0.94461847      -1.81879834
H        0.23106979      -0.04604875       2.26018780
H       -0.68679701       1.40567964       1.89850632
H       -1.47397401      -0.17735221       1.77339705
H       -0.67067558      -1.76533179      -0.82096365
H        0.47070558      -1.14527994      -1.95109215
H        0.99393388      -2.10928864      -0.54597101
H        3.23628047      -0.27003563       0.16240357
16
Frame=14 idx=000668 GeodesicLength=0.8130328015303135 rxn_smarts="[C:1]([C:2]([C:3]([H:10])([H:11])[H:12])([C:4]([H:13])([H:14])[H:15])[C:5]#[C:6][H:16])([H:7])([H:8])[H:9]>>[C:1]([C+:2]([C:3]([H:10])([H:11])[H:12])[C:5]([C:4]([H:13])([H:14])[H:15])=[C-:6][H:16])([H:7])([H:8])[H:9]"
C       -1.12363330       0.94723629      -0.78513691
C       -0.17708417       0.24254394       0.14993294
C       -0.53275123       0.35977323       1.60514370
C        0.31793325      -1.32137261      -0.88445827
C        1.18707465       0.15413309      -0.17840175
C        2.34298720       0.34579710       0.37821649
H       -1.27997494       1.97444404      -0.45362404
H       -2.09000695       0.43318431      -0.77232110
H       -0.77933570       0.93480304      -1.81856073
H        0.21243538      -0.10586962       2.24906172
H       -0.60513908       1.40946889       1.89957870
H       -1.50587374      -0.11056423       1.76718863
H       -0.67625520      -1.77539612      -0.84437613
H        0.47915831      -1.15102680      -1.95208251
H        0.98186097      -2.11522434      -0.54109313
H        3.24860456      -0.22193020       0.18093238
16
Frame=15 idx=000668 GeodesicLength=0.8732797850002078 rxn_smarts="[C:1]([C:2]([C:3]([H:10])([H:11])[H:12])([C:4]([H:13])([H:14])[H:15])[C:5]#[C:6][H:16])([H:7])([H:8])[H:9]>>[C:1]([C+:2]([C:3]([H:10])([H:11])[H:12])[C:5]([C:4]([H:13])([H:14])[H:15])=[C-:6][H:16])([H:7])([H:8])[H:9]"
C       -1.12800678       0.93980946      -0.78224796
C       -0.17881994       0.22554381       0.14519025
C       -0.52654130       0.35616045       1.60332774
C        0.31033262      -1.32593178      -0.88718630
C        1.18859977       0.16220600      -0.18344990
C        2.33243199       0.35842593       0.39462163
H       -1.28141581       1.96604944      -0.44734166
H       -2.09414008       0.42533980      -0.76601715
H       -0.79073051       0.92534026      -1.81813031
H        0.19260663      -0.16036312       2.23735499
H       -0.52673266       1.40813569       1.89941432
H       -1.53115417      -0.04411941       1.76181856
H       -0.68231751      -1.78505988      -0.86834043
H        0.48735885      -1.15685449      -1.95298386
H        0.96857569      -2.12180417      -0.53656540
H        3.25995322      -0.17287800       0.20053548
16
Frame=16 idx=000668 GeodesicLength=0.9340425739011998 rxn_smarts="[C:1]([C:2]([C:3]([H:10])([H:11])[H:12])([C:4]([H:13])([H:14])[H:15])[C:5]#[C:6][H:16])([H:7])([H:8])[H:9]>>[C:1]([C+:2]([C:3]([H:10])([H:11])[H:12])[C:5]([C:4]([H:13])([H:14])[H:15])=[C-:6][H:16])([H:7])([H:8])[H:9]"
C       -1.13185677       0.93271976      -0.77931307
C       -0.18017802       0.20884933       0.14049412
C       -0.52041864       0.35242740       1.60142255
C        0.30205651      -1.33082028      -0.88976152
C        1.19016368       0.16962846      -0.18808999
C        2.32156561       0.36993061       0.41125874
H       -1.28200215       1.95803556      -0.44105161
H       -2.09787921       0.41811385      -0.75947224
H       -0.80163981       0.91598037      -1.81759686
H        0.17103572      -0.21147211       2.22518977
H       -0.45111504       1.40202720       1.89872215
H       -1.55091698       0.02246855       1.75617761
H       -0.68893170      -1.79426845      -0.89254799
H        0.49539943      -1.16312862      -1.95341505
H        0.95392838      -2.12908385      -0.53172026
H        3.27078899      -0.12140778       0.21970365
