11
Frame=0 idx=004746 GeodesicLength=0.0 rxn_smarts="[N:1]([C:2](=[O:3])[N:4](/[C:5](=[N:6]/[H:11])[H:10])[H:9])([H:7])[H:8]>>[N:1]([C+:2]([O:3][H:9])[N-:4][C+:5]([N-:6][H:11])[H:10])([H:7])[H:8]"
N       -1.69783206      -0.01416801      -0.57382129
C       -0.89879819      -0.53759417       0.35764885
O       -1.29940303      -1.37527056       1.23675395
N        0.39619279      -0.34467849       0.58797760
C        1.27605965       0.43987364      -0.10829411
N        2.49664729       0.53209903       0.21109119
H       -2.66638016      -0.27393245      -0.58207509
H       -1.36526079       0.66424094      -1.23148565
H       -0.05817988      -1.22166279       1.49119828
H        0.83602622       0.97523284      -0.96380022
H        2.98092816       1.15586005      -0.42519347
11
Frame=1 idx=004746 GeodesicLength=0.050331855680808474 rxn_smarts="[N:1]([C:2](=[O:3])[N:4](/[C:5](=[N:6]/[H:11])[H:10])[H:9])([H:7])[H:8]>>[N:1]([C+:2]([O:3][H:9])[N-:4][C+:5]([N-:6][H:11])[H:10])([H:7])[H:8]"
N       -1.70390115      -0.03267368      -0.58589543
C       -0.90864142      -0.49419138       0.38233580
O       -1.31507853      -1.30639662       1.28254475
N        0.40834527      -0.39693360       0.53054253
C        1.27564187       0.45730175      -0.09516917
N        2.50760522       0.49466397       0.19003794
H       -2.67447778      -0.28484418      -0.57551115
H       -1.36419304       0.59310661      -1.29031147
H       -0.03651194      -1.25469285       1.46181342
H        0.82096296       1.07645196      -0.88335518
H        2.99024854       1.14820802      -0.41703206
11
Frame=2 idx=004746 GeodesicLength=0.10361619340512593 rxn_smarts="[N:1]([C:2](=[O:3])[N:4](/[C:5](=[N:6]/[H:11])[H:10])[H:9])([H:7])[H:8]>>[N:1]([C+:2]([O:3][H:9])[N-:4][C+:5]([N-:6][H:11])[H:10])([H:7])[H:8]"
N       -1.71143304      -0.04588859      -0.59357831
C       -0.91399694      -0.45539924       0.39787322
O       -1.32227093      -1.24033755       1.32110625
N        0.41215403      -0.42919362       0.48252989
C        1.27643994       0.46838939      -0.08440730
N        2.51608131       0.45936313       0.16775180
H       -2.68188496      -0.29730696      -0.56784460
H       -1.36519688       0.52332844      -1.34140348
H       -0.01893559      -1.28501295       1.42754704
H        0.81122802       1.15984778      -0.80263431
H        2.99781504       1.14221017      -0.40694020
11
Frame=3 idx=004746 GeodesicLength=0.1584240993498142 rxn_smarts="[N:1]([C:2](=[O:3])[N:4](/[C:5](=[N:6]/[H:11])[H:10])[H:9])([H:7])[H:8]>>[N:1]([C+:2]([O:3][H:9])[N-:4][C+:5]([N-:6][H:11])[H:10])([H:7])[H:8]"
N       -1.72081309      -0.05230495      -0.59673742
C       -0.91718778      -0.42014772       0.40791347
O       -1.32405608      -1.18115555       1.35147586
N        0.41159318      -0.44779673       0.44350626
C        1.27851840       0.47490111      -0.07805415
N        2.52244898       0.42943719       0.14728137
H       -2.68868978      -0.31203680      -0.55980352
H       -1.36904923       0.45829939      -1.38330068
H       -0.00582239      -1.31239089       1.39235995
H        0.80791769       1.22479438      -0.73059628
H        3.00514009       1.13840056      -0.39404486
11
Frame=4 idx=004746 GeodesicLength=0.214058324792275 rxn_smarts="[N:1]([C:2](=[O:3])[N:4](/[C:5](=[N:6]/[H:11])[H:10])[H:9])([H:7])[H:8]>>[N:1]([C+:2]([O:3][H:9])[N-:4][C+:5]([N-:6][H:11])[H:10])([H:7])[H:8]"
N       -1.73135982      -0.05551960      -0.59820201
C       -0.91896862      -0.38755629       0.41383997
O       -1.32204570      -1.12693995       1.37597007
N        0.40911847      -0.46000765       0.40785283
C        1.28145291       0.47873343      -0.07566073
N        2.52751168       0.40341761       0.12864760
H       -2.69584530      -0.32579250      -0.54945251
H       -1.37611634       0.39487559      -1.41930683
H        0.00443418      -1.33575786       1.35784385
H        0.80893208       1.27812177      -0.66438464
H        3.01288645       1.13642545      -0.37714759
11
Frame=5 idx=004746 GeodesicLength=0.2703076730957683 rxn_smarts="[N:1]([C:2](=[O:3])[N:4](/[C:5](=[N:6]/[H:11])[H:10])[H:9])([H:7])[H:8]>>[N:1]([C+:2]([O:3][H:9])[N-:4][C+:5]([N-:6][H:11])[H:10])([H:7])[H:8]"
N       -1.74237058      -0.05821380      -0.59979737
C       -0.91980023      -0.35659603       0.41653822
O       -1.31725434      -1.07551450       1.39630008
N        0.40550801      -0.46793992       0.37402668
C        1.28476067       0.48148002      -0.07609579
N        2.53169099       0.37975637       0.11043891
H       -2.70348465      -0.33760068      -0.53673240
H       -1.38575284       0.33060175      -1.45133900
H        0.01265449      -1.35595221       1.32359018
H        0.81288682       1.32492070      -0.59969039
H        3.02116166       1.13505831      -0.35723911
11
Frame=6 idx=004746 GeodesicLength=0.32711049028062916 rxn_smarts="[N:1]([C:2](=[O:3])[N:4](/[C:5](=[N:6]/[H:11])[H:10])[H:9])([H:7])[H:8]>>[N:1]([C+:2]([O:3][H:9])[N-:4][C+:5]([N-:6][H:11])[H:10])([H:7])[H:8]"
N       -1.75343957      -0.06165587      -0.60236304
C       -0.91999530      -0.32677519       0.41641545
O       -1.31037572      -1.02581165       1.41322071
N        0.40116090      -0.47247566       0.34147177
C        1.28813827       0.48429186      -0.07824814
N        2.53518638       0.35755823       0.09128999
H       -2.71154115      -0.34726358      -0.52224925
H       -1.39743840       0.26428343      -1.48029879
H        0.01932388      -1.37324563       1.28964495
H        0.81906412       1.36769314      -0.53337113
H        3.02991658       1.13340092      -0.33551252
11
Frame=7 idx=004746 GeodesicLength=0.3843517017281362 rxn_smarts="[N:1]([C:2](=[O:3])[N:4](/[C:5](=[N:6]/[H:11])[H:10])[H:9])([H:7])[H:8]>>[N:1]([C+:2]([O:3][H:9])[N-:4][C+:5]([N-:6][H:11])[H:10])([H:7])[H:8]"
N       -1.76432960      -0.06618665      -0.60619741
C       -0.91983876      -0.29788008       0.41375041
O       -1.30209525      -0.97762452       1.42689215
N        0.39631446      -0.47400142       0.31011250
C        1.29135171       0.48806505      -0.08097869
N        2.53800542       0.33658774       0.07024018
H       -2.71987149      -0.35466929      -0.50677589
H       -1.41059576       0.19522040      -1.50652563
H        0.02485539      -1.38771329       1.25629964
H        0.82717404       1.40741919      -0.46346832
H        3.03902984       1.13078288      -0.31334894
11
Frame=8 idx=004746 GeodesicLength=0.4419041881549784 rxn_smarts="[N:1]([C:2](=[O:3])[N:4](/[C:5](=[N:6]/[H:11])[H:10])[H:9])([H:7])[H:8]>>[N:1]([C+:2]([O:3][H:9])[N-:4][C+:5]([N-:6][H:11])[H:10])([H:7])[H:8]"
N       -1.77508078      -0.07168520      -0.61119648
C       -0.91950700      -0.26966909       0.40876519
O       -1.29278133      -0.93077064       1.43747797
N        0.39113498      -0.47290231       0.27955521
C        1.29434722       0.49309683      -0.08391495
N        2.54005908       0.31744308       0.04804097
H       -2.72843012      -0.35984240      -0.49071677
H       -1.42518503       0.12334039      -1.52985176
H        0.02969053      -1.39968726       1.22332541
H        0.83726780       1.44379328      -0.38999527
H        3.04848467       1.12688332      -0.29148950
11
Frame=9 idx=004746 GeodesicLength=0.4997610003973933 rxn_smarts="[N:1]([C:2](=[O:3])[N:4](/[C:5](=[N:6]/[H:11])[H:10])[H:9])([H:7])[H:8]>>[N:1]([C+:2]([O:3][H:9])[N-:4][C+:5]([N-:6][H:11])[H:10])([H:7])[H:8]"
N       -1.78555265      -0.07834556      -0.61755527
C       -0.91920396      -0.24190886       0.40159299
O       -1.28294740      -0.88473705       1.44522448
N        0.38571102      -0.46934388       0.24978868
C        1.29704147       0.49973530      -0.08637340
N        2.54131545       0.29992121       0.02367631
H       -2.73701349      -0.36307264      -0.47483390
H       -1.44079700       0.04843052      -1.55019738
H        0.03397596      -1.40921279       1.19085847
H        0.84932402       1.47690128      -0.31140513
H        3.05814657       1.12163246      -0.27077583
11
Frame=10 idx=004746 GeodesicLength=0.5579317023915019 rxn_smarts="[N:1]([C:2](=[O:3])[N:4](/[C:5](=[N:6]/[H:11])[H:10])[H:9])([H:7])[H:8]>>[N:1]([C+:2]([O:3][H:9])[N-:4][C+:5]([N-:6][H:11])[H:10])([H:7])[H:8]"
N       -1.79568466      -0.08625906      -0.62535398
C       -0.91907905      -0.21436724       0.39231280
O       -1.27296105      -0.83903977       1.45032252
N        0.38010590      -0.46348784       0.22070298
C        1.29939803       0.50811726      -0.08796246
N        2.54166748       0.28413984      -0.00355495
H       -2.74551293      -0.36447721      -0.45964242
H       -1.45715902      -0.02966698      -1.56733407
H        0.03783717      -1.41637272       1.15890184
H        0.86348620       1.50621688      -0.22684999
H        3.06790191       1.11519684      -0.25154227
11
Frame=11 idx=004746 GeodesicLength=0.6164493115036451 rxn_smarts="[N:1]([C:2](=[O:3])[N:4](/[C:5](=[N:6]/[H:11])[H:10])[H:9])([H:7])[H:8]>>[N:1]([C+:2]([O:3][H:9])[N-:4][C+:5]([N-:6][H:11])[H:10])([H:7])[H:8]"
N       -1.80545607      -0.09550958      -0.63462663
C       -0.91923899      -0.18681784       0.38093704
O       -1.26308795      -0.79314889       1.45292882
N        0.37436238      -0.45548633       0.19212889
C        1.30140598       0.51826239      -0.08845052
N        2.54096170       0.27043223      -0.03411151
H       -2.75383929      -0.36424966      -0.44557895
H       -1.47409472      -0.11089066      -1.58092756
H        0.04137119      -1.42119790       1.12744745
H        0.87996816       1.53082677      -0.13578461
H        3.07764761       1.10777948      -0.23396242
11
Frame=12 idx=004746 GeodesicLength=0.6753746915252848 rxn_smarts="[N:1]([C:2](=[O:3])[N:4](/[C:5](=[N:6]/[H:11])[H:10])[H:9])([H:7])[H:8]>>[N:1]([C+:2]([O:3][H:9])[N-:4][C+:5]([N-:6][H:11])[H:10])([H:7])[H:8]"
N       -1.81487335      -0.10618213      -0.64535649
C       -0.91975577      -0.15902780       0.36743012
O       -1.25350501      -0.74649523       1.45316505
N        0.36850702      -0.44546902       0.16386153
C        1.30306319       0.53012764      -0.08771410
N        2.53900932       0.25928601      -0.06831451
H       -2.76192313      -0.36263273      -0.43299031
H       -1.49147806      -0.19503584      -1.59058049
H        0.04464888      -1.42368074       1.09647505
H        0.89902530       1.54949239      -0.03797663
H        3.08728161       1.09961744      -0.21799921
11
Frame=13 idx=004746 GeodesicLength=0.734693170830638 rxn_smarts="[N:1]([C:2](=[O:3])[N:4](/[C:5](=[N:6]/[H:11])[H:10])[H:9])([H:7])[H:8]>>[N:1]([C+:2]([O:3][H:9])[N-:4][C+:5]([N-:6][H:11])[H:10])([H:7])[H:8]"
N       -1.82394685      -0.11823599      -0.65737572
C       -0.92065407      -0.13085593       0.35180628
O       -1.24433249      -0.69879313       1.45108027
N        0.36257595      -0.43359259       0.13572889
C        1.30438913       0.54357445      -0.08565377
N        2.53566224       0.25141575      -0.10572397
H       -2.76971407      -0.35975867      -0.42208158
H       -1.50920194      -0.28151529      -1.59578806
H        0.04778062      -1.42392721       1.06592149
H        0.92077075       1.56068955       0.06565600
H        3.09667073       1.09099906      -0.20356983
11
Frame=14 idx=004746 GeodesicLength=0.7943255876580514 rxn_smarts="[N:1]([C:2](=[O:3])[N:4](/[C:5](=[N:6]/[H:11])[H:10])[H:9])([H:7])[H:8]>>[N:1]([C+:2]([O:3][H:9])[N-:4][C+:5]([N-:6][H:11])[H:10])([H:7])[H:8]"
N       -1.83265741      -0.13152457      -0.67039248
C       -0.92191471      -0.10226639       0.33416916
O       -1.23566345      -0.65000689       1.44672697
N        0.35662038      -0.42006893       0.10764710
C        1.30542043       0.55834632      -0.08218028
N        2.53087787       0.24750665      -0.14538205
H       -2.77715046      -0.35570063      -0.41295904
H       -1.52711125      -0.36937997      -1.59604255
H        0.05089046      -1.42217513       1.03572680
H        0.94504380       1.56298876       0.17321998
H        3.10564435       1.08228078      -0.19053360
11
Frame=15 idx=004746 GeodesicLength=0.8542119777094311 rxn_smarts="[N:1]([C:2](=[O:3])[N:4](/[C:5](=[N:6]/[H:11])[H:10])[H:9])([H:7])[H:8]>>[N:1]([C+:2]([O:3][H:9])[N-:4][C+:5]([N-:6][H:11])[H:10])([H:7])[H:8]"
N       -1.84098954      -0.14584688      -0.68403909
C       -0.92348834      -0.07326035       0.31467771
O       -1.22752014      -0.60015681       1.44021839
N        0.35069006      -0.40513123       0.07956463
C        1.30620642       0.57410705      -0.07726433
N        2.52473120       0.24801220      -0.18613688
H       -2.78415472      -0.35067123      -0.40561873
H       -1.54503729      -0.45749069      -1.59094321
H        0.05406959      -1.41874507       1.00578367
H        0.97143533       1.55538624       0.28235215
H        3.11405742       1.07379677      -0.17859431
11
Frame=16 idx=004746 GeodesicLength=0.914403170728521 rxn_smarts="[N:1]([C:2](=[O:3])[N:4](/[C:5](=[N:6]/[H:11])[H:10])[H:9])([H:7])[H:8]>>[N:1]([C+:2]([O:3][H:9])[N-:4][C+:5]([N-:6][H:11])[H:10])([H:7])[H:8]"
N       -1.84890670      -0.16106795      -0.69800316
C       -0.92531660      -0.04384486       0.29345695
O       -1.21989075      -0.54921078       1.43166911
N        0.34483541      -0.38897928       0.05143938
C        1.30678574       0.59054675      -0.07088082
N        2.51733937       0.25317889      -0.22716261
H       -2.79067606      -0.34476908      -0.39999846
H       -1.56280468      -0.54506183      -1.58021910
H        0.05737595      -1.41392540       0.97597812
H        0.99944450       1.53732990       0.39108961
H        3.12181382       1.06580364      -0.16736903
