12
Frame=0 idx=011610 GeodesicLength=0.0 rxn_smarts="[N:1]([C@:2]12[C:3]([H:10])([H:11])[C@@:4]1([H:12])[O:5][C:6]2=[O:7])([H:8])[H:9]>>[N+:1]([C@:2]12[C:3]([H:10])([H:11])[C-:4]1[O:5][C:6]2=[O:7])([H:8])([H:9])[H:12]"
N        0.35645245       0.89505840       1.10590254
C        0.16670585       0.24603870      -0.20746944
C       -1.23457418       0.05130948      -0.73198721
C       -0.68209109      -0.98510591       0.16218764
O        0.24354549      -1.81835152      -0.68720772
C        1.11809250      -0.79010657      -0.69028426
O        2.29888366      -0.80368398      -0.85848362
H        0.00106322       1.84121461       1.18927974
H        1.33019287       0.86351032       1.39637822
H       -1.98678259       0.70527993      -0.30447948
H       -1.32493827      -0.10467404      -1.80068656
H       -0.28654991      -0.10048947       1.42685020
12
Frame=1 idx=011610 GeodesicLength=0.054160408569410144 rxn_smarts="[N:1]([C@:2]12[C:3]([H:10])([H:11])[C@@:4]1([H:12])[O:5][C:6]2=[O:7])([H:8])[H:9]>>[N+:1]([C@:2]12[C:3]([H:10])([H:11])[C-:4]1[O:5][C:6]2=[O:7])([H:8])([H:9])[H:12]"
N        0.35762220       0.89514219       1.10747376
C        0.16450425       0.24712283      -0.20474171
C       -1.23462853       0.05106104      -0.73411859
C       -0.68410729      -0.98560686       0.16246069
O        0.24448791      -1.81682342      -0.68553779
C        1.11633753      -0.78613686      -0.69268645
O        2.29810280      -0.79735923      -0.85533959
H        0.01255289       1.84590196       1.18183714
H        1.33328883       0.86159763       1.39199365
H       -1.98852811       0.70320318      -0.30679133
H       -1.32405738      -0.10534550      -1.80285550
H       -0.29557512      -0.11275696       1.43830571
12
Frame=2 idx=011610 GeodesicLength=0.10832284841634299 rxn_smarts="[N:1]([C@:2]12[C:3]([H:10])([H:11])[C@@:4]1([H:12])[O:5][C:6]2=[O:7])([H:8])[H:9]>>[N+:1]([C@:2]12[C:3]([H:10])([H:11])[C-:4]1[O:5][C:6]2=[O:7])([H:8])([H:9])[H:12]"
N        0.35883467       0.89539454       1.10895355
C        0.16231140       0.24822943      -0.20201772
C       -1.23466269       0.05083122      -0.73623790
C       -0.68611063      -0.98606700       0.16276812
O        0.24544963      -1.81526557      -0.68380191
C        1.11459037      -0.78215169      -0.69503267
O        2.29728217      -0.79098827      -0.85227988
H        0.02413875       1.85056008       1.17430451
H        1.33633603       0.85965781       1.38766303
H       -1.99025887       0.70114509      -0.30911517
H       -1.32316836      -0.10603669      -1.80500514
H       -0.30474246      -0.12530894       1.44980117
12
Frame=3 idx=011610 GeodesicLength=0.1624864316398386 rxn_smarts="[N:1]([C@:2]12[C:3]([H:10])([H:11])[C@@:4]1([H:12])[O:5][C:6]2=[O:7])([H:8])[H:9]>>[N+:1]([C@:2]12[C:3]([H:10])([H:11])[C-:4]1[O:5][C:6]2=[O:7])([H:8])([H:9])[H:12]"
N        0.36008885       0.89581935       1.11034278
C        0.16012406       0.24935933      -0.19929401
C       -1.23467875       0.05061908      -0.73834409
C       -0.68810232      -0.98648756       0.16310976
O        0.24643314      -1.81367615      -0.68199840
C        1.11284969      -0.77814643      -0.69732475
O        2.29642304      -0.78456097      -0.84930197
H        0.03584328       1.85520210       1.16666355
H        1.33933327       0.85768268       1.38339230
H       -1.99197749       0.69910329      -0.31144909
H       -1.32227179      -0.10674968      -1.80713447
H       -0.31406499      -0.13816503       1.46133840
12
Frame=4 idx=011610 GeodesicLength=0.21665899778218897 rxn_smarts="[N:1]([C@:2]12[C:3]([H:10])([H:11])[C@@:4]1([H:12])[O:5][C:6]2=[O:7])([H:8])[H:9]>>[N+:1]([C@:2]12[C:3]([H:10])([H:11])[C-:4]1[O:5][C:6]2=[O:7])([H:8])([H:9])[H:12]"
N        0.36137952       0.89642653       1.11164699
C        0.15793980       0.25051389      -0.19656674
C       -1.23467976       0.05042364      -0.74043388
C       -0.69008483      -0.98687465       0.16348553
O        0.24744142      -1.81205884      -0.68013255
C        1.11111644      -0.77411815      -0.69956673
O        2.29553181      -0.77807051      -0.84640324
H        0.04769515       1.85985292       1.15889004
H        1.34227639       0.85566538       1.37919291
H       -1.99369073       0.69707478      -0.31378570
H       -1.32136864      -0.10748435      -1.80924363
H       -0.32355658      -0.15135062       1.47291701
12
Frame=5 idx=011610 GeodesicLength=0.27087586642342865 rxn_smarts="[N:1]([C@:2]12[C:3]([H:10])([H:11])[C@@:4]1([H:12])[O:5][C:6]2=[O:7])([H:8])[H:9]>>[N+:1]([C@:2]12[C:3]([H:10])([H:11])[C-:4]1[O:5][C:6]2=[O:7])([H:8])([H:9])[H:12]"
N        0.36272371       0.89721414       1.11284441
C        0.15575693       0.25169198      -0.19383238
C       -1.23466403       0.05024644      -0.74250695
C       -0.69205220      -0.98722168       0.16389281
O        0.24847587      -1.81039774      -0.67820491
C        1.10938842      -0.77005867      -0.70175719
O        2.29460207      -0.77151299      -0.84356516
H        0.05969390       1.86449677       1.15096849
H        1.34517457       0.85360733       1.37505805
H       -1.99539423       0.69505443      -0.31612630
H       -1.32046579      -0.10823728      -1.81132444
H       -0.33323920      -0.16488272       1.48455358
12
Frame=6 idx=011610 GeodesicLength=0.3250413080193606 rxn_smarts="[N:1]([C@:2]12[C:3]([H:10])([H:11])[C@@:4]1([H:12])[O:5][C:6]2=[O:7])([H:8])[H:9]>>[N+:1]([C@:2]12[C:3]([H:10])([H:11])[C-:4]1[O:5][C:6]2=[O:7])([H:8])([H:9])[H:12]"
N        0.36409907       0.89819412       1.11395166
C        0.15357484       0.25289279      -0.19109042
C       -1.23463346       0.05008776      -0.74455851
C       -0.69400406      -0.98752965       0.16433491
O        0.24953596      -1.80869522      -0.67620801
C        1.10766404      -0.76597151      -0.70388532
O        2.29363371      -0.76488630      -0.84079659
H        0.07185798       1.86915877       1.14288067
H        1.34801290       0.85150155       1.37099693
H       -1.99708992       0.69304406      -0.31846598
H       -1.31955921      -0.10900429      -1.81337635
H       -0.34309186      -0.17879209       1.49621701
12
Frame=7 idx=011610 GeodesicLength=0.379206261331591 rxn_smarts="[N:1]([C@:2]12[C:3]([H:10])([H:11])[C@@:4]1([H:12])[O:5][C:6]2=[O:7])([H:8])[H:9]>>[N+:1]([C@:2]12[C:3]([H:10])([H:11])[C-:4]1[O:5][C:6]2=[O:7])([H:8])([H:9])[H:12]"
N        0.36551783       0.89937597       1.11496331
C        0.15139301       0.25411969      -0.18833777
C       -1.23458921       0.04994615      -0.74658869
C       -0.69594691      -0.98780407       0.16481325
O        0.25062260      -1.80696117      -0.67414734
C        1.10594749      -0.76185760      -0.70595977
O        2.29263749      -0.75818599      -0.83810553
H        0.08419982       1.87384292       1.13462358
H        1.35079937       0.84935780       1.36701367
H       -1.99878263       0.69104297      -0.32080012
H       -1.31864536      -0.10978662      -1.81540300
H       -0.35315351      -0.19309004       1.50792841
12
Frame=8 idx=011610 GeodesicLength=0.4333780526987288 rxn_smarts="[N:1]([C@:2]12[C:3]([H:10])([H:11])[C@@:4]1([H:12])[O:5][C:6]2=[O:7])([H:8])[H:9]>>[N+:1]([C@:2]12[C:3]([H:10])([H:11])[C-:4]1[O:5][C:6]2=[O:7])([H:8])([H:9])[H:12]"
N        0.36697334       0.90077155       1.11587622
C        0.14920698       0.25537182      -0.18556728
C       -1.23453307       0.04982057      -0.74859419
C       -0.69787952      -0.98804525       0.16532899
O        0.25174025      -1.80518908      -0.67201683
C        1.10423607      -0.75770998      -0.70797542
O        2.29160735      -0.75139585      -0.83548820
H        0.09675149       1.87856502       1.12616011
H        1.35352983       0.84715844       1.36311812
H       -2.00047431       0.68904614      -0.32312621
H       -1.31772370      -0.11057991      -1.81740076
H       -0.36343471      -0.20781346       1.51968545
12
Frame=9 idx=011610 GeodesicLength=0.48754946720797837 rxn_smarts="[N:1]([C@:2]12[C:3]([H:10])([H:11])[C@@:4]1([H:12])[O:5][C:6]2=[O:7])([H:8])[H:9]>>[N+:1]([C@:2]12[C:3]([H:10])([H:11])[C-:4]1[O:5][C:6]2=[O:7])([H:8])([H:9])[H:12]"
N        0.36847063       0.90238491       1.11668706
C        0.14701352       0.25665235      -0.18277839
C       -1.23446806       0.04970891      -0.75057291
C       -0.69979915      -0.98825158       0.16588391
O        0.25289213      -1.80337251      -0.66981466
C        1.10252801      -0.75352069      -0.70993338
O        2.29054676      -0.74450194      -0.83294046
H        0.10954753       1.88332959       1.11746775
H        1.35619901       0.84489270       1.35932039
H       -2.00216946       0.68704794      -0.32544192
H       -1.31679900      -0.11138970      -1.81936589
H       -0.37396191      -0.22297997       1.53148851
12
Frame=10 idx=011610 GeodesicLength=0.5419443496780069 rxn_smarts="[N:1]([C@:2]12[C:3]([H:10])([H:11])[C@@:4]1([H:12])[O:5][C:6]2=[O:7])([H:8])[H:9]>>[N+:1]([C@:2]12[C:3]([H:10])([H:11])[C-:4]1[O:5][C:6]2=[O:7])([H:8])([H:9])[H:12]"
N        0.37002702       0.90425585       1.11736983
C        0.14480768       0.25794973      -0.17994833
C       -1.23439591       0.04961453      -0.75251170
C       -0.70170836      -0.98843868       0.16646888
O        0.25408263      -1.80151022      -0.66755951
C        1.10082735      -0.74928655      -0.71182349
O        2.28945431      -0.73750096      -0.83044880
H        0.12262269       1.88819504       1.10847081
H        1.35879446       0.84256795       1.35563957
H       -2.00387179       0.68504140      -0.32772102
H       -1.31586577      -0.11218943      -1.82128888
H       -0.38477431      -0.23869867       1.54335265
12
Frame=11 idx=011610 GeodesicLength=0.596313467978624 rxn_smarts="[N:1]([C@:2]12[C:3]([H:10])([H:11])[C@@:4]1([H:12])[O:5][C:6]2=[O:7])([H:8])[H:9]>>[N+:1]([C@:2]12[C:3]([H:10])([H:11])[C-:4]1[O:5][C:6]2=[O:7])([H:8])([H:9])[H:12]"
N        0.37162066       0.90637400       1.11794327
C        0.14259237       0.25927743      -0.17709299
C       -1.23431668       0.04953780      -0.75441718
C       -0.70360519      -0.98859069       0.16709556
O        0.25530759      -1.79960148      -0.66523256
C        1.09912987      -0.74500784      -0.71365291
O        2.28833184      -0.73039642      -0.82801330
H        0.13596875       1.89311841       1.09920834
H        1.36132443       0.84018725       1.35206143
H       -2.00558018       0.68303438      -0.32997957
H       -1.31492966      -0.11299807      -1.82317422
H       -0.39584381      -0.25493476       1.55525413
12
Frame=12 idx=011610 GeodesicLength=0.6506725168440992 rxn_smarts="[N:1]([C@:2]12[C:3]([H:10])([H:11])[C@@:4]1([H:12])[O:5][C:6]2=[O:7])([H:8])[H:9]>>[N+:1]([C@:2]12[C:3]([H:10])([H:11])[C-:4]1[O:5][C:6]2=[O:7])([H:8])([H:9])[H:12]"
N        0.37326035       0.90875429       1.11839554
C        0.14036951       0.26063529      -0.17420994
C       -1.23422972       0.04948186      -0.75628507
C       -0.70548805      -0.98870655       0.16776448
O        0.25656500      -1.79764411      -0.66283730
C        1.09743669      -0.74068519      -0.71541851
O        2.28718205      -0.72319636      -0.82562610
H        0.14958255       1.89810218       1.08966819
H        1.36379029       0.83776658       1.34858338
H       -2.00729251       0.68102926      -0.33221012
H       -1.31399197      -0.11380935      -1.82501742
H       -0.40718418      -0.27172790       1.56719287
12
Frame=13 idx=011610 GeodesicLength=0.7050285798267917 rxn_smarts="[N:1]([C@:2]12[C:3]([H:10])([H:11])[C@@:4]1([H:12])[O:5][C:6]2=[O:7])([H:8])[H:9]>>[N+:1]([C@:2]12[C:3]([H:10])([H:11])[C-:4]1[O:5][C:6]2=[O:7])([H:8])([H:9])[H:12]"
N        0.37495195       0.91141341       1.11871609
C        0.13814102       0.26202357      -0.17129667
C       -1.23413437       0.04945021      -0.75811092
C       -0.70735574      -0.98878490       0.16847701
O        0.25785227      -1.79563647      -0.66037678
C        1.09574886      -0.73631976      -0.71711699
O        2.28600695      -0.71590945      -0.82327838
H        0.16346121       1.90315067       1.07983723
H        1.36619382       0.83532245       1.34520230
H       -2.00900645       0.67902931      -0.33440518
H       -1.31305344      -0.11461696      -1.82681422
H       -0.41880608      -0.28912208       1.57916651
12
Frame=14 idx=011610 GeodesicLength=0.759386652534805 rxn_smarts="[N:1]([C@:2]12[C:3]([H:10])([H:11])[C@@:4]1([H:12])[O:5][C:6]2=[O:7])([H:8])[H:9]>>[N+:1]([C@:2]12[C:3]([H:10])([H:11])[C-:4]1[O:5][C:6]2=[O:7])([H:8])([H:9])[H:12]"
N        0.37670149       0.91436924       1.11889454
C        0.13590881       0.26344247      -0.16834997
C       -1.23403007       0.04944642      -0.75988969
C       -0.70920707      -0.98882436       0.16923490
O        0.25916637      -1.79357679      -0.65785399
C        1.09406727      -0.73191268      -0.71874439
O        2.28480863      -0.70854439      -0.82096001
H        0.17760346       1.90826925       1.06969992
H        1.36853657       0.83287269       1.34191475
H       -2.01071963       0.67703785      -0.33655658
H       -1.31211487      -0.11541393      -1.82855992
H       -0.43072097      -0.30716576       1.59117044
12
Frame=15 idx=011610 GeodesicLength=0.8137501905429663 rxn_smarts="[N:1]([C@:2]12[C:3]([H:10])([H:11])[C@@:4]1([H:12])[O:5][C:6]2=[O:7])([H:8])[H:9]>>[N+:1]([C@:2]12[C:3]([H:10])([H:11])[C-:4]1[O:5][C:6]2=[O:7])([H:8])([H:9])[H:12]"
N        0.37851570       0.91764004       1.11892015
C        0.13367482       0.26489245      -0.16536626
C       -1.23391628       0.04947414      -0.76161595
C       -0.71104081      -0.98882341       0.17004072
O        0.26050463      -1.79146362      -0.65527100
C        1.09239310      -0.72746502      -0.72029655
O        2.28358952      -0.70110906      -0.81866185
H        0.19200939       1.91346337       1.05923931
H        1.37082041       0.83043547       1.33871733
H       -2.01242972       0.67505877      -0.33865597
H       -1.31117689      -0.11619352      -1.83024947
H       -0.44294387      -0.32590963       1.60319955
12
Frame=16 idx=011610 GeodesicLength=0.8681193359055788 rxn_smarts="[N:1]([C@:2]12[C:3]([H:10])([H:11])[C@@:4]1([H:12])[O:5][C:6]2=[O:7])([H:8])[H:9]>>[N+:1]([C@:2]12[C:3]([H:10])([H:11])[C-:4]1[O:5][C:6]2=[O:7])([H:8])([H:9])[H:12]"
N        0.38040083       0.92124533       1.11878194
C        0.13144088       0.26637422      -0.16234151
C       -1.23379255       0.04953699      -0.76328378
C       -0.71285559      -0.98878014       0.17089764
O        0.26186424      -1.78929506      -0.65262941
C        1.09072732      -0.72297737      -0.72176890
O        2.28235177      -0.69361075      -0.81637392
H        0.20668192       1.91873950       1.04843526
H        1.37304643       0.82802880       1.33560753
H       -2.01413434       0.67309595      -0.34069456
H       -1.31024034      -0.11694899      -1.83187729
H       -0.45549056      -0.34540848       1.61524700
