11
Frame=0 idx=001574 GeodesicLength=0.0 rxn_smarts="[C:1]([n:2]1[c:3]([H:10])[n:4][c:5]([H:11])[n:6]1)([H:7])([H:8])[H:9]>>[C:1]([N:2]1[C:3]([H:10])=[N+:4]=[C-:5][N:6]1[H:11])([H:7])([H:8])[H:9]"
C       -1.46546953      -0.41457342       0.05200175
N       -0.07510055      -0.03569699      -0.03925972
C        0.50453599       1.16962209      -0.00296851
N        1.80248130       1.10831889      -0.13070105
C        2.09475810      -0.22264902      -0.37263563
N        0.90413067      -0.94146425      -0.32506860
H       -1.81407222      -0.81289828      -0.90030909
H       -1.59316701      -1.17091178       0.82551740
H       -2.05286669       0.46390905       0.31329393
H       -0.07876005       2.07356768       0.11351650
H        1.77352997      -1.21722400       0.46661299
11
Frame=1 idx=001574 GeodesicLength=0.04271419994171101 rxn_smarts="[C:1]([n:2]1[c:3]([H:10])[n:4][c:5]([H:11])[n:6]1)([H:7])([H:8])[H:9]>>[C:1]([N:2]1[C:3]([H:10])=[N+:4]=[C-:5][N:6]1[H:11])([H:7])([H:8])[H:9]"
C       -1.46664557      -0.41321913       0.05210779
N       -0.07706244      -0.03171640      -0.03580137
C        0.50173222       1.17388644       0.00112279
N        1.79986218       1.11210339      -0.12788055
C        2.09047467      -0.21868869      -0.36554854
N        0.90359606      -0.93560821      -0.31589569
H       -1.81094314      -0.82002301      -0.89824206
H       -1.59633581      -1.16319675       0.83155475
H       -2.05689770       0.46644173       0.30276392
H       -0.08280177       2.07812464       0.10811528
H        1.79502131      -1.24810402       0.44770369
11
Frame=2 idx=001574 GeodesicLength=0.08541768501772157 rxn_smarts="[C:1]([n:2]1[c:3]([H:10])[n:4][c:5]([H:11])[n:6]1)([H:7])([H:8])[H:9]>>[C:1]([N:2]1[C:3]([H:10])=[N+:4]=[C-:5][N:6]1[H:11])([H:7])([H:8])[H:9]"
C       -1.46786324      -0.41180486       0.05244499
N       -0.07911310      -0.02756145      -0.03207486
C        0.49876769       1.17836305       0.00543798
N        1.79720685       1.11603084      -0.12358932
C        2.08630012      -0.21456458      -0.35686734
N        0.90316254      -0.92963741      -0.30546582
H       -1.80771608      -0.82705219      -0.89591006
H       -1.59965226      -1.15539750       0.83772654
H       -2.06095616       0.46890860       0.29245447
H       -0.08720865       2.08293702       0.10038442
H        1.81707231      -1.28022151       0.42545902
11
Frame=3 idx=001574 GeodesicLength=0.12805349635380522 rxn_smarts="[C:1]([n:2]1[c:3]([H:10])[n:4][c:5]([H:11])[n:6]1)([H:7])([H:8])[H:9]>>[C:1]([N:2]1[C:3]([H:10])=[N+:4]=[C-:5][N:6]1[H:11])([H:7])([H:8])[H:9]"
C       -1.46915143      -0.41032320       0.05287275
N       -0.08126465      -0.02326629      -0.02812260
C        0.49561105       1.18304199       0.00941223
N        1.79443316       1.12012760      -0.11890844
C        2.08222799      -0.21043490      -0.34648766
N        0.90286952      -0.92373665      -0.29305322
H       -1.80432757      -0.83398780      -0.89348107
H       -1.60327098      -1.14748203       0.84389452
H       -2.06505810       0.47133399       0.28219467
H       -0.09180653       2.08785486       0.09163747
H        1.83973754      -1.31312757       0.40004135
11
Frame=4 idx=001574 GeodesicLength=0.17057600995865696 rxn_smarts="[C:1]([n:2]1[c:3]([H:10])[n:4][c:5]([H:11])[n:6]1)([H:7])([H:8])[H:9]>>[C:1]([N:2]1[C:3]([H:10])=[N+:4]=[C-:5][N:6]1[H:11])([H:7])([H:8])[H:9]"
C       -1.47048238      -0.40878847       0.05339934
N       -0.08352114      -0.01879123      -0.02418237
C        0.49225061       1.18796475       0.01281566
N        1.79154988       1.12443342      -0.11383350
C        2.07836176      -0.20632101      -0.33380326
N        0.90276557      -0.91786873      -0.27852447
H       -1.80083330      -0.84091036      -0.89088446
H       -1.60704434      -1.13943072       0.85011799
H       -2.06917539       0.47368851       0.27205050
H       -0.09659098       2.09288429       0.08185665
H        1.86271970      -1.34686048       0.37098794
11
Frame=5 idx=001574 GeodesicLength=0.2128626611048255 rxn_smarts="[C:1]([n:2]1[c:3]([H:10])[n:4][c:5]([H:11])[n:6]1)([H:7])([H:8])[H:9]>>[C:1]([N:2]1[C:3]([H:10])=[N+:4]=[C-:5][N:6]1[H:11])([H:7])([H:8])[H:9]"
C       -1.47177365      -0.40724609       0.05409202
N       -0.08588818      -0.01404035      -0.02099860
C        0.48865083       1.19323680       0.01497690
N        1.78863753       1.12898971      -0.10771974
C        2.07494150      -0.20221200      -0.31756900
N        0.90292894      -0.91188389      -0.26225147
H       -1.79753090      -0.84797745      -0.88786548
H       -1.61042918      -1.13125616       0.85657226
H       -2.07320477       0.47587344       0.26237615
H       -0.10158801       2.09809192       0.07070730
H        1.88525589      -1.38157592       0.33767965
11
Frame=6 idx=001574 GeodesicLength=0.2550118817313384 rxn_smarts="[C:1]([n:2]1[c:3]([H:10])[n:4][c:5]([H:11])[n:6]1)([H:7])([H:8])[H:9]>>[C:1]([N:2]1[C:3]([H:10])=[N+:4]=[C-:5][N:6]1[H:11])([H:7])([H:8])[H:9]"
C       -1.47341866      -0.40549529       0.05399486
N       -0.08832318      -0.00957257      -0.01570878
C        0.48503116       1.19825550       0.01696012
N        1.78502522       1.13376600      -0.10905785
C        2.07105427      -0.19883137      -0.30146727
N        0.90324873      -0.90704647      -0.23871003
H       -1.79247999      -0.85545109      -0.88595142
H       -1.61649771      -1.12204607       0.86245830
H       -2.07771081       0.47851726       0.24983770
H       -0.10613967       2.10281559       0.06592994
H        1.91021064      -1.41491149       0.30171443
11
Frame=7 idx=001574 GeodesicLength=0.2968174000700761 rxn_smarts="[C:1]([n:2]1[c:3]([H:10])[n:4][c:5]([H:11])[n:6]1)([H:7])([H:8])[H:9]>>[C:1]([N:2]1[C:3]([H:10])=[N+:4]=[C-:5][N:6]1[H:11])([H:7])([H:8])[H:9]"
C       -1.47474540      -0.40388105       0.05430812
N       -0.09084904      -0.00450314      -0.01312267
C        0.48102524       1.20400827       0.01573183
N        1.78163380       1.13897763      -0.10700139
C        2.06837474      -0.19516810      -0.27735993
N        0.90403222      -0.90137172      -0.21478877
H       -1.78808233      -0.86470395      -0.88235291
H       -1.62074340      -1.11179087       0.86991841
H       -2.08200142       0.48082914       0.23740026
H       -0.11113955       2.10810273       0.05916790
H        1.93249514      -1.45049894       0.25809916
11
Frame=8 idx=001574 GeodesicLength=0.33847609236501464 rxn_smarts="[C:1]([n:2]1[c:3]([H:10])[n:4][c:5]([H:11])[n:6]1)([H:7])([H:8])[H:9]>>[C:1]([N:2]1[C:3]([H:10])=[N+:4]=[C-:5][N:6]1[H:11])([H:7])([H:8])[H:9]"
C       -1.47624805      -0.40213710       0.05403161
N       -0.09339351       0.00048464      -0.00886154
C        0.47696279       1.20972275       0.01407233
N        1.77760759       1.14446139      -0.11158889
C        2.06572551      -0.19188848      -0.24906513
N        0.90517034      -0.89623883      -0.18230260
H       -1.78148122      -0.87609390      -0.87880429
H       -1.62743060      -1.09920754       0.87807690
H       -2.08678279       0.48356507       0.22067690
H       -0.11591533       2.11323232       0.05771864
H        1.95578525      -1.48590032       0.20604607
11
Frame=9 idx=001574 GeodesicLength=0.3794457688073044 rxn_smarts="[C:1]([n:2]1[c:3]([H:10])[n:4][c:5]([H:11])[n:6]1)([H:7])([H:8])[H:9]>>[C:1]([N:2]1[C:3]([H:10])=[N+:4]=[C-:5][N:6]1[H:11])([H:7])([H:8])[H:9]"
C       -1.47785152      -0.40033879       0.05248895
N       -0.09586866       0.00528154      -0.00279825
C        0.47290580       1.21530448       0.01091773
N        1.77241376       1.14989655      -0.12922068
C        2.06328840      -0.18902137      -0.21432609
N        0.90697406      -0.89160951      -0.13689532
H       -1.77128407      -0.89181953      -0.87512066
H       -1.63762526      -1.08243224       0.88747233
H       -2.09211031       0.48682334       0.19616257
H       -0.11977662       2.11802791       0.06846542
H        1.97893443      -1.52011237       0.14285400
11
Frame=10 idx=001574 GeodesicLength=0.41822549123007613 rxn_smarts="[C:1]([n:2]1[c:3]([H:10])[n:4][c:5]([H:11])[n:6]1)([H:7])([H:8])[H:9]>>[C:1]([N:2]1[C:3]([H:10])=[N+:4]=[C-:5][N:6]1[H:11])([H:7])([H:8])[H:9]"
C       -1.47908236      -0.39884643       0.05092029
N       -0.09786239       0.00979499       0.00799274
C        0.46899050       1.22078630       0.00710708
N        1.76678930       1.15378944      -0.15074936
C        2.06149240      -0.18586285      -0.16853549
N        0.90980793      -0.88641820      -0.07439977
H       -1.75595666      -0.91212521      -0.87002428
H       -1.65166525      -1.06190227       0.89867342
H       -2.09740794       0.48983294       0.16472918
H       -0.12295673       2.12290809       0.07906197
H        1.99785119      -1.55195681       0.05522423
11
Frame=11 idx=001574 GeodesicLength=0.4523198649887586 rxn_smarts="[C:1]([n:2]1[c:3]([H:10])[n:4][c:5]([H:11])[n:6]1)([H:7])([H:8])[H:9]>>[C:1]([N:2]1[C:3]([H:10])=[N+:4]=[C-:5][N:6]1[H:11])([H:7])([H:8])[H:9]"
C       -1.47867481      -0.39861111       0.05190529
N       -0.09829081       0.01337543       0.02619008
C        0.46650501       1.22523479       0.00501591
N        1.76415496       1.15439062      -0.15669684
C        2.06107239      -0.18333158      -0.10932084
N        0.91360682      -0.88060983       0.00120960
H       -1.73646900      -0.93114535      -0.86364825
H       -1.66666333      -1.04467011       0.90954957
H       -2.10055451       0.49076999       0.13719300
H       -0.12647432       2.12750417       0.06231377
H        2.00178759      -1.57290702      -0.06371129
11
Frame=12 idx=001574 GeodesicLength=0.48723566160125137 rxn_smarts="[C:1]([n:2]1[c:3]([H:10])[n:4][c:5]([H:11])[n:6]1)([H:7])([H:8])[H:9]>>[C:1]([N:2]1[C:3]([H:10])=[N+:4]=[C-:5][N:6]1[H:11])([H:7])([H:8])[H:9]"
C       -1.47641729      -0.39987324       0.05285777
N       -0.09680595       0.01462166       0.04613473
C        0.46640553       1.22683774       0.00298942
N        1.76359922       1.15032609      -0.16392806
C        2.06165834      -0.18281790      -0.04974538
N        0.91828801      -0.87558022       0.07896773
H       -1.71409052      -0.95167059      -0.85676027
H       -1.68105085      -1.02861886       0.91960100
H       -2.10098481       0.48993211       0.10863302
H       -0.12685289       2.12956236       0.04559058
H        1.98625121      -1.57271915      -0.18434054
11
Frame=13 idx=001574 GeodesicLength=0.5282954275486432 rxn_smarts="[C:1]([n:2]1[c:3]([H:10])[n:4][c:5]([H:11])[n:6]1)([H:7])([H:8])[H:9]>>[C:1]([N:2]1[C:3]([H:10])=[N+:4]=[C-:5][N:6]1[H:11])([H:7])([H:8])[H:9]"
C       -1.47293802      -0.40235999       0.05390822
N       -0.09422482       0.01436839       0.06304520
C        0.46834224       1.22634772       0.00179287
N        1.76542018       1.14323883      -0.16733296
C        2.06251333      -0.18427535       0.00231949
N        0.92253358      -0.87160305       0.14411443
H       -1.69343876      -0.97159077      -0.84933363
H       -1.69200978      -1.01520763       0.92855410
H       -2.09906935       0.48757664       0.08300235
H       -0.12477748       2.12958866       0.02874453
H        1.95764889      -1.55608344      -0.28881461
11
Frame=14 idx=001574 GeodesicLength=0.5724451597706703 rxn_smarts="[C:1]([n:2]1[c:3]([H:10])[n:4][c:5]([H:11])[n:6]1)([H:7])([H:8])[H:9]>>[C:1]([N:2]1[C:3]([H:10])=[N+:4]=[C-:5][N:6]1[H:11])([H:7])([H:8])[H:9]"
C       -1.46945377      -0.40507142       0.05427173
N       -0.09151547       0.01315837       0.07487844
C        0.47100428       1.22473708       0.00086023
N        1.76756776       1.13466390      -0.17331503
C        2.06290749      -0.18649915       0.04424201
N        0.92600963      -0.86863324       0.19443183
H       -1.67663324      -0.98953038      -0.84243207
H       -1.69999572      -1.00372624       0.93585685
H       -2.09617762       0.48485185       0.06047379
H       -0.12114098       2.12860870       0.01960846
H        1.92742764      -1.53255948      -0.36887622
11
Frame=15 idx=001574 GeodesicLength=0.6173234594547936 rxn_smarts="[C:1]([n:2]1[c:3]([H:10])[n:4][c:5]([H:11])[n:6]1)([H:7])([H:8])[H:9]>>[C:1]([N:2]1[C:3]([H:10])=[N+:4]=[C-:5][N:6]1[H:11])([H:7])([H:8])[H:9]"
C       -1.46582412      -0.40789322       0.05348057
N       -0.08885013       0.01215503       0.08530090
C        0.47366858       1.22323450      -0.00107354
N        1.76881240       1.12556957      -0.18622109
C        2.06277259      -0.18844749       0.07424268
N        0.92940464      -0.86473657       0.23849066
H       -1.66075387      -1.00473322      -0.83786006
H       -1.70656201      -0.99522672       0.94001877
H       -2.09293021       0.48163208       0.04043536
H       -0.11662554       2.12803193       0.02090422
H        1.89688767      -1.50958589      -0.42771846
11
Frame=16 idx=001574 GeodesicLength=0.662271520264514 rxn_smarts="[C:1]([n:2]1[c:3]([H:10])[n:4][c:5]([H:11])[n:6]1)([H:7])([H:8])[H:9]>>[C:1]([N:2]1[C:3]([H:10])=[N+:4]=[C-:5][N:6]1[H:11])([H:7])([H:8])[H:9]"
C       -1.46250498      -0.41051925       0.05322876
N       -0.08630696       0.01073308       0.09316702
C        0.47644648       1.22138447      -0.00169431
N        1.77063756       1.11658748      -0.19400088
C        2.06234494      -0.19079420       0.10161135
N        0.93213796      -0.86181743       0.27405532
H       -1.64842106      -1.01636942      -0.83401071
H       -1.71098647      -0.98942875       0.94324645
H       -2.08952156       0.47870618       0.02612555
H       -0.11255920       2.12691328       0.01621697
H        1.86873330      -1.48539544      -0.47794552
