12
Frame=0 idx=000197 GeodesicLength=0.0 rxn_smarts="[O:1]([C:2]([C@@:3]([O:4][H:11])([C:5]#[C:6][H:12])[H:10])([H:8])[H:9])[H:7]>>[O:1]([C:2]([C:3](=[C:5]=[C:6]([O:4][H:11])[H:12])[H:10])([H:8])[H:9])[H:7]"
O       -1.44676079      -1.21371889      -0.59897522
C       -1.21667795       0.16118165      -0.68214731
C        0.19725348       0.57736923      -0.38595357
O        0.44178314       0.12674817       1.24849877
C        1.34743868      -0.18154877      -0.83863856
C        1.68783485      -0.55356237       0.35277687
H       -1.08945936      -1.53459632       0.23293182
H       -1.89122941       0.72803870      -0.02640987
H       -1.42169700       0.46333867      -1.71307960
H        0.30485981       1.66393991      -0.37230023
H        0.74836867       0.87365384       1.77888011
H        2.33828587      -1.11084387       1.00441676
12
Frame=1 idx=000197 GeodesicLength=0.08017822106340645 rxn_smarts="[O:1]([C:2]([C@@:3]([O:4][H:11])([C:5]#[C:6][H:12])[H:10])([H:8])[H:9])[H:7]>>[O:1]([C:2]([C:3](=[C:5]=[C:6]([O:4][H:11])[H:12])[H:10])([H:8])[H:9])[H:7]"
O       -1.44725985      -1.21539785      -0.60077102
C       -1.22225740       0.16018987      -0.69109538
C        0.18728046       0.58466260      -0.38334854
O        0.44598248       0.13528466       1.26817089
C        1.33747157      -0.17537619      -0.82111278
C        1.70340807      -0.54953989       0.35922308
H       -1.09219692      -1.52855467       0.23507458
H       -1.90470342       0.72829135      -0.04463229
H       -1.42145824       0.45397835      -1.72555184
H        0.29329810       1.67148183      -0.38564837
H        0.77117484       0.87161418       1.80131699
H        2.34926032      -1.13663426       0.98837468
12
Frame=2 idx=000197 GeodesicLength=0.16027931555683456 rxn_smarts="[O:1]([C:2]([C@@:3]([O:4][H:11])([C:5]#[C:6][H:12])[H:10])([H:8])[H:9])[H:7]>>[O:1]([C:2]([C:3](=[C:5]=[C:6]([O:4][H:11])[H:12])[H:10])([H:8])[H:9])[H:7]"
O       -1.44787327      -1.21699061      -0.60237960
C       -1.22783246       0.15916764      -0.70028850
C        0.17702394       0.59204227      -0.38052457
O        0.45023182       0.14390417       1.28834187
C        1.32729108      -0.16913162      -0.80278308
C        1.71897395      -0.54587611       0.36566566
H       -1.09546661      -1.52211464       0.23759905
H       -1.91831696       0.72861769      -0.06359932
H       -1.42067604       0.44426171      -1.73834271
H        0.28170883       1.67883787      -0.39925088
H        0.79443998       0.86868670       1.82442547
H        2.36049575      -1.16140508       0.97113662
12
Frame=3 idx=000197 GeodesicLength=0.24034827712261925 rxn_smarts="[O:1]([C:2]([C@@:3]([O:4][H:11])([C:5]#[C:6][H:12])[H:10])([H:8])[H:9])[H:7]>>[O:1]([C:2]([C:3](=[C:5]=[C:6]([O:4][H:11])[H:12])[H:10])([H:8])[H:9])[H:7]"
O       -1.44882162      -1.21842781      -0.60383668
C       -1.23345748       0.15817199      -0.70976195
C        0.16646679       0.59942933      -0.37748323
O        0.45445825       0.15245982       1.30902835
C        1.31681425      -0.16301301      -0.78363130
C        1.73436402      -0.54290125       0.37206460
H       -1.09957182      -1.51523799       0.24047770
H       -1.93208645       0.72915099      -0.08337730
H       -1.41932687       0.43426169      -1.75147906
H        0.27021324       1.68591059      -0.41311324
H        0.81813765       0.86461090       1.84824911
H        2.37281003      -1.18441524       0.95286300
12
Frame=4 idx=000197 GeodesicLength=0.3203709992427479 rxn_smarts="[O:1]([C:2]([C@@:3]([O:4][H:11])([C:5]#[C:6][H:12])[H:10])([H:8])[H:9])[H:7]>>[O:1]([C:2]([C:3](=[C:5]=[C:6]([O:4][H:11])[H:12])[H:10])([H:8])[H:9])[H:7]"
O       -1.45009610      -1.21970247      -0.60510882
C       -1.23912612       0.15719588      -0.71952224
C        0.15558450       0.60685171      -0.37423084
O        0.45867493       0.16099305       1.33024674
C        1.30600778      -0.15697571      -0.76363265
C        1.74955863      -0.54058756       0.37838668
H       -1.10451401      -1.50788665       0.24374146
H       -1.94600619       0.72988457      -0.10401510
H       -1.41738976       0.42393581      -1.76495737
H        0.25879660       1.69270002      -0.42727564
H        0.84228522       0.85932281       1.87280349
H        2.38622453      -1.20573147       0.93356429
12
Frame=5 idx=000197 GeodesicLength=0.4003453721464506 rxn_smarts="[O:1]([C:2]([C@@:3]([O:4][H:11])([C:5]#[C:6][H:12])[H:10])([H:8])[H:9])[H:7]>>[O:1]([C:2]([C:3](=[C:5]=[C:6]([O:4][H:11])[H:12])[H:10])([H:8])[H:9])[H:7]"
O       -1.45168309      -1.22081652      -0.60615643
C       -1.24482884       0.15622829      -0.72957400
C        0.14435655       0.61434444      -0.37077423
O        0.46289290       0.16956072       1.35201919
C        1.29484970      -0.15096936      -0.74275499
C        1.76455104      -0.53888787       0.38460516
H       -1.11028970      -1.50002750       0.24742638
H       -1.96007307       0.73080799      -0.12556239
H       -1.41483720       0.41323331      -1.77877148
H        0.24744667       1.69921471      -0.44178192
H        0.86688868       0.85276609       1.89811181
H        2.40072636      -1.22545429       0.91321291
12
Frame=6 idx=000197 GeodesicLength=0.48026770417749204 rxn_smarts="[O:1]([C:2]([C@@:3]([O:4][H:11])([C:5]#[C:6][H:12])[H:10])([H:8])[H:9])[H:7]>>[O:1]([C:2]([C:3](=[C:5]=[C:6]([O:4][H:11])[H:12])[H:10])([H:8])[H:9])[H:7]"
O       -1.45355377      -1.22177624      -0.60693146
C       -1.25054758       0.15525179      -0.73991968
C        0.13276479       0.62194833      -0.36711923
O        0.46712666       0.17823577       1.37437263
C        1.28332472      -0.14492976      -0.72095654
C        1.77934315      -0.53773364       0.39069787
H       -1.11688181      -1.49162458       0.25157652
H       -1.97427892       0.73189997      -0.14807297
H       -1.41163108       0.40209044      -1.79291107
H        0.23614913       1.70546488      -0.45667647
H        0.89194895       0.84488682       1.92420416
H        2.41623575      -1.24371379       0.89173625
12
Frame=7 idx=000197 GeodesicLength=0.5601372358509837 rxn_smarts="[O:1]([C:2]([C@@:3]([O:4][H:11])([C:5]#[C:6][H:12])[H:10])([H:8])[H:9])[H:7]>>[O:1]([C:2]([C:3](=[C:5]=[C:6]([O:4][H:11])[H:12])[H:10])([H:8])[H:9])[H:7]"
O       -1.45568426      -1.22258626      -0.60738254
C       -1.25626084       0.15424792      -0.75056157
C        0.12079357       0.62970167      -0.36327271
O        0.47138757       0.18709380       1.39733924
C        1.27141597      -0.13879918      -0.69818948
C        1.79393186      -0.53706011       0.39664434
H       -1.12428272      -1.48263864       0.25623859
H       -1.98860923       0.73313981      -0.17160390
H       -1.40772489       0.39043980      -1.80736398
H        0.22489993       1.71145418      -0.47200499
H        0.91745742       0.83561462       1.95111989
H        2.43267562      -1.26060763       0.86903711
12
Frame=8 idx=000197 GeodesicLength=0.6399333391640581 rxn_smarts="[O:1]([C:2]([C@@:3]([O:4][H:11])([C:5]#[C:6][H:12])[H:10])([H:8])[H:9])[H:7]>>[O:1]([C:2]([C:3](=[C:5]=[C:6]([O:4][H:11])[H:12])[H:10])([H:8])[H:9])[H:7]"
O       -1.45801468      -1.22326090      -0.60744951
C       -1.26193232       0.15318663      -0.76149438
C        0.10842985       0.63765493      -0.35923868
O        0.47570392       0.19622841       1.42095191
C        1.25911933      -0.13248573      -0.67439737
C        1.80833834      -0.53675887       0.40242077
H       -1.13244006      -1.47303292       0.26146131
H       -2.00303936       0.73448250      -0.19620973
H       -1.40306281       0.37819859      -1.82210378
H        0.21368120       1.71719240      -0.48780224
H        0.94341402       0.82489026       1.97887331
H        2.44980257      -1.27629529       0.84498838
12
Frame=9 idx=000197 GeodesicLength=0.7196646628932865 rxn_smarts="[O:1]([C:2]([C@@:3]([O:4][H:11])([C:5]#[C:6][H:12])[H:10])([H:8])[H:9])[H:7]>>[O:1]([C:2]([C:3](=[C:5]=[C:6]([O:4][H:11])[H:12])[H:10])([H:8])[H:9])[H:7]"
O       -1.46056622      -1.22378478      -0.60707066
C       -1.26754144       0.15205555      -0.77272593
C        0.09566133       0.64582587      -0.35502958
O        0.48007033       0.20570047       1.44525002
C        1.24639931      -0.12597614      -0.64952101
C        1.82252461      -0.53681174       0.40800555
H       -1.14141189      -1.46274370       0.26730265
H       -2.01754094       0.73593167      -0.22196992
H       -1.39757891       0.36529477      -1.83711942
H        0.20252742       1.72265034      -0.50411905
H        0.96978014       0.81256222       2.00753663
H        2.46767625      -1.29070453       0.81946071
12
Frame=10 idx=000197 GeodesicLength=0.7993231634302106 rxn_smarts="[O:1]([C:2]([C@@:3]([O:4][H:11])([C:5]#[C:6][H:12])[H:10])([H:8])[H:9])[H:7]>>[O:1]([C:2]([C:3](=[C:5]=[C:6]([O:4][H:11])[H:12])[H:10])([H:8])[H:9])[H:7]"
O       -1.46332109      -1.22415355      -0.60617085
C       -1.27305160       0.15082910      -0.78425677
C        0.08247831       0.65424808      -0.35065709
O        0.48450041       0.21559611       1.47027446
C        1.23323400      -0.11921636      -0.62349359
C        1.83647676      -0.53715196       0.41337162
H       -1.15120908      -1.45170696       0.27382750
H       -2.03207482       0.73746502      -0.24896486
H       -1.39119629       0.35163480      -1.85238536
H        0.19145778       1.72780874      -0.52099876
H        0.99652382       0.79848210       2.03716179
H        2.48618179      -1.30383513       0.79229192
12
Frame=11 idx=000197 GeodesicLength=0.8789084659421913 rxn_smarts="[O:1]([C:2]([C@@:3]([O:4][H:11])([C:5]#[C:6][H:12])[H:10])([H:8])[H:9])[H:7]>>[O:1]([C:2]([C:3](=[C:5]=[C:6]([O:4][H:11])[H:12])[H:10])([H:8])[H:9])[H:7]"
O       -1.46627241      -1.22435883      -0.60466608
C       -1.27842327       0.14948131      -0.79608701
C        0.06887483       0.66295252      -0.34614022
O        0.48900427       0.22600951       1.49607128
C        1.21959774      -0.11216160      -0.59624589
C        1.85016987      -0.53772131       0.41848753
H       -1.16185830      -1.43985012       0.28110768
H       -2.04659208       0.73906480      -0.27727918
H       -1.38383047       0.33711782      -1.86787196
H        0.18050685       1.73264058      -0.53849238
H        1.02359571       0.78246095       2.06781138
H        2.50522727      -1.31563564       0.76330485
12
Frame=12 idx=000197 GeodesicLength=0.95844772740462 rxn_smarts="[O:1]([C:2]([C@@:3]([O:4][H:11])([C:5]#[C:6][H:12])[H:10])([H:8])[H:9])[H:7]>>[O:1]([C:2]([C:3](=[C:5]=[C:6]([O:4][H:11])[H:12])[H:10])([H:8])[H:9])[H:7]"
O       -1.46941112      -1.22439283      -0.60246239
C       -1.28361413       0.14798327      -0.80822052
C        0.05484439       0.67197436      -0.34150584
O        0.49360090       0.23705344       1.52270160
C        1.20546328      -0.10476409      -0.56770699
C        1.86357512      -0.53846660       0.42331896
H       -1.17338683      -1.42709002       0.28922810
H       -2.06103714       0.74071554      -0.30700888
H       -1.37539325       0.32162786      -1.88355446
H        0.16970921       1.73712041      -0.55665859
H        1.05093885       0.76427261       2.09956871
H        2.52471074      -1.32603396       0.73230029
12
Frame=13 idx=000197 GeodesicLength=1.0380947227506958 rxn_smarts="[O:1]([C:2]([C@@:3]([O:4][H:11])([C:5]#[C:6][H:12])[H:10])([H:8])[H:9])[H:7]>>[O:1]([C:2]([C:3](=[C:5]=[C:6]([O:4][H:11])[H:12])[H:10])([H:8])[H:9])[H:7]"
O       -1.47269606      -1.22432126      -0.59951532
C       -1.28861181       0.14627574      -0.82069600
C        0.04036960       0.68140932      -0.33675912
O        0.49842670       0.24892885       1.55027143
C        1.19084856      -0.09688018      -0.53776526
C        1.87676641      -0.53928152       0.42786471
H       -1.18576231      -1.41338508       0.29823706
H       -2.07541308       0.74236392      -0.33831185
H       -1.36586588       0.30499691      -1.89944223
H        0.15904022       1.74131191      -0.57551216
H        1.07862922       0.74376859       2.13256557
H        2.54426844      -1.33518720       0.69906318
12
Frame=14 idx=000197 GeodesicLength=1.1174385796500719 rxn_smarts="[O:1]([C:2]([C@@:3]([O:4][H:11])([C:5]#[C:6][H:12])[H:10])([H:8])[H:9])[H:7]>>[O:1]([C:2]([C:3](=[C:5]=[C:6]([O:4][H:11])[H:12])[H:10])([H:8])[H:9])[H:7]"
O       -1.47683582      -1.22373897      -0.59544363
C       -1.29339776       0.14447212      -0.83345901
C        0.02550817       0.69094332      -0.33190977
O        0.50314743       0.26121667       1.57870188
C        1.17539300      -0.08919003      -0.50628981
C        1.88935895      -0.54042060       0.43207193
H       -1.19988545      -1.39824010       0.30843578
H       -2.08948767       0.74445018      -0.37149844
H       -1.35486935       0.28706957      -1.91538386
H        0.14907099       1.74464832      -0.59522089
H        1.10598921       0.71986991       2.16673919
H        2.56600829      -1.34108039       0.66325662
12
Frame=15 idx=000197 GeodesicLength=1.1963528532912093 rxn_smarts="[O:1]([C:2]([C@@:3]([O:4][H:11])([C:5]#[C:6][H:12])[H:10])([H:8])[H:9])[H:7]>>[O:1]([C:2]([C:3](=[C:5]=[C:6]([O:4][H:11])[H:12])[H:10])([H:8])[H:9])[H:7]"
O       -1.48048321      -1.22299339      -0.59026749
C       -1.29754485       0.14225715      -0.84635953
C        0.01031001       0.70102522      -0.32709634
O        0.50810667       0.27488019       1.60802091
C        1.15955784      -0.08039589      -0.47333741
C        1.90151126      -0.54113832       0.43566540
H       -1.21433448      -1.38191945       0.31972052
H       -2.10300478       0.74597616      -0.40609209
H       -1.34229508       0.26771873      -1.93110290
H        0.13925014       1.74757408      -0.61570887
H        1.13322228       0.69310053       2.20196804
H        2.58570421      -1.34608500       0.62458976
12
Frame=16 idx=000197 GeodesicLength=1.2753451118424448 rxn_smarts="[O:1]([C:2]([C@@:3]([O:4][H:11])([C:5]#[C:6][H:12])[H:10])([H:8])[H:9])[H:7]>>[O:1]([C:2]([C:3](=[C:5]=[C:6]([O:4][H:11])[H:12])[H:10])([H:8])[H:9])[H:7]"
O       -1.48454341      -1.22194844      -0.58382880
C       -1.30134449       0.13974618      -0.85956278
C       -0.00523916       0.71152053      -0.32237448
O        0.51336614       0.28979768       1.63840313
C        1.14309987      -0.07118192      -0.43873128
C        1.91325281      -0.54180313       0.43878595
H       -1.23002185      -1.36412934       0.33228565
H       -2.11611053       0.74756397      -0.44264042
H       -1.32828240       0.24670767      -1.94677381
H        0.12997545       1.74990827      -0.63717279
H        1.16009777       0.66248921       2.23865280
H        2.60574979      -1.34867067       0.58295683
