16
Frame=0 idx=007996 GeodesicLength=0.0 rxn_smarts="[C:1]([C:2]#[C:3][C:4]([C@@:5]1([H:13])[C:6]([H:14])([H:15])[N:7]1[H:16])([H:11])[H:12])([H:8])([H:9])[H:10]>>[C:1]([C:2]#[C:3][C:4](/[C:5](=[N:7]\[C:6]([H:14])([H:15])[H:16])[H:13])([H:11])[H:12])([H:8])([H:9])[H:10]"
C        2.48830758       0.87666881       1.83414713
C        1.61712730       0.14847751       0.91844481
C        0.91185015      -0.45816406       0.16143321
C        0.00825986      -1.16495898      -0.74238404
C       -1.46471133      -0.80446731      -0.50644340
C       -1.89267612       0.61144144      -1.01644503
N       -2.39370444      -0.99830164      -1.47333649
H        2.36253135       1.95423079       1.71719771
H        3.53558350       0.63601552       1.64479528
H        2.26389087       0.61993547       2.87060939
H        0.11365416      -2.24398752      -0.60020794
H        0.25490656      -0.95727952      -1.78651477
H       -1.75058869      -0.92583534       0.54955027
H       -1.02096205       1.09966181      -1.44274965
H       -2.43113602       1.14655719      -0.24295925
H       -2.60233264       0.46000586      -1.88513720
16
Frame=1 idx=007996 GeodesicLength=0.10274985186414018 rxn_smarts="[C:1]([C:2]#[C:3][C:4]([C@@:5]1([H:13])[C:6]([H:14])([H:15])[N:7]1[H:16])([H:11])[H:12])([H:8])([H:9])[H:10]>>[C:1]([C:2]#[C:3][C:4](/[C:5](=[N:7]\[C:6]([H:14])([H:15])[H:16])[H:13])([H:11])[H:12])([H:8])([H:9])[H:10]"
C        2.51295241       0.85763887       1.86038842
C        1.62783623       0.16313357       0.93196855
C        0.91648871      -0.42342760       0.16494416
C        0.01362915      -1.13690288      -0.73424249
C       -1.45938932      -0.79206514      -0.48825103
C       -1.92207629       0.60082148      -1.06732518
N       -2.39971145      -1.01537788      -1.43643192
H        2.37661658       1.93815836       1.79290314
H        3.55786592       0.63444585       1.63922353
H        2.31230632       0.55449949       2.88916284
H        0.12988649      -2.21571111      -0.59866032
H        0.25990374      -0.92728866      -1.77802980
H       -1.73535555      -0.88793069       0.57221364
H       -1.07437576       1.07721408      -1.55183252
H       -2.42929215       1.17310549      -0.29909766
H       -2.68728504       0.39968677      -1.89693337
16
Frame=2 idx=007996 GeodesicLength=0.20458357571689784 rxn_smarts="[C:1]([C:2]#[C:3][C:4]([C@@:5]1([H:13])[C:6]([H:14])([H:15])[N:7]1[H:16])([H:11])[H:12])([H:8])([H:9])[H:10]>>[C:1]([C:2]#[C:3][C:4](/[C:5](=[N:7]\[C:6]([H:14])([H:15])[H:16])[H:13])([H:11])[H:12])([H:8])([H:9])[H:10]"
C        2.53815524       0.83801802       1.88628640
C        1.63808029       0.17736366       0.94759235
C        0.92024370      -0.38849563       0.17115305
C        0.01887273      -1.10672711      -0.72570185
C       -1.45413454      -0.77736196      -0.47073599
C       -1.95187499       0.58830648      -1.11855083
N       -2.40425362      -1.03023246      -1.40043637
H        2.39247592       1.91926539       1.86816748
H        3.57974813       0.63326270       1.63390112
H        2.36176529       0.48951627       2.90507472
H        0.14552058      -2.18542908      -0.59840837
H        0.26587115      -0.89347343      -1.76854011
H       -1.72165845      -0.84820987       0.59309370
H       -1.12941088       1.04831607      -1.65940078
H       -2.42905616       1.19868191      -0.36022665
H       -2.77034440       0.33719905      -1.90326788
16
Frame=3 idx=007996 GeodesicLength=0.3054248638660375 rxn_smarts="[C:1]([C:2]#[C:3][C:4]([C@@:5]1([H:13])[C:6]([H:14])([H:15])[N:7]1[H:16])([H:11])[H:12])([H:8])([H:9])[H:10]>>[C:1]([C:2]#[C:3][C:4](/[C:5](=[N:7]\[C:6]([H:14])([H:15])[H:16])[H:13])([H:11])[H:12])([H:8])([H:9])[H:10]"
C        2.56271627       0.81801085       1.91187727
C        1.64843887       0.19144247       0.96356926
C        0.92449548      -0.35365594       0.17800219
C        0.02455643      -1.07453462      -0.71820058
C       -1.44822004      -0.76071768      -0.45398053
C       -1.98166076       0.57383596      -1.16902923
N       -2.40754877      -1.04274106      -1.36462706
H        2.41272702       1.89848636       1.93877339
H        3.60053659       0.62803870       1.63371515
H        2.40546666       0.42904510       2.91907973
H        0.16131767      -2.15323170      -0.60119548
H        0.27234366      -0.85556529      -1.75962808
H       -1.70775431      -0.80752022       0.61242010
H       -1.18635457       1.01268465      -1.76546662
H       -2.42844066       1.22293291      -0.42423145
H       -2.85261955       0.27348950      -1.90107806
16
Frame=4 idx=007996 GeodesicLength=0.4049031507874793 rxn_smarts="[C:1]([C:2]#[C:3][C:4]([C@@:5]1([H:13])[C:6]([H:14])([H:15])[N:7]1[H:16])([H:11])[H:12])([H:8])([H:9])[H:10]>>[C:1]([C:2]#[C:3][C:4](/[C:5](=[N:7]\[C:6]([H:14])([H:15])[H:16])[H:13])([H:11])[H:12])([H:8])([H:9])[H:10]"
C        2.58698416       0.79835338       1.93622133
C        1.65810299       0.20337084       0.98176071
C        0.92784396      -0.32198548       0.18862326
C        0.02975459      -1.04148225      -0.71059950
C       -1.44269223      -0.74261905      -0.43826165
C       -2.01065110       0.55805970      -1.21832803
N       -2.40958529      -1.05195895      -1.33096487
H        2.43366262       1.87650690       2.00491731
H        3.62050098       0.62299048       1.63353864
H        2.44867002       0.37247799       2.93119161
H        0.17555259      -2.12044039      -0.60710583
H        0.27963680      -0.81350167      -1.74955291
H       -1.69605891      -0.76745105       0.62963269
H       -1.24240131       0.97207272      -1.86598445
H       -2.42940176       1.24498102      -0.49116972
H       -2.92991814       0.21062579      -1.89391858
16
Frame=5 idx=007996 GeodesicLength=0.5032998321444968 rxn_smarts="[C:1]([C:2]#[C:3][C:4]([C@@:5]1([H:13])[C:6]([H:14])([H:15])[N:7]1[H:16])([H:11])[H:12])([H:8])([H:9])[H:10]>>[C:1]([C:2]#[C:3][C:4](/[C:5](=[N:7]\[C:6]([H:14])([H:15])[H:16])[H:13])([H:11])[H:12])([H:8])([H:9])[H:10]"
C        2.60932188       0.77891837       1.95996431
C        1.66859781       0.21304277       0.99940617
C        0.93280699      -0.29331534       0.19905271
C        0.03510723      -1.00798098      -0.70449365
C       -1.43638826      -0.72265566      -0.42304277
C       -2.03820453       0.54108525      -1.26641057
N       -2.41116433      -1.05795269      -1.29679741
H        2.45294795       1.85347049       2.06729341
H        3.63900435       0.61835514       1.63670879
H        2.48710840       0.31907222       2.94182829
H        0.18860575      -2.08734945      -0.61682475
H        0.28667024      -0.76879231      -1.74048915
H       -1.68340038      -0.72628489       0.64592210
H       -1.29832924       0.92495988      -1.96392464
H       -2.42805978       1.26621800      -0.56038809
H       -3.00462409       0.14920923      -1.87780473
16
Frame=6 idx=007996 GeodesicLength=0.6005130900627111 rxn_smarts="[C:1]([C:2]#[C:3][C:4]([C@@:5]1([H:13])[C:6]([H:14])([H:15])[N:7]1[H:16])([H:11])[H:12])([H:8])([H:9])[H:10]>>[C:1]([C:2]#[C:3][C:4](/[C:5](=[N:7]\[C:6]([H:14])([H:15])[H:16])[H:13])([H:11])[H:12])([H:8])([H:9])[H:10]"
C        2.63004208       0.76033176       1.98257198
C        1.67929401       0.21902845       1.01772693
C        0.93847324      -0.26987666       0.21120220
C        0.04007953      -0.97495022      -0.69925587
C       -1.43000845      -0.70147158      -0.40864821
C       -2.06392002       0.52342313      -1.31290408
N       -2.41237034      -1.06022128      -1.26370033
H        2.46904702       1.83007000       2.12528589
H        3.65612885       0.61616791       1.64069175
H        2.52383236       0.26954361       2.95122499
H        0.19947914      -2.05492183      -0.63059462
H        0.29368869      -0.72144828      -1.73132578
H       -1.67128483      -0.68564611       0.66083579
H       -1.35248517       0.87295639      -2.05669303
H       -2.42542405       1.28588249      -0.63134283
H       -3.07457206       0.09113222      -1.85507480
16
Frame=7 idx=007996 GeodesicLength=0.6965524576759899 rxn_smarts="[C:1]([C:2]#[C:3][C:4]([C@@:5]1([H:13])[C:6]([H:14])([H:15])[N:7]1[H:16])([H:11])[H:12])([H:8])([H:9])[H:10]>>[C:1]([C:2]#[C:3][C:4](/[C:5](=[N:7]\[C:6]([H:14])([H:15])[H:16])[H:13])([H:11])[H:12])([H:8])([H:9])[H:10]"
C        2.64915079       0.74305210       2.00381095
C        1.68994186       0.22022066       1.03716838
C        0.94458741      -0.25321788       0.22566423
C        0.04455303      -0.94297234      -0.69491253
C       -1.42377741      -0.67981277      -0.39527752
C       -2.08764925       0.50550327      -1.35725240
N       -2.41332021      -1.05873002      -1.23257982
H        2.48232584       1.80742964       2.17668095
H        3.67182274       0.61562551       1.64545168
H        2.55872837       0.22615519       2.96040772
H        0.20797822      -2.02364411      -0.64927700
H        0.30072413      -0.67120589      -1.72168408
H       -1.66007948      -0.64723578       0.67427174
H       -1.40409685       0.81778836      -2.14274600
H       -2.42187184       1.30337002      -0.70264534
H       -3.13901734       0.03767404      -1.82708099
16
Frame=8 idx=007996 GeodesicLength=0.7918314999151546 rxn_smarts="[C:1]([C:2]#[C:3][C:4]([C@@:5]1([H:13])[C:6]([H:14])([H:15])[N:7]1[H:16])([H:11])[H:12])([H:8])([H:9])[H:10]>>[C:1]([C:2]#[C:3][C:4](/[C:5](=[N:7]\[C:6]([H:14])([H:15])[H:16])[H:13])([H:11])[H:12])([H:8])([H:9])[H:10]"
C        2.66781120       0.72635192       2.02417619
C        1.70012310       0.21797093       1.05829852
C        0.95037436      -0.24119090       0.24273494
C        0.04842301      -0.91082817      -0.69076454
C       -1.41807934      -0.65724969      -0.38272316
C       -2.11038657       0.48669245      -1.40071842
N       -2.41408935      -1.05462312      -1.20315287
H        2.49468438       1.78498883       2.22394847
H        3.68671576       0.61583501       1.64984015
H        2.59397086       0.18659614       2.96950009
H        0.21469885      -1.99194653      -0.67168635
H        0.30765872      -0.61717957      -1.71073215
H       -1.65027848      -0.60983897       0.68651798
H       -1.45389546       0.75912400      -2.22339973
H       -2.41924849       1.31816256      -0.77598365
H       -3.19848255      -0.01286490      -1.79585547
16
Frame=9 idx=007996 GeodesicLength=0.8867587660318317 rxn_smarts="[C:1]([C:2]#[C:3][C:4]([C@@:5]1([H:13])[C:6]([H:14])([H:15])[N:7]1[H:16])([H:11])[H:12])([H:8])([H:9])[H:10]>>[C:1]([C:2]#[C:3][C:4](/[C:5](=[N:7]\[C:6]([H:14])([H:15])[H:16])[H:13])([H:11])[H:12])([H:8])([H:9])[H:10]"
C        2.68516527       0.70924952       2.04474662
C        1.71165763       0.21381173       1.07802264
C        0.95815168      -0.23123137       0.25820227
C        0.05247041      -0.87747137      -0.68813964
C       -1.41165909      -0.63239788      -0.37029695
C       -2.13271885       0.46596186      -1.44409911
N       -2.41505879      -1.04842906      -1.17187526
H        2.50484157       1.76148952       2.27026529
H        3.70093717       0.61647265       1.65730004
H        2.62615569       0.14758350       2.97827603
H        0.22053978      -1.95852097      -0.69783184
H        0.31347117      -0.55983453      -1.70046671
H       -1.63858926      -0.56952902       0.69864218
H       -1.50442062       0.69343309      -2.30185885
H       -2.41576393       1.33093313      -0.85339287
H       -3.25517983      -0.06152080      -1.75749384
16
Frame=10 idx=007996 GeodesicLength=0.981100451702296 rxn_smarts="[C:1]([C:2]#[C:3][C:4]([C@@:5]1([H:13])[C:6]([H:14])([H:15])[N:7]1[H:16])([H:11])[H:12])([H:8])([H:9])[H:10]>>[C:1]([C:2]#[C:3][C:4](/[C:5](=[N:7]\[C:6]([H:14])([H:15])[H:16])[H:13])([H:11])[H:12])([H:8])([H:9])[H:10]"
C        2.70201304       0.69240682       2.06464306
C        1.72296147       0.20657336       1.09867976
C        0.96593269      -0.22533359       0.27520573
C        0.05626901      -0.84313425      -0.68622571
C       -1.40548844      -0.60679380      -0.35861410
C       -2.15464784       0.44386592      -1.48623470
N       -2.41565655      -1.04026039      -1.14196322
H        2.51687132       1.73942638       2.30965143
H        3.71479705       0.61302027       1.66656129
H        2.65506460       0.11451563       2.98890108
H        0.22555234      -1.92328184      -0.72886159
H        0.31876420      -0.49723724      -1.68890898
H       -1.62751415      -0.53074429       0.70987292
H       -1.55355688       0.62468447      -2.37422282
H       -2.41424939       1.33984880      -0.93196614
H       -3.30711246      -0.10755626      -1.71651800
16
Frame=11 idx=007996 GeodesicLength=1.0748392187310847 rxn_smarts="[C:1]([C:2]#[C:3][C:4]([C@@:5]1([H:13])[C:6]([H:14])([H:15])[N:7]1[H:16])([H:11])[H:12])([H:8])([H:9])[H:10]>>[C:1]([C:2]#[C:3][C:4](/[C:5](=[N:7]\[C:6]([H:14])([H:15])[H:16])[H:13])([H:11])[H:12])([H:8])([H:9])[H:10]"
C        2.71682690       0.67667374       2.08341218
C        1.73477140       0.19377547       1.11907299
C        0.97489658      -0.22701518       0.29260664
C        0.05988111      -0.80972260      -0.68554020
C       -1.39912804      -0.58105209      -0.34746321
C       -2.17479144       0.42137656      -1.52633223
N       -2.41648411      -1.02906002      -1.11292984
H        2.52507881       1.71917056       2.34219689
H        3.72728998       0.61023538       1.67714352
H        2.68110246       0.08740924       3.00096686
H        0.22865577      -1.88788138      -0.76583229
H        0.32333969      -0.43121547      -1.67619180
H       -1.61587069      -0.49420465       0.72067102
H       -1.60016005       0.55326982      -2.44023881
H       -2.41108576       1.34617463      -1.01015089
H       -3.35432260      -0.14793401      -1.67139084
16
Frame=12 idx=007996 GeodesicLength=1.1684604468163833 rxn_smarts="[C:1]([C:2]#[C:3][C:4]([C@@:5]1([H:13])[C:6]([H:14])([H:15])[N:7]1[H:16])([H:11])[H:12])([H:8])([H:9])[H:10]>>[C:1]([C:2]#[C:3][C:4](/[C:5](=[N:7]\[C:6]([H:14])([H:15])[H:16])[H:13])([H:11])[H:12])([H:8])([H:9])[H:10]"
C        2.73215206       0.65959114       2.10222998
C        1.74629390       0.18066748       1.13982671
C        0.98350350      -0.22838924       0.31028304
C        0.06316282      -0.77311192      -0.68466820
C       -1.39320532      -0.55269474      -0.33642661
C       -2.19551180       0.39571335      -1.56730355
N       -2.41696428      -1.01685410      -1.08339920
H        2.53535700       1.69768693       2.37452552
H        3.74001042       0.60471953       1.68785068
H        2.70698286       0.05939148       3.01301952
H        0.23153768      -1.84767926      -0.80488615
H        0.32657387      -0.35946034      -1.66127660
H       -1.60469785      -0.45460733       0.73117635
H       -1.64619668       0.47539510      -2.50273012
H       -2.41111357       1.34791432      -1.09353344
H       -3.39788462      -0.18828241      -1.62468793
16
Frame=13 idx=007996 GeodesicLength=1.2619507410435016 rxn_smarts="[C:1]([C:2]#[C:3][C:4]([C@@:5]1([H:13])[C:6]([H:14])([H:15])[N:7]1[H:16])([H:11])[H:12])([H:8])([H:9])[H:10]>>[C:1]([C:2]#[C:3][C:4](/[C:5](=[N:7]\[C:6]([H:14])([H:15])[H:16])[H:13])([H:11])[H:12])([H:8])([H:9])[H:10]"
C        2.74708555       0.64149464       2.12083821
C        1.75784702       0.16634874       1.16005866
C        0.99239252      -0.23078182       0.32728277
C        0.06628781      -0.73381743      -0.68421539
C       -1.38743288      -0.52220310      -0.32554134
C       -2.21618404       0.36698815      -1.60827421
N       -2.41721305      -1.00318235      -1.05331988
H        2.54644854       1.67569316       2.40486120
H        3.75260897       0.59629251       1.69967828
H        2.73068441       0.03188317       3.02555361
H        0.23414333      -1.80287607      -0.84728885
H        0.32815695      -0.28201736      -1.64433674
H       -1.59329574      -0.41287008       0.74147502
H       -1.69100596       0.39115230      -2.56068006
H       -2.41272848       1.34490918      -1.18074538
H       -3.43779496      -0.22701365      -1.57534591
16
Frame=14 idx=007996 GeodesicLength=1.3556684971060866 rxn_smarts="[C:1]([C:2]#[C:3][C:4]([C@@:5]1([H:13])[C:6]([H:14])([H:15])[N:7]1[H:16])([H:11])[H:12])([H:8])([H:9])[H:10]>>[C:1]([C:2]#[C:3][C:4](/[C:5](=[N:7]\[C:6]([H:14])([H:15])[H:16])[H:13])([H:11])[H:12])([H:8])([H:9])[H:10]"
C        2.76292877       0.62014151       2.14049010
C        1.76982797       0.15608549       1.17829315
C        1.00157175      -0.22639670       0.34133397
C        0.06925100      -0.68821295      -0.68411208
C       -1.38184284      -0.48672600      -0.31452778
C       -2.23839714       0.33206708      -1.65103003
N       -2.41695872      -0.98878924      -1.02019197
H        2.56176845       1.64988079       2.43989168
H        3.76642145       0.58277603       1.71375658
H        2.75205816      -0.00214467       3.03661648
H        0.23764384      -1.74980409      -0.89009669
H        0.32669436      -0.19764985      -1.62639963
H       -1.58116469      -0.36306294       0.75155735
H       -1.73619690       0.29491642      -2.61551013
H       -2.41867681       1.33471908      -1.27689999
H       -3.47492864      -0.26779996      -1.52317100
16
Frame=15 idx=007996 GeodesicLength=1.4492805085504994 rxn_smarts="[C:1]([C:2]#[C:3][C:4]([C@@:5]1([H:13])[C:6]([H:14])([H:15])[N:7]1[H:16])([H:11])[H:12])([H:8])([H:9])[H:10]>>[C:1]([C:2]#[C:3][C:4](/[C:5](=[N:7]\[C:6]([H:14])([H:15])[H:16])[H:13])([H:11])[H:12])([H:8])([H:9])[H:10]"
C        2.77748750       0.59745829       2.15985921
C        1.78259503       0.14617959       1.19346697
C        1.01189986      -0.22079897       0.35189339
C        0.07209059      -0.63974467      -0.68516898
C       -1.37608591      -0.44847785      -0.30369862
C       -2.25989004       0.29313391      -1.69284368
N       -2.41642436      -0.97196372      -0.98580822
H        2.57582522       1.62233844       2.47513771
H        3.77991182       0.56775921       1.73002457
H        2.76958617      -0.03824347       3.04654693
H        0.24061515      -1.69188823      -0.93507821
H        0.32242014      -0.10933690      -1.60778436
H       -1.56777445      -0.31002954       0.76137078
H       -1.77912110       0.19079090      -2.66370625
H       -2.42496044       1.31812427      -1.37665668
H       -3.50817519      -0.30530125      -1.46755456
16
Frame=16 idx=007996 GeodesicLength=1.5426397890998345 rxn_smarts="[C:1]([C:2]#[C:3][C:4]([C@@:5]1([H:13])[C:6]([H:14])([H:15])[N:7]1[H:16])([H:11])[H:12])([H:8])([H:9])[H:10]>>[C:1]([C:2]#[C:3][C:4](/[C:5](=[N:7]\[C:6]([H:14])([H:15])[H:16])[H:13])([H:11])[H:12])([H:8])([H:9])[H:10]"
C        2.79298257       0.57356080       2.17782463
C        1.79277721       0.13849813       1.20948765
C        1.01906531      -0.21211535       0.36377835
C        0.07349158      -0.58770077      -0.68467662
C       -1.37255059      -0.40894502      -0.29340764
C       -2.28008126       0.25057747      -1.73413316
N       -2.41549293      -0.95388461      -0.95454304
H        2.59546984       1.59439620       2.50844600
H        3.79352622       0.54725119       1.74341429
H        2.78689297      -0.07474140       3.05535255
H        0.24369326      -1.62798890      -0.97926704
H        0.31531772      -0.01610250      -1.58492335
H       -1.55827192      -0.25824452       0.77044427
H       -1.81598544       0.08294275      -2.70422033
H       -2.43377232       1.29398388      -1.47813319
H       -3.53706222      -0.34148735      -1.41544339
