10
Frame=0 idx=005548 GeodesicLength=0.0 rxn_smarts="[O:1]([c:2]1[n:3][n:4]([H:8])[c:5]([H:9])[c:6]1[H:10])[H:7]>>[O:1]([C:2]1=[C+:6][C:5]([H:9])([H:10])[N:4]([H:8])[N-:3]1)[H:7]"
O        2.35049124       0.11331982      -0.14140990
C        1.01295772       0.08166255      -0.00446447
N        0.35678245      -1.05494097      -0.11813864
N       -0.91877563      -0.78787285       0.11371512
C       -1.08678581       0.60361039       0.25835891
C        0.22091982       1.23319576       0.32616014
H        2.66066800      -0.78392377      -0.29735482
H       -1.60674017      -1.48171989      -0.11974972
H       -1.97992896       0.96672679       0.75299292
H       -1.00958866       1.10994217      -0.77010953
10
Frame=1 idx=005548 GeodesicLength=0.06372793804124025 rxn_smarts="[O:1]([c:2]1[n:3][n:4]([H:8])[c:5]([H:9])[c:6]1[H:10])[H:7]>>[O:1]([C:2]1=[C+:6][C:5]([H:9])([H:10])[N:4]([H:8])[N-:3]1)[H:7]"
O        2.34802287       0.11528510      -0.14956520
C        1.01268879       0.07815813       0.00715339
N        0.35791309      -1.06025128      -0.10325708
N       -0.91999349      -0.78975218       0.10857124
C       -1.09017564       0.60022200       0.25453992
C        0.21535010       1.22895676       0.31781539
H        2.66016594      -0.78212597      -0.30039008
H       -1.60622703      -1.48766114      -0.11714646
H       -1.97968486       0.96061017       0.75764560
H       -0.99805978       1.13655840      -0.77536673
10
Frame=2 idx=005548 GeodesicLength=0.12745088063949897 rxn_smarts="[O:1]([c:2]1[n:3][n:4]([H:8])[c:5]([H:9])[c:6]1[H:10])[H:7]>>[O:1]([C:2]1=[C+:6][C:5]([H:9])([H:10])[N:4]([H:8])[N-:3]1)[H:7]"
O        2.34529814       0.11709892      -0.15763367
C        1.01230821       0.07495852       0.01790961
N        0.35901688      -1.06540183      -0.08834485
N       -0.92102943      -0.79172064       0.10311633
C       -1.09361910       0.59676289       0.25024213
C        0.20978344       1.22450755       0.30972595
H        2.65946544      -0.78047125      -0.30305040
H       -1.60554196      -1.49388542      -0.11385167
H       -1.97932423       0.95417696       0.76213492
H       -0.98635740       1.16397431      -0.78024833
10
Frame=3 idx=005548 GeodesicLength=0.19116278682314725 rxn_smarts="[O:1]([c:2]1[n:3][n:4]([H:8])[c:5]([H:9])[c:6]1[H:10])[H:7]>>[O:1]([C:2]1=[C+:6][C:5]([H:9])([H:10])[N:4]([H:8])[N-:3]1)[H:7]"
O        2.34240019       0.11872403      -0.16547071
C        1.01178801       0.07209216       0.02743652
N        0.36007148      -1.07036216      -0.07365287
N       -0.92187787      -0.79378694       0.09729845
C       -1.09711653       0.59321581       0.24549292
C        0.20420723       1.21988620       0.30171526
H        2.65864963      -0.77901811      -0.30502192
H       -1.60470652      -1.50038911      -0.10974526
H       -1.97878243       0.94737676       0.76659854
H       -0.97463319       1.19226135      -0.78465094
10
Frame=4 idx=005548 GeodesicLength=0.2548564783804629 rxn_smarts="[O:1]([c:2]1[n:3][n:4]([H:8])[c:5]([H:9])[c:6]1[H:10])[H:7]>>[O:1]([C:2]1=[C+:6][C:5]([H:9])([H:10])[N:4]([H:8])[N-:3]1)[H:7]"
O        2.33941420       0.12013595      -0.17280881
C        1.01112548       0.06952894       0.03577942
N        0.36107009      -1.07514073      -0.05915333
N       -0.92254988      -0.79596643       0.09113035
C       -1.10068283       0.58957169       0.24026525
C        0.19859591       1.21511664       0.29374246
H        2.65771266      -0.77773038      -0.30660610
H       -1.60373129      -1.50716333      -0.10474374
H       -1.97809302       0.94021945       0.77093514
H       -0.96286132       1.22142821      -0.78854063
10
Frame=5 idx=005548 GeodesicLength=0.31853165952732154 rxn_smarts="[O:1]([c:2]1[n:3][n:4]([H:8])[c:5]([H:9])[c:6]1[H:10])[H:7]>>[O:1]([C:2]1=[C+:6][C:5]([H:9])([H:10])[N:4]([H:8])[N-:3]1)[H:7]"
O        2.33636713       0.12135191      -0.17970625
C        1.01031716       0.06723154       0.04299920
N        0.36200090      -1.07973662      -0.04488243
N       -0.92305235      -0.79828547       0.08462906
C       -1.10432207       0.58581036       0.23455771
C        0.19293054       1.21020952       0.28577020
H        2.65667662      -0.77660367      -0.30778179
H       -1.60262465      -1.51415616      -0.09882708
H       -1.97726763       0.93269851       0.77509323
H       -0.95102565       1.25148007      -0.79185185
10
Frame=6 idx=005548 GeodesicLength=0.3821853231210185 rxn_smarts="[O:1]([c:2]1[n:3][n:4]([H:8])[c:5]([H:9])[c:6]1[H:10])[H:7]>>[O:1]([C:2]1=[C+:6][C:5]([H:9])([H:10])[N:4]([H:8])[N-:3]1)[H:7]"
O        2.33331386       0.12238235      -0.18608627
C        1.00937034       0.06516102       0.04920355
N        0.36285543      -1.08415864      -0.03088486
N       -0.92339712      -0.80077232       0.07785169
C       -1.10804746       0.58192030       0.22835879
C        0.18719264       1.20518208       0.27776237
H        2.65555435      -0.77561907      -0.30869576
H       -1.60139936      -1.52134307      -0.09195400
H       -1.97635076       0.92483756       0.77897781
H       -0.93909192       1.28240978      -0.79453333
10
Frame=7 idx=005548 GeodesicLength=0.4457786558564769 rxn_smarts="[O:1]([c:2]1[n:3][n:4]([H:8])[c:5]([H:9])[c:6]1[H:10])[H:7]>>[O:1]([C:2]1=[C+:6][C:5]([H:9])([H:10])[N:4]([H:8])[N-:3]1)[H:7]"
O        2.33024221       0.12324748      -0.19219606
C        1.00827832       0.06328691       0.05435767
N        0.36361493      -1.08839318      -0.01732289
N       -0.92359624      -0.80342774       0.07088901
C       -1.11185296       0.57787792       0.22171013
C        0.18137863       1.20003056       0.26961561
H        2.65442094      -0.77480006      -0.30899829
H       -1.60005131      -1.52865658      -0.08420021
H       -1.97529866       0.91663515       0.78262253
H       -0.92713585       1.31419953      -0.79647749
10
Frame=8 idx=005548 GeodesicLength=0.5093633961019447 rxn_smarts="[O:1]([c:2]1[n:3][n:4]([H:8])[c:5]([H:9])[c:6]1[H:10])[H:7]>>[O:1]([C:2]1=[C+:6][C:5]([H:9])([H:10])[N:4]([H:8])[N-:3]1)[H:7]"
O        2.32714493       0.12398009      -0.19806379
C        1.00705829       0.06155820       0.05874705
N        0.36429368      -1.09247895      -0.00403026
N       -0.92364651      -0.80632947       0.06381646
C       -1.11575048       0.57366658       0.21456924
C        0.17546235       1.19476189       0.26139179
H        2.65323926      -0.77408774      -0.30902273
H       -1.59859198      -1.53604118      -0.07558891
H       -1.97421797       0.90813317       0.78583300
H       -0.91499159       1.34683741      -0.79765186
10
Frame=9 idx=005548 GeodesicLength=0.572883777003778 rxn_smarts="[O:1]([c:2]1[n:3][n:4]([H:8])[c:5]([H:9])[c:6]1[H:10])[H:7]>>[O:1]([C:2]1=[C+:6][C:5]([H:9])([H:10])[N:4]([H:8])[N-:3]1)[H:7]"
O        2.32407859       0.12457583      -0.20329482
C        1.00572526       0.05994624       0.06264741
N        0.36490932      -1.09642078       0.00921866
N       -0.92355347      -0.80948148       0.05700005
C       -1.11974207       0.56927108       0.20693732
C        0.16943096       1.18938424       0.25301251
H        2.65186488      -0.77342542      -0.30945737
H       -1.59694266      -1.54342910      -0.06639985
H       -1.97315371       0.89944016       0.78842190
H       -0.90261710       1.38013923      -0.79808581
10
Frame=10 idx=005548 GeodesicLength=0.6363795697685425 rxn_smarts="[O:1]([c:2]1[n:3][n:4]([H:8])[c:5]([H:9])[c:6]1[H:10])[H:7]>>[O:1]([C:2]1=[C+:6][C:5]([H:9])([H:10])[N:4]([H:8])[N-:3]1)[H:7]"
O        2.32100325       0.12506927      -0.20826320
C        1.00428189       0.05843983       0.06602891
N        0.36547432      -1.10023208       0.02240778
N       -0.92331518      -0.81294752       0.05067210
C       -1.12382672       0.56467360       0.19887592
C        0.16327667       1.18391156       0.24438032
H        2.65038450      -0.77283825      -0.30994387
H       -1.59513238      -1.55076372      -0.05691598
H       -1.97210513       0.89060968       0.79045316
H       -0.89004122       1.41407763      -0.79769513
10
Frame=11 idx=005548 GeodesicLength=0.6998499791509222 rxn_smarts="[O:1]([c:2]1[n:3][n:4]([H:8])[c:5]([H:9])[c:6]1[H:10])[H:7]>>[O:1]([C:2]1=[C+:6][C:5]([H:9])([H:10])[N:4]([H:8])[N-:3]1)[H:7]"
O        2.31788198       0.12547265      -0.21320609
C        1.00273278       0.05702578       0.06891805
N        0.36600406      -1.10391990       0.03561724
N       -0.92294535      -0.81674367       0.04498132
C       -1.12800482       0.55986051       0.19040130
C        0.15699729       1.17833864       0.23544921
H        2.64882983      -0.77233380      -0.31034671
H       -1.59315051      -1.55805006      -0.04731756
H       -1.97108128       0.88168358       0.79189133
H       -0.87726398       1.44866628      -0.79638810
10
Frame=12 idx=005548 GeodesicLength=0.7633021630265824 rxn_smarts="[O:1]([c:2]1[n:3][n:4]([H:8])[c:5]([H:9])[c:6]1[H:10])[H:7]>>[O:1]([C:2]1=[C+:6][C:5]([H:9])([H:10])[N:4]([H:8])[N-:3]1)[H:7]"
O        2.31469642       0.12579999      -0.21813307
C        1.00108947       0.05569710       0.07147099
N        0.36652958      -1.10748672       0.04908115
N       -0.92242071      -0.82089988       0.04014884
C       -1.13227373       0.55481517       0.18150394
C        0.15057890       1.17266918       0.22618881
H        2.64713788      -0.77188674      -0.31092133
H       -1.59100050      -1.56530266      -0.03784139
H       -1.97013336       0.87273865       0.79262540
H       -0.86420395       1.48385591      -0.79412334
10
Frame=13 idx=005548 GeodesicLength=0.8267154699289251 rxn_smarts="[O:1]([c:2]1[n:3][n:4]([H:8])[c:5]([H:9])[c:6]1[H:10])[H:7]>>[O:1]([C:2]1=[C+:6][C:5]([H:9])([H:10])[N:4]([H:8])[N-:3]1)[H:7]"
O        2.31141373       0.12603566      -0.22341716
C        0.99933794       0.05446045       0.07343370
N        0.36705272      -1.11091875       0.06263154
N       -0.92179671      -0.82540299       0.03646636
C       -1.13663055       0.54953332       0.17231925
C        0.14403386       1.16691514       0.21634230
H        2.64547300      -0.77154519      -0.31099512
H       -1.58868303      -1.57253811      -0.02887256
H       -1.96914219       0.86386091       0.79289676
H       -0.85105876       1.51959955      -0.79080508
10
Frame=14 idx=005548 GeodesicLength=0.8901113065396039 rxn_smarts="[O:1]([c:2]1[n:3][n:4]([H:8])[c:5]([H:9])[c:6]1[H:10])[H:7]>>[O:1]([C:2]1=[C+:6][C:5]([H:9])([H:10])[N:4]([H:8])[N-:3]1)[H:7]"
O        2.30806564       0.12619187      -0.22872988
C        0.99750152       0.05330773       0.07512496
N        0.36761782      -1.11421565       0.07665910
N       -0.92103359      -0.83027103       0.03392647
C       -1.14108439       0.54399521       0.16272330
C        0.13733532       1.16106757       0.20600713
H        2.64364919      -0.77125975      -0.31137480
H       -1.58618483      -1.57985364      -0.02032298
H       -1.96827092       0.85509620       0.79237614
H       -0.83759574       1.55594150      -0.78638944
10
Frame=15 idx=005548 GeodesicLength=0.9534901762204062 rxn_smarts="[O:1]([c:2]1[n:3][n:4]([H:8])[c:5]([H:9])[c:6]1[H:10])[H:7]>>[O:1]([C:2]1=[C+:6][C:5]([H:9])([H:10])[N:4]([H:8])[N-:3]1)[H:7]"
O        2.30459552       0.12625224      -0.23447108
C        0.99556734       0.05222947       0.07635244
N        0.36821593      -1.11736525       0.09099138
N       -0.92016908      -0.83547833       0.03234945
C       -1.14564042       0.53818091       0.15268224
C        0.13048418       1.15509976       0.19510037
H        2.64181057      -0.77106180      -0.31147554
H       -1.58351978      -1.58732957      -0.01198558
H       -1.96750197       0.84640685       0.79108208
H       -0.82384229       1.59306572      -0.78062575
10
Frame=16 idx=005548 GeodesicLength=1.016859267869454 rxn_smarts="[O:1]([c:2]1[n:3][n:4]([H:8])[c:5]([H:9])[c:6]1[H:10])[H:7]>>[O:1]([C:2]1=[C+:6][C:5]([H:9])([H:10])[N:4]([H:8])[N-:3]1)[H:7]"
O        2.30099530       0.12621314      -0.24060805
C        0.99353757       0.05121626       0.07719334
N        0.36885675      -1.12035487       0.10568915
N       -0.91919899      -0.84102358       0.03158052
C       -1.15030588       0.53206004       0.14206241
C        0.12346275       1.14898743       0.18363067
H        2.63991639      -0.77093685      -0.31147070
H       -1.58067281      -1.59504055      -0.00356460
H       -1.96692700       0.83777269       0.78878871
H       -0.80966408       1.63110628      -0.77330146
