10
Frame=0 idx=001229 GeodesicLength=0.0 rxn_smarts="[N:1]([c:2]1[n:3][o:4][c:5]([H:9])[c:6]1[H:10])([H:7])[H:8]>>[N:1]([C:2]1=[C:6]([H:10])[C@@:5]2([H:9])[N:3]1[O:4]2)([H:7])[H:8]"
N       -1.75568194      -0.13204152       0.03819295
C       -0.42983380      -0.09246642      -0.09370835
N        0.25570663      -1.31844266       0.09852505
O        1.55140143      -1.10101939      -0.71344480
C        1.55856896      -0.02293462       0.02707540
C        0.49028610       0.91254367      -0.22064094
H       -2.29314401       0.70738345       0.14061765
H       -2.19140485      -1.01904932       0.21885958
H        2.35999923       0.08152454       0.76319980
H        0.45410225       1.98450226      -0.25867633
10
Frame=1 idx=001229 GeodesicLength=0.027954782667526337 rxn_smarts="[N:1]([c:2]1[n:3][o:4][c:5]([H:9])[c:6]1[H:10])([H:7])[H:8]>>[N:1]([C:2]1=[C:6]([H:10])[C@@:5]2([H:9])[N:3]1[O:4]2)([H:7])[H:8]"
N       -1.76067840      -0.13341023       0.02099620
C       -0.43153652      -0.09356033      -0.09365684
N        0.25912891      -1.31281692       0.10783911
O        1.54354673      -1.10475064      -0.70978996
C        1.55953036      -0.02272387       0.03045079
C        0.49106672       0.91098030      -0.21599737
H       -2.29333448       0.70627994       0.14543872
H       -2.19419309      -1.01850061       0.21617514
H        2.37311171       0.08540988       0.75137090
H        0.45335805       1.98309249      -0.25282669
10
Frame=2 idx=001229 GeodesicLength=0.05591144277366458 rxn_smarts="[N:1]([c:2]1[n:3][o:4][c:5]([H:9])[c:6]1[H:10])([H:7])[H:8]>>[N:1]([C:2]1=[C:6]([H:10])[C@@:5]2([H:9])[N:3]1[O:4]2)([H:7])[H:8]"
N       -1.76536417      -0.13453365       0.00577544
C       -0.43322365      -0.09456219      -0.09285956
N        0.26249586      -1.30705365       0.11779736
O        1.53539316      -1.10865300      -0.70587008
C        1.56056586      -0.02250359       0.03374907
C        0.49186689       0.90943040      -0.21124701
H       -2.29372376       0.70492809       0.14978277
H       -2.19722426      -1.01816515       0.21133848
H        2.38652534       0.08941880       0.73864557
H        0.45268872       1.98169394      -0.24711203
10
Frame=3 idx=001229 GeodesicLength=0.08389902679992606 rxn_smarts="[N:1]([c:2]1[n:3][o:4][c:5]([H:9])[c:6]1[H:10])([H:7])[H:8]>>[N:1]([C:2]1=[C:6]([H:10])[C@@:5]2([H:9])[N:3]1[O:4]2)([H:7])[H:8]"
N       -1.76980911      -0.13540008      -0.00815057
C       -0.43488817      -0.09544247      -0.09135680
N        0.26581443      -1.30109112       0.12846094
O        1.52697764      -1.11276688      -0.70154188
C        1.56166506      -0.02228389       0.03700016
C        0.49269192       0.90787291      -0.20646259
H       -2.29429784       0.70336973       0.15424066
H       -2.20042316      -1.01808110       0.20439167
H        2.40017802       0.09356048       0.72500594
H        0.45209122       1.98026242      -0.24158753
10
Frame=4 idx=001229 GeodesicLength=0.1118473096575028 rxn_smarts="[N:1]([c:2]1[n:3][o:4][c:5]([H:9])[c:6]1[H:10])([H:7])[H:8]>>[N:1]([C:2]1=[C:6]([H:10])[C@@:5]2([H:9])[N:3]1[O:4]2)([H:7])[H:8]"
N       -1.77400262      -0.13617418      -0.02095514
C       -0.43655582      -0.09637849      -0.09029398
N        0.26904298      -1.29520884       0.13827958
O        1.51882986      -1.11660643      -0.69729574
C        1.56271009      -0.02206307       0.04051214
C        0.49351723       0.90633302      -0.20159944
H       -2.29485378       0.70168196       0.15778829
H       -2.20350170      -1.01787295       0.19812735
H        2.41329762       0.09744002       0.71161386
H        0.45151614       1.97884897      -0.23617693
10
Frame=5 idx=001229 GeodesicLength=0.13975820293790922 rxn_smarts="[N:1]([c:2]1[n:3][o:4][c:5]([H:9])[c:6]1[H:10])([H:7])[H:8]>>[N:1]([C:2]1=[C:6]([H:10])[C@@:5]2([H:9])[N:3]1[O:4]2)([H:7])[H:8]"
N       -1.77801431      -0.13689853      -0.03291268
C       -0.43821212      -0.09736137      -0.08947632
N        0.27222476      -1.28939625       0.14742504
O        1.51091457      -1.12019890      -0.69314649
C        1.56374339      -0.02185189       0.04423778
C        0.49434079       0.90479586      -0.19660876
H       -2.29551553       0.69998253       0.16037455
H       -2.20646106      -1.01758350       0.19255280
H        2.42603613       0.10108144       0.69830230
H        0.45094339       1.97743060      -0.23074821
10
Frame=6 idx=001229 GeodesicLength=0.16764662409925243 rxn_smarts="[N:1]([c:2]1[n:3][o:4][c:5]([H:9])[c:6]1[H:10])([H:7])[H:8]>>[N:1]([C:2]1=[C:6]([H:10])[C@@:5]2([H:9])[N:3]1[O:4]2)([H:7])[H:8]"
N       -1.78186996      -0.13760040      -0.04421359
C       -0.43984998      -0.09838479      -0.08879084
N        0.27536525      -1.28364707       0.15604565
O        1.50317325      -1.12358451      -0.68906624
C        1.56477042      -0.02164790       0.04815383
C        0.49516184       0.90325941      -0.19147735
H       -2.29625022       0.69827273       0.16211298
H       -2.20933341      -1.01721345       0.18754305
H        2.43846489       0.10453750       0.68495826
H        0.45036792       1.97600847      -0.22526575
10
Frame=7 idx=001229 GeodesicLength=0.19551983425491712 rxn_smarts="[N:1]([c:2]1[n:3][o:4][c:5]([H:9])[c:6]1[H:10])([H:7])[H:8]>>[N:1]([C:2]1=[C:6]([H:10])[C@@:5]2([H:9])[N:3]1[O:4]2)([H:7])[H:8]"
N       -1.78559415      -0.13824495      -0.05497572
C       -0.44146873      -0.09943275      -0.08816959
N        0.27845298      -1.27792924       0.16434689
O        1.49556937      -1.12684662      -0.68492707
C        1.56579336      -0.02144708       0.05226081
C        0.49598669       0.90171461      -0.18627095
H       -2.29700070       0.69654201       0.16354254
H       -2.21217348      -1.01682752       0.18257821
H        2.45062495       0.10790218       0.67150698
H        0.44980972       1.97456937      -0.21989211
10
Frame=8 idx=001229 GeodesicLength=0.22338341819569418 rxn_smarts="[N:1]([c:2]1[n:3][o:4][c:5]([H:9])[c:6]1[H:10])([H:7])[H:8]>>[N:1]([C:2]1=[C:6]([H:10])[C@@:5]2([H:9])[N:3]1[O:4]2)([H:7])[H:8]"
N       -1.78920061      -0.13885038      -0.06531162
C       -0.44306462      -0.10049755      -0.08751584
N        0.28149612      -1.27223726       0.17243141
O        1.48805706      -1.13001468      -0.68072304
C        1.56682251      -0.02125353       0.05653142
C        0.49681739       0.90016080      -0.18097756
H       -2.29778573       0.69479310       0.16458075
H       -2.21498672      -1.01642124       0.17766580
H        2.46258161       0.11120295       0.65782358
H        0.44926299       1.97311779      -0.21450488
10
Frame=9 idx=001229 GeodesicLength=0.2512420050868505 rxn_smarts="[N:1]([c:2]1[n:3][o:4][c:5]([H:9])[c:6]1[H:10])([H:7])[H:8]>>[N:1]([C:2]1=[C:6]([H:10])[C@@:5]2([H:9])[N:3]1[O:4]2)([H:7])[H:8]"
N       -1.79269758      -0.13943033      -0.07531053
C       -0.44463598      -0.10157011      -0.08672265
N        0.28450214      -1.26656151       0.18040910
O        1.48058954      -1.13311918      -0.67643666
C        1.56786820      -0.02107078       0.06094089
C        0.49765660       0.89859620      -0.17558539
H       -2.29862334       0.69303286       0.16516772
H       -2.21778277      -1.01600220       0.17276483
H        2.47439701       0.11447038       0.64377209
H        0.44872618       1.97165467      -0.20899941
10
Frame=10 idx=001229 GeodesicLength=0.27910035061824645 rxn_smarts="[N:1]([c:2]1[n:3][o:4][c:5]([H:9])[c:6]1[H:10])([H:7])[H:8]>>[N:1]([C:2]1=[C:6]([H:10])[C@@:5]2([H:9])[N:3]1[O:4]2)([H:7])[H:8]"
N       -1.79609087      -0.13997363      -0.08504171
C       -0.44618339      -0.10263939      -0.08572897
N        0.28746691      -1.26088384       0.18839855
O        1.47313242      -1.13620667      -0.67200587
C        1.56893578      -0.02090043       0.06548165
C        0.49851161       0.89701835      -0.17011952
H       -2.29951004       0.69124985       0.16543709
H       -2.22057791      -1.01559315       0.16769130
H        2.48610569       0.11774951       0.62924773
H        0.44820982       1.97017941      -0.20336023
10
Frame=11 idx=001229 GeodesicLength=0.3069646377139841 rxn_smarts="[N:1]([c:2]1[n:3][o:4][c:5]([H:9])[c:6]1[H:10])([H:7])[H:8]>>[N:1]([C:2]1=[C:6]([H:10])[C@@:5]2([H:9])[N:3]1[O:4]2)([H:7])[H:8]"
N       -1.79938216      -0.14048373      -0.09457669
C       -0.44770764      -0.10369414      -0.08446181
N        0.29039287      -1.25518389       0.19651398
O        1.46564582      -1.13932043      -0.66738703
C        1.57003530      -0.02074468       0.07013252
C        0.49938889       0.89542548      -0.16459420
H       -2.30046156       0.68943746       0.16536590
H       -2.22337747      -1.01520147       0.16237565
H        2.49775116       0.12107150       0.61410936
H        0.44771478       1.96869391      -0.19747768
10
Frame=12 idx=001229 GeodesicLength=0.33481929494267726 rxn_smarts="[N:1]([c:2]1[n:3][o:4][c:5]([H:9])[c:6]1[H:10])([H:7])[H:8]>>[N:1]([C:2]1=[C:6]([H:10])[C@@:5]2([H:9])[N:3]1[O:4]2)([H:7])[H:8]"
N       -1.80258886      -0.14092928      -0.10397181
C       -0.44921665      -0.10471215      -0.08284405
N        0.29326814      -1.24943074       0.20491834
O        1.45809208      -1.14252157      -0.66248150
C        1.57118766      -0.02060399       0.07488846
C        0.50030846       0.89382102      -0.15905609
H       -2.30149804       0.68755908       0.16516822
H       -2.22621695      -1.01487366       0.15651933
H        2.50939174       0.12448583       0.59821970
H        0.44727241       1.96720545      -0.19136059
10
Frame=13 idx=001229 GeodesicLength=0.36271846442084016 rxn_smarts="[N:1]([c:2]1[n:3][o:4][c:5]([H:9])[c:6]1[H:10])([H:7])[H:8]>>[N:1]([C:2]1=[C:6]([H:10])[C@@:5]2([H:9])[N:3]1[O:4]2)([H:7])[H:8]"
N       -1.80565648      -0.14131218      -0.11327037
C       -0.45069115      -0.10567207      -0.08078676
N        0.29611171      -1.24359032       0.21368812
O        1.45040481      -1.14584072      -0.65726813
C        1.57237680      -0.02046985       0.07969425
C        0.50126487       0.89221082      -0.15350462
H       -2.30259808       0.68560420       0.16479396
H       -2.22902156      -1.01461150       0.15009245
H        2.52094224       0.12796360       0.58149811
H        0.44686683       1.96571803      -0.18493702
10
Frame=14 idx=001229 GeodesicLength=0.3906143930638006 rxn_smarts="[N:1]([c:2]1[n:3][o:4][c:5]([H:9])[c:6]1[H:10])([H:7])[H:8]>>[N:1]([C:2]1=[C:6]([H:10])[C@@:5]2([H:9])[N:3]1[O:4]2)([H:7])[H:8]"
N       -1.80860375      -0.14167722      -0.12229856
C       -0.45213234      -0.10669567      -0.07894110
N        0.29891448      -1.23785560       0.22194939
O        1.44295301      -1.14896481      -0.65206209
C        1.57353512      -0.02034562       0.08479465
C        0.50221911       0.89057393      -0.14788957
H       -2.30359430       0.68369992       0.16425657
H       -2.23173204      -1.01426863       0.14404502
H        2.53198753       0.13134174       0.56484333
H        0.44645317       1.96419197      -0.17869763
10
Frame=15 idx=001229 GeodesicLength=0.4184707962523133 rxn_smarts="[N:1]([c:2]1[n:3][o:4][c:5]([H:9])[c:6]1[H:10])([H:7])[H:8]>>[N:1]([C:2]1=[C:6]([H:10])[C@@:5]2([H:9])[N:3]1[O:4]2)([H:7])[H:8]"
N       -1.81146746      -0.14203035      -0.13110102
C       -0.45354039      -0.10776316      -0.07719580
N        0.30170342      -1.23220162       0.22984533
O        1.43570568      -1.15192620      -0.64686858
C        1.57472102      -0.02021808       0.09010963
C        0.50319054       0.88892197      -0.14223969
H       -2.30455688       0.68183101       0.16353703
H       -2.23440179      -1.01386987       0.13828517
H        2.54260104       0.13461170       0.54819816
H        0.44604483       1.96264461      -0.17257023
10
Frame=16 idx=001229 GeodesicLength=0.4463135015008636 rxn_smarts="[N:1]([c:2]1[n:3][o:4][c:5]([H:9])[c:6]1[H:10])([H:7])[H:8]>>[N:1]([C:2]1=[C:6]([H:10])[C@@:5]2([H:9])[N:3]1[O:4]2)([H:7])[H:8]"
N       -1.81423093      -0.14235943      -0.13972328
C       -0.45491165      -0.10885314      -0.07542896
N        0.30447617      -1.22659324       0.23754585
O        1.42858482      -1.15479181      -0.64162097
C        1.57593383      -0.02008701       0.09559998
C        0.50418434       0.88725525      -0.13657161
H       -2.30548747       0.67997471       0.16268476
H       -2.23702619      -1.01344352       0.13259891
H        2.55282420       0.13781925       0.53139560
H        0.44565289       1.96107894      -0.16648028
