12
Frame=0 idx=003835 GeodesicLength=0.0 rxn_smarts="[N:1]#[C:2][C:3]([C@@:4]1([H:9])[C:5]([H:10])([H:11])[N:6]1[H:12])([H:7])[H:8]>>[N:1]#[C:2][C:3]([C-:4]1[C:5]([H:10])([H:11])[N+:6]1([H:9])[H:12])([H:7])[H:8]"
N       -1.99840695      -0.90363459      -0.57207752
C       -1.70461032       0.25632101      -0.70540842
C       -0.81397633       1.08373068       0.11778389
C        0.27689403       0.08610884       0.54117671
C        1.10976633      -0.77920317      -0.31427145
N        1.62301591       0.41214967       0.34766119
H       -0.32727573       1.94195656      -0.34751262
H       -1.44376676       1.42693968       0.93696750
H       -1.38722196      -1.35513041       0.17802447
H        1.07692872      -0.70232475      -1.39760336
H        1.36312128      -1.76475229       0.06313890
H        2.22553183       0.29783874       1.15212069
12
Frame=1 idx=003835 GeodesicLength=0.1886833705314527 rxn_smarts="[N:1]#[C:2][C:3]([C@@:4]1([H:9])[C:5]([H:10])([H:11])[N:6]1[H:12])([H:7])[H:8]>>[N:1]#[C:2][C:3]([C-:4]1[C:5]([H:10])([H:11])[N+:6]1([H:9])[H:12])([H:7])[H:8]"
N       -2.02466468      -0.85953577      -0.63325288
C       -1.73483029       0.30471827      -0.69856675
C       -0.82471109       1.08450382       0.15007642
C        0.26948168       0.07714239       0.52850727
C        1.11049683      -0.82147076      -0.28182409
N        1.60839138       0.41921436       0.29171650
H       -0.35155532       1.95923954      -0.29813918
H       -1.43807417       1.40218182       0.99190180
H       -1.31905066      -1.33669012       0.08158774
H        1.07065965      -0.81632675      -1.36772920
H        1.40350914      -1.77364957       0.14837882
H        2.23034754       0.36067278       1.08734356
12
Frame=2 idx=003835 GeodesicLength=0.37713092730819325 rxn_smarts="[N:1]#[C:2][C:3]([C@@:4]1([H:9])[C:5]([H:10])([H:11])[N:6]1[H:12])([H:7])[H:8]>>[N:1]#[C:2][C:3]([C-:4]1[C:5]([H:10])([H:11])[N+:6]1([H:9])[H:12])([H:7])[H:8]"
N       -2.04944307      -0.81222425      -0.69829444
C       -1.76511548       0.35256308      -0.68875451
C       -0.83585876       1.08305448       0.18335699
C        0.26218646       0.06769948       0.51428282
C        1.11275958      -0.86323298      -0.24647750
N        1.59202601       0.42316802       0.23041146
H       -0.37635138       1.97515758      -0.24439072
H       -1.43258733       1.37179525       1.04745545
H       -1.25419082      -1.31106440      -0.01737263
H        1.06984738      -0.93367097      -1.33010859
H        1.44341087      -1.77648863       0.23711454
H        2.23331653       0.42324335       1.01277713
12
Frame=3 idx=003835 GeodesicLength=0.5655411260600766 rxn_smarts="[N:1]#[C:2][C:3]([C@@:4]1([H:9])[C:5]([H:10])([H:11])[N:6]1[H:12])([H:7])[H:8]>>[N:1]#[C:2][C:3]([C-:4]1[C:5]([H:10])([H:11])[N+:6]1([H:9])[H:12])([H:7])[H:8]"
N       -2.07329428      -0.76012440      -0.76814947
C       -1.79543560       0.39989621      -0.67576732
C       -0.84744342       1.07916814       0.21794063
C        0.25478972       0.05767293       0.49899211
C        1.11615482      -0.90435230      -0.20747189
N        1.57323871       0.42318407       0.16301452
H       -0.40126636       1.98919276      -0.18553437
H       -1.42746149       1.33533023       1.10359936
H       -1.19077479      -1.27821518      -0.12008798
H        1.07416663      -1.05466457      -1.28312722
H        1.48312373      -1.77217943       0.33020117
H        2.23420233       0.48509154       0.92639045
12
Frame=4 idx=003835 GeodesicLength=0.7533683840822631 rxn_smarts="[N:1]#[C:2][C:3]([C@@:4]1([H:9])[C:5]([H:10])([H:11])[N:6]1[H:12])([H:7])[H:8]>>[N:1]#[C:2][C:3]([C-:4]1[C:5]([H:10])([H:11])[N+:6]1([H:9])[H:12])([H:7])[H:8]"
N       -2.09697594      -0.70216956      -0.84130519
C       -1.82606004       0.44578426      -0.65883836
C       -0.85931066       1.07251960       0.25349488
C        0.24687277       0.04679666       0.48337592
C        1.12019278      -0.94395887      -0.16464298
N        1.55113359       0.41806180       0.09029497
H       -0.42546246       1.99992037      -0.12297637
H       -1.42234931       1.29354884       1.15950465
H       -1.12636862      -1.23775861      -0.22772908
H        1.08381831      -1.17739760      -1.22574144
H        1.52279928      -1.75952308       0.42637773
H        2.23171030       0.54417618       0.82818528
12
Frame=5 idx=003835 GeodesicLength=0.941238154909432 rxn_smarts="[N:1]#[C:2][C:3]([C@@:4]1([H:9])[C:5]([H:10])([H:11])[N:6]1[H:12])([H:7])[H:8]>>[N:1]#[C:2][C:3]([C-:4]1[C:5]([H:10])([H:11])[N+:6]1([H:9])[H:12])([H:7])[H:8]"
N       -2.12239285      -0.63837492      -0.91472985
C       -1.85678119       0.48875231      -0.63785069
C       -0.87140061       1.06292344       0.28945518
C        0.23820861       0.03482899       0.46891221
C        1.12448232      -0.98125841      -0.11794670
N        1.52530300       0.40665541       0.01398851
H       -0.44832014       2.00635951      -0.05848719
H       -1.41740732       1.24770912       1.21397123
H       -1.05766091      -1.18844250      -0.34289417
H        1.09784607      -1.29936556      -1.15727509
H        1.56269243      -1.73767949       0.52394889
H        2.22543059       0.59789208       0.71890768
12
Frame=6 idx=003835 GeodesicLength=1.1286427271154582 rxn_smarts="[N:1]#[C:2][C:3]([C@@:4]1([H:9])[C:5]([H:10])([H:11])[N:6]1[H:12])([H:7])[H:8]>>[N:1]#[C:2][C:3]([C-:4]1[C:5]([H:10])([H:11])[N+:6]1([H:9])[H:12])([H:7])[H:8]"
N       -2.14985909      -0.57079032      -0.98433434
C       -1.88791895       0.52592306      -0.61192887
C       -0.88344630       1.05033266       0.32467617
C        0.22862621       0.02166466       0.45729211
C        1.12835337      -1.01504879      -0.06842432
N        1.49564366       0.38815637      -0.06232462
H       -0.46934604       2.00710892       0.00338642
H       -1.41196103       1.20086641       1.26557710
H       -0.98100262      -1.12753562      -0.46660980
H        1.11432637      -1.41627932      -1.07903203
H        1.60227721      -1.70712370       0.61884563
H        2.21430720       0.64272566       0.60287653
12
Frame=7 idx=003835 GeodesicLength=1.3156071812079178 rxn_smarts="[N:1]#[C:2][C:3]([C@@:4]1([H:9])[C:5]([H:10])([H:11])[N:6]1[H:12])([H:7])[H:8]>>[N:1]#[C:2][C:3]([C-:4]1[C:5]([H:10])([H:11])[N+:6]1([H:9])[H:12])([H:7])[H:8]"
N       -2.17959303      -0.50518418      -1.04483773
C       -1.91917569       0.55304425      -0.58130131
C       -0.89523069       1.03546576       0.35708913
C        0.21856233       0.00781994       0.45025277
C        1.13119396      -1.04416673      -0.01886273
N        1.46407433       0.36327602      -0.13268525
H       -0.48890710       2.00214248       0.05611186
H       -1.40569493       1.15754484       1.31213127
H       -0.89332692      -1.05168165      -0.59573368
H        1.12905311      -1.52182330      -0.99595413
H        1.63979633      -1.67118502       0.70490255
H        2.19924830       0.67474759       0.48888727
12
Frame=8 idx=003835 GeodesicLength=1.5018312404449354 rxn_smarts="[N:1]#[C:2][C:3]([C@@:4]1([H:9])[C:5]([H:10])([H:11])[N:6]1[H:12])([H:7])[H:8]>>[N:1]#[C:2][C:3]([C-:4]1[C:5]([H:10])([H:11])[N+:6]1([H:9])[H:12])([H:7])[H:8]"
N       -2.20808009      -0.44717642      -1.09662144
C       -1.94895822       0.56602558      -0.54802089
C       -0.90640984       1.01962700       0.38465414
C        0.20932969      -0.00509523       0.44885344
C        1.13249739      -1.06758305       0.02645940
N        1.43395071       0.33519807      -0.19149547
H       -0.50822911       1.99287440       0.09414222
H       -1.39880122       1.12175889       1.35162828
H       -0.79668268      -0.96259668      -0.71536932
H        1.13499913      -1.60994185      -0.91643264
H        1.67331449      -1.63569411       0.77491930
H        2.18306974       0.69260339       0.38728298
12
Frame=9 idx=003835 GeodesicLength=1.6877749606970018 rxn_smarts="[N:1]#[C:2][C:3]([C@@:4]1([H:9])[C:5]([H:10])([H:11])[N:6]1[H:12])([H:7])[H:8]>>[N:1]#[C:2][C:3]([C-:4]1[C:5]([H:10])([H:11])[N+:6]1([H:9])[H:12])([H:7])[H:8]"
N       -2.23493560      -0.39681796      -1.14342125
C       -1.97325330       0.56624096      -0.51829803
C       -0.91648186       1.00384297       0.40625863
C        0.20259729      -0.01550323       0.45222446
C        1.13314922      -1.08496305       0.06433271
N        1.40825988       0.30824517      -0.23727461
H       -0.52791428       1.98173711       0.11860783
H       -1.39312334       1.09285825       1.38250635
H       -0.69888705      -0.87149489      -0.80650592
H        1.12827200      -1.67846382      -0.84733606
H        1.70325171      -1.60488714       0.82570567
H        2.16906536       0.69920564       0.30320022
12
Frame=10 idx=003835 GeodesicLength=1.873729784246173 rxn_smarts="[N:1]#[C:2][C:3]([C@@:4]1([H:9])[C:5]([H:10])([H:11])[N:6]1[H:12])([H:7])[H:8]>>[N:1]#[C:2][C:3]([C-:4]1[C:5]([H:10])([H:11])[N+:6]1([H:9])[H:12])([H:7])[H:8]"
N       -2.26397688      -0.34753195      -1.18962488
C       -1.99119914       0.55906775      -0.49546718
C       -0.92539112       0.98817813       0.42274196
C        0.19878090      -0.02348097       0.45801653
C        1.13503455      -1.09750698       0.09537288
N        1.38733706       0.28430036      -0.27355874
H       -0.54760238       1.97026799       0.13523349
H       -1.38957248       1.06737987       1.40595047
H       -0.60611878      -0.79027856      -0.86505961
H        1.11272335      -1.73186425      -0.78821577
H        1.73208331      -1.57866039       0.86124281
H        2.15790161       0.70012902       0.23336806
12
Frame=11 idx=003835 GeodesicLength=2.059881698512013 rxn_smarts="[N:1]#[C:2][C:3]([C@@:4]1([H:9])[C:5]([H:10])([H:11])[N:6]1[H:12])([H:7])[H:8]>>[N:1]#[C:2][C:3]([C-:4]1[C:5]([H:10])([H:11])[N+:6]1([H:9])[H:12])([H:7])[H:8]"
N       -2.30170908      -0.29632011      -1.23273663
C       -2.00385699       0.54857501      -0.47999918
C       -0.93309492       0.97230165       0.43455888
C        0.19728655      -0.03006177       0.46406587
C        1.13920038      -1.10657254       0.12127856
N        1.37099896       0.26348974      -0.30268412
H       -0.56666400       1.95858524       0.14684736
H       -1.38750133       1.04342008       1.42308980
H       -0.51867395      -0.72163591      -0.90002985
H        1.09425017      -1.77425044      -0.73667299
H        1.76055781      -1.55595607       0.88672521
H        2.14920640       0.69842514       0.17555709
12
Frame=12 idx=003835 GeodesicLength=2.246198115454351 rxn_smarts="[N:1]#[C:2][C:3]([C@@:4]1([H:9])[C:5]([H:10])([H:11])[N:6]1[H:12])([H:7])[H:8]>>[N:1]#[C:2][C:3]([C-:4]1[C:5]([H:10])([H:11])[N+:6]1([H:9])[H:12])([H:7])[H:8]"
N       -2.35310754      -0.24251720      -1.26945814
C       -2.01265458       0.53656699      -0.47123358
C       -0.93961125       0.95595121       0.44174207
C        0.19744396      -0.03620301       0.46910595
C        1.14598284      -1.11322262       0.14328706
N        1.35935537       0.24564952      -0.32558437
H       -0.58474693       1.94641338       0.15393104
H       -1.38599941       1.02057870       1.43455102
H       -0.43491298      -0.66418105      -0.92027151
H        1.07699074      -1.80819014      -0.69125562
H        1.78836301      -1.53640898       0.90587093
H        2.14289675       0.69556321       0.12931515
12
Frame=13 idx=003835 GeodesicLength=2.432653458243507 rxn_smarts="[N:1]#[C:2][C:3]([C@@:4]1([H:9])[C:5]([H:10])([H:11])[N:6]1[H:12])([H:7])[H:8]>>[N:1]#[C:2][C:3]([C-:4]1[C:5]([H:10])([H:11])[N+:6]1([H:9])[H:12])([H:7])[H:8]"
N       -2.42035552      -0.18128972      -1.30078169
C       -2.01948143       0.52151062      -0.46676592
C       -0.94521681       0.93833879       0.44456420
C        0.19891414      -0.04271512       0.47270566
C        1.15576854      -1.11820165       0.16270401
N        1.35223283       0.23037772      -0.34331373
H       -0.60251222       1.93283895       0.15583195
H       -1.38400362       0.99872340       1.44128738
H       -0.35354084      -0.61711578      -0.93080360
H        1.06319220      -1.83605895      -0.65013464
H        1.81609491      -1.51909628       0.92152851
H        2.13890784       0.69268802       0.09317788
12
Frame=14 idx=003835 GeodesicLength=2.6193475557921957 rxn_smarts="[N:1]#[C:2][C:3]([C@@:4]1([H:9])[C:5]([H:10])([H:11])[N:6]1[H:12])([H:7])[H:8]>>[N:1]#[C:2][C:3]([C-:4]1[C:5]([H:10])([H:11])[N+:6]1([H:9])[H:12])([H:7])[H:8]"
N       -2.50926071      -0.11375085      -1.31941202
C       -2.02342700       0.50449843      -0.46917388
C       -0.94977569       0.91930519       0.44180780
C        0.20127151      -0.05035100       0.47402289
C        1.16858142      -1.12212717       0.17990077
N        1.35044683       0.21776862      -0.35522611
H       -0.61931827       1.91765515       0.15198139
H       -1.38200894       0.97752778       1.44176675
H       -0.27201864      -0.57762061      -0.93663949
H        1.05525376      -1.85839644      -0.61385072
H        1.84271820      -1.50463333       0.93556087
H        2.13753751       0.69012421       0.06926175
12
Frame=15 idx=003835 GeodesicLength=2.805843735203326 rxn_smarts="[N:1]#[C:2][C:3]([C@@:4]1([H:9])[C:5]([H:10])([H:11])[N:6]1[H:12])([H:7])[H:8]>>[N:1]#[C:2][C:3]([C-:4]1[C:5]([H:10])([H:11])[N+:6]1([H:9])[H:12])([H:7])[H:8]"
N       -2.62006597      -0.02643053      -1.32643769
C       -2.02651016       0.47954936      -0.47651733
C       -0.95423962       0.89677303       0.43310954
C        0.20459058      -0.05994069       0.47295543
C        1.18541837      -1.12533616       0.19639150
N        1.35361886       0.20714692      -0.36266023
H       -0.63727357       1.89870041       0.14032213
H       -1.37978154       0.95625465       1.43620330
H       -0.18947607      -0.54721606      -0.93879196
H        1.05526272      -1.87744052      -0.58003849
H        1.87003811      -1.49105324       0.95041642
H        2.13841829       0.68899283       0.05504738
12
Frame=16 idx=003835 GeodesicLength=2.990512131780266 rxn_smarts="[N:1]#[C:2][C:3]([C@@:4]1([H:9])[C:5]([H:10])([H:11])[N:6]1[H:12])([H:7])[H:8]>>[N:1]#[C:2][C:3]([C-:4]1[C:5]([H:10])([H:11])[N+:6]1([H:9])[H:12])([H:7])[H:8]"
N       -2.75821384       0.07954363      -1.30400729
C       -2.02667087       0.44810148      -0.49715821
C       -0.95907062       0.87018301       0.41474354
C        0.20829955      -0.07202270       0.46800594
C        1.20601670      -1.12823203       0.21226979
N        1.36346820       0.19906032      -0.36360144
H       -0.65572895       1.87561005       0.11915537
H       -1.37996116       0.93378025       1.41994095
H       -0.10185843      -0.52237271      -0.94160446
H        1.06538484      -1.89260171      -0.55058198
H        1.89578127      -1.47996955       0.96771159
H        2.14255332       0.68891996       0.05512619
