13
Frame=0 idx=011621 GeodesicLength=0.0 rxn_smarts="[C:1]([O:2][c:3]1[n:4][n:5]([H:11])[c:6]([H:12])[c:7]1[H:13])([H:8])([H:9])[H:10]>>[C:1]([O:2][C:3]#[N+:4][N-:5][H:11])([H:8])([H:9])[H:10].[C:6](#[C:7][H:13])[H:12]"
C       -2.20419705       0.60742659       0.24391277
O       -1.53259359      -0.45958557      -0.44567850
C       -0.25939736      -0.28899108      -0.67655512
N        0.42914545       0.73822698      -0.71876493
N        1.53727628       1.13384278      -0.28147347
C        2.24878777      -1.10684136       0.44574532
C        1.23603977      -1.75050642       0.27622303
H       -3.23229325       0.28396547       0.38489479
H       -1.72565586       0.78472899       1.20754320
H       -2.16798944       1.51294129      -0.36420775
H        1.95907562       1.74189696      -0.98774387
H        3.18445461      -0.65083832       0.66047693
H        0.52734707      -2.54626625       0.25562764
13
Frame=1 idx=011621 GeodesicLength=0.05961725383604882 rxn_smarts="[C:1]([O:2][c:3]1[n:4][n:5]([H:11])[c:6]([H:12])[c:7]1[H:13])([H:8])([H:9])[H:10]>>[C:1]([O:2][C:3]#[N+:4][N-:5][H:11])([H:8])([H:9])[H:10].[C:6](#[C:7][H:13])[H:12]"
C       -2.19631331       0.60440114       0.24559139
O       -1.53468792      -0.45625610      -0.46220124
C       -0.25907593      -0.29023119      -0.69099371
N        0.42634535       0.74137771      -0.73328080
N        1.54011913       1.11729550      -0.28574976
C        2.21789960      -1.07735286       0.47348523
C        1.22201490      -1.74644252       0.27501756
H       -3.22398889       0.28211218       0.39229187
H       -1.70838458       0.77099275       1.20658124
H       -2.16303010       1.51666064      -0.35265098
H        1.97000324       1.74011245      -0.97293082
H        3.17290299      -0.64005515       0.63904860
H        0.53619552      -2.56261456       0.26579141
13
Frame=2 idx=011621 GeodesicLength=0.11938132692634335 rxn_smarts="[C:1]([O:2][c:3]1[n:4][n:5]([H:11])[c:6]([H:12])[c:7]1[H:13])([H:8])([H:9])[H:10]>>[C:1]([O:2][C:3]#[N+:4][N-:5][H:11])([H:8])([H:9])[H:10].[C:6](#[C:7][H:13])[H:12]"
C       -2.18854063       0.60092474       0.24636443
O       -1.53621195      -0.45274128      -0.47929742
C       -0.25809885      -0.29102376      -0.70525167
N        0.42407322       0.74508550      -0.74656543
N        1.54303123       1.10150033      -0.28893976
C        2.18961291      -1.05027015       0.49358836
C        1.20592818      -1.74035524       0.28018836
H       -3.21577633       0.27943510       0.39789986
H       -1.69203532       0.75661751       1.20494636
H       -2.15785781       1.52003503      -0.34156023
H        1.97990694       1.74062296      -0.95530455
H        3.16078743      -0.63257843       0.61361126
H        0.54518096      -2.57725230       0.28032044
13
Frame=3 idx=011621 GeodesicLength=0.1785540246750274 rxn_smarts="[C:1]([O:2][c:3]1[n:4][n:5]([H:11])[c:6]([H:12])[c:7]1[H:13])([H:8])([H:9])[H:10]>>[C:1]([O:2][C:3]#[N+:4][N-:5][H:11])([H:8])([H:9])[H:10].[C:6](#[C:7][H:13])[H:12]"
C       -2.18306029       0.59970954       0.24594377
O       -1.53843741      -0.44960915      -0.49184689
C       -0.25752336      -0.29289538      -0.71357778
N        0.42146947       0.74755409      -0.75618564
N        1.54587172       1.08527662      -0.29073609
C        2.16610887      -1.02597652       0.50731937
C        1.19082082      -1.73435167       0.29017881
H       -3.21003946       0.27934309       0.40161945
H       -1.67992292       0.74853232       1.20231662
H       -2.15397269       1.52319531      -0.33528684
H        1.98743153       1.74171150      -0.93569214
H        3.15008019      -0.62705829       0.58607949
H        0.56117351      -2.59543145       0.28986788
13
Frame=4 idx=011621 GeodesicLength=0.23718709291399367 rxn_smarts="[C:1]([O:2][c:3]1[n:4][n:5]([H:11])[c:6]([H:12])[c:7]1[H:13])([H:8])([H:9])[H:10]>>[C:1]([O:2][C:3]#[N+:4][N-:5][H:11])([H:8])([H:9])[H:10].[C:6](#[C:7][H:13])[H:12]"
C       -2.17929707       0.59995335       0.24446652
O       -1.54115110      -0.44670224      -0.50175019
C       -0.25721109      -0.29543511      -0.71801712
N        0.41869516       0.74922149      -0.76311512
N        1.54854014       1.06883398      -0.29113348
C        2.14649181      -1.00442986       0.51535752
C        1.17723370      -1.72932813       0.30066197
H       -3.20619036       0.28093615       0.40352185
H       -1.67102097       0.74436245       1.19895795
H       -2.15100487       1.52632797      -0.33231070
H        1.99306125       1.74379680      -0.91335099
H        3.14059026      -0.62345049       0.55634349
H        0.58126313      -2.61408636       0.30036829
13
Frame=5 idx=011621 GeodesicLength=0.2962787229436162 rxn_smarts="[C:1]([O:2][c:3]1[n:4][n:5]([H:11])[c:6]([H:12])[c:7]1[H:13])([H:8])([H:9])[H:10]>>[C:1]([O:2][C:3]#[N+:4][N-:5][H:11])([H:8])([H:9])[H:10].[C:6](#[C:7][H:13])[H:12]"
C       -2.17413430       0.59807817       0.24291377
O       -1.54256849      -0.44332024      -0.51523762
C       -0.25584001      -0.29646601      -0.72649282
N        0.41675953       0.75264193      -0.77103868
N        1.55158525       1.05370838      -0.29197988
C        2.12691627      -0.98381726       0.52008402
C        1.15945332      -1.72161333       0.31566412
H       -3.20072586       0.27954969       0.40494731
H       -1.66024950       0.73529748       1.19562330
H       -2.14723175       1.52909137      -0.32653821
H        1.99914850       1.74775829      -0.88930224
H        3.12988496      -0.62237573       0.52356287
H        0.59700208      -2.62853273       0.31779405
13
Frame=6 idx=011621 GeodesicLength=0.3554162033844975 rxn_smarts="[C:1]([O:2][c:3]1[n:4][n:5]([H:11])[c:6]([H:12])[c:7]1[H:13])([H:8])([H:9])[H:10]>>[C:1]([O:2][C:3]#[N+:4][N-:5][H:11])([H:8])([H:9])[H:10].[C:6](#[C:7][H:13])[H:12]"
C       -2.16972464       0.59747952       0.24127081
O       -1.54454129      -0.44012042      -0.52641147
C       -0.25498410      -0.29828917      -0.73260676
N        0.41451929       0.75503837      -0.77825113
N        1.55431860       1.03836150      -0.29341441
C        2.10808112      -0.96385531       0.52487343
C        1.14089119      -1.71335612       0.33458878
H       -3.19609501       0.27982403       0.40646596
H       -1.65063952       0.72933732       1.19207839
H       -2.14384751       1.53196870      -0.32263205
H        2.00425366       1.75064857      -0.86569832
H        3.11820302      -0.62224864       0.49171238
H        0.61956519      -2.64478834       0.32802438
13
Frame=7 idx=011621 GeodesicLength=0.4136103786915845 rxn_smarts="[C:1]([O:2][c:3]1[n:4][n:5]([H:11])[c:6]([H:12])[c:7]1[H:13])([H:8])([H:9])[H:10]>>[C:1]([O:2][C:3]#[N+:4][N-:5][H:11])([H:8])([H:9])[H:10].[C:6](#[C:7][H:13])[H:12]"
C       -2.16656125       0.59768831       0.23897864
O       -1.54685058      -0.43690599      -0.53626475
C       -0.25435263      -0.30023249      -0.73649291
N        0.41211327       0.75724844      -0.78352707
N        1.55694019       1.02298159      -0.29385270
C        2.09242368      -0.94652525       0.52456605
C        1.12796721      -1.70908249       0.34234633
H       -3.19282582       0.28095373       0.40665849
H       -1.64328835       0.72540072       1.18821816
H       -2.14122285       1.53494647      -0.32046177
H        2.00796272       1.75442602      -0.83917236
H        3.10748288      -0.62195611       0.46108628
H        0.64021153      -2.65894295       0.34791761
13
Frame=8 idx=011621 GeodesicLength=0.47220191487076213 rxn_smarts="[C:1]([O:2][c:3]1[n:4][n:5]([H:11])[c:6]([H:12])[c:7]1[H:13])([H:8])([H:9])[H:10]>>[C:1]([O:2][C:3]#[N+:4][N-:5][H:11])([H:8])([H:9])[H:10].[C:6](#[C:7][H:13])[H:12]"
C       -2.16224956       0.59686007       0.23704684
O       -1.54860580      -0.43338985      -0.54786655
C       -0.25337271      -0.30158074      -0.74300541
N        0.41005713       0.76008278      -0.79025248
N        1.55953058       1.00828241      -0.29559510
C        2.07565697      -0.92920550       0.52431325
C        1.11249483      -1.70331109       0.35221523
H       -3.18825489       0.28072639       0.40749979
H       -1.63406399       0.71890954       1.18447218
H       -2.13788503       1.53777078      -0.31640075
H        2.01176336       1.75834202      -0.81251813
H        3.09480550      -0.62265230       0.43115655
H        0.66012362      -2.67083453       0.36893457
13
Frame=9 idx=011621 GeodesicLength=0.5313276572590843 rxn_smarts="[C:1]([O:2][c:3]1[n:4][n:5]([H:11])[c:6]([H:12])[c:7]1[H:13])([H:8])([H:9])[H:10]>>[C:1]([O:2][C:3]#[N+:4][N-:5][H:11])([H:8])([H:9])[H:10].[C:6](#[C:7][H:13])[H:12]"
C       -2.15664764       0.59447487       0.23533625
O       -1.54949617      -0.42941335      -0.56198939
C       -0.25171603      -0.30191461      -0.75273023
N        0.40853622       0.76408899      -0.79821673
N        1.56227101       0.99452373      -0.29826867
C        2.05809883      -0.91210339       0.52312447
C        1.09474907      -1.69608348       0.36271927
H       -3.18220978       0.27836094       0.40854452
H       -1.62292175       0.70875265       1.18078905
H       -2.13374518       1.54027951      -0.30990163
H        2.01576423       1.76290751      -0.78484768
H        3.08050871      -0.62474115       0.40051849
H        0.67680847      -2.67913221       0.39492228
13
Frame=10 idx=011621 GeodesicLength=0.5892058477293045 rxn_smarts="[C:1]([O:2][c:3]1[n:4][n:5]([H:11])[c:6]([H:12])[c:7]1[H:13])([H:8])([H:9])[H:10]>>[C:1]([O:2][C:3]#[N+:4][N-:5][H:11])([H:8])([H:9])[H:10].[C:6](#[C:7][H:13])[H:12]"
C       -2.15376663       0.59584912       0.23295822
O       -1.55242012      -0.42619420      -0.57025968
C       -0.25184508      -0.30463186      -0.75571049
N        0.40589047       0.76508274      -0.80395419
N        1.56394587       0.97932371      -0.30021286
C        2.04407005      -0.89745934       0.51960781
C        1.08465894      -1.69472637       0.36378957
H       -3.17924270       0.28109403       0.40919792
H       -1.61580915       0.70728560       1.17651414
H       -2.13113120       1.54352285      -0.30916657
H        2.01662990       1.76639942      -0.75512755
H        3.06827252      -0.62450342       0.37445188
H        0.70074713      -2.69104226       0.41791179
13
Frame=11 idx=011621 GeodesicLength=0.6470089919188631 rxn_smarts="[C:1]([O:2][c:3]1[n:4][n:5]([H:11])[c:6]([H:12])[c:7]1[H:13])([H:8])([H:9])[H:10]>>[C:1]([O:2][C:3]#[N+:4][N-:5][H:11])([H:8])([H:9])[H:10].[C:6](#[C:7][H:13])[H:12]"
C       -2.15073666       0.59777659       0.23082344
O       -1.55577682      -0.42302839      -0.57786684
C       -0.25251134      -0.30785014      -0.75873874
N        0.40301988       0.76532175      -0.81061965
N        1.56518961       0.96390776      -0.30338961
C        2.02990812      -0.88344568       0.51572339
C        1.07585332      -1.69492334       0.36138642
H       -3.17610737       0.28471308       0.41072454
H       -1.60813962       0.70682798       1.17216518
H       -2.12835365       1.54697391      -0.30877411
H        2.01622509       1.76949815      -0.72468458
H        3.05548751      -0.62322340       0.35235728
H        0.72594193      -2.70254828       0.44089329
13
Frame=12 idx=011621 GeodesicLength=0.705285168380176 rxn_smarts="[C:1]([O:2][c:3]1[n:4][n:5]([H:11])[c:6]([H:12])[c:7]1[H:13])([H:8])([H:9])[H:10]>>[C:1]([O:2][C:3]#[N+:4][N-:5][H:11])([H:8])([H:9])[H:10].[C:6](#[C:7][H:13])[H:12]"
C       -2.14548672       0.59696922       0.22929535
O       -1.55777028      -0.41903619      -0.58984025
C       -0.25210420      -0.30927527      -0.76738132
N        0.40093731       0.76767918      -0.81941578
N        1.56704089       0.94970327      -0.30848242
C        2.01381479      -0.86910184       0.51120138
C        1.06353972      -1.69298911       0.35931945
H       -3.17043196       0.28461122       0.41287911
H       -1.59706919       0.69982215       1.16812525
H       -2.12421900       1.54993161      -0.30380547
H        2.01648042       1.77327667      -0.69342716
H        3.04075905      -0.62325131       0.33002844
H        0.74450918      -2.70833960       0.47150340
13
Frame=13 idx=011621 GeodesicLength=0.7654931583342417 rxn_smarts="[C:1]([O:2][c:3]1[n:4][n:5]([H:11])[c:6]([H:12])[c:7]1[H:13])([H:8])([H:9])[H:10]>>[C:1]([O:2][C:3]#[N+:4][N-:5][H:11])([H:8])([H:9])[H:10].[C:6](#[C:7][H:13])[H:12]"
C       -2.13677830       0.59180399       0.22849757
O       -1.55740102      -0.41399242      -0.60818087
C       -0.24972570      -0.30804658      -0.78420386
N        0.40023774       0.77327580      -0.83117700
N        1.56997213       0.93729536      -0.31595566
C        1.99485989      -0.85369238       0.50638519
C        1.04431821      -1.68621624       0.36206141
H       -3.16077853       0.27849730       0.41576779
H       -1.58087918       0.68307274       1.16428834
H       -2.11800265       1.55167443      -0.29229738
H        2.01791098       1.77843661      -0.66070070
H        3.02300346      -0.62639711       0.30436501
H        0.75326296      -2.70571151       0.51115016
13
Frame=14 idx=011621 GeodesicLength=0.8254374501471592 rxn_smarts="[C:1]([O:2][c:3]1[n:4][n:5]([H:11])[c:6]([H:12])[c:7]1[H:13])([H:8])([H:9])[H:10]>>[C:1]([O:2][C:3]#[N+:4][N-:5][H:11])([H:8])([H:9])[H:10].[C:6](#[C:7][H:13])[H:12]"
C       -2.12830122       0.58737984       0.22753232
O       -1.55741274      -0.40915340      -0.62512406
C       -0.24772843      -0.30752117      -0.79986051
N        0.39936505       0.77795248      -0.84302010
N        1.57280718       0.92446906      -0.32448174
C        1.97667908      -0.83900528       0.50082057
C        1.02627935      -1.68047544       0.36339306
H       -3.15137526       0.27343189       0.41881208
H       -1.56501249       0.66826408       1.16002300
H       -2.11177599       1.55333219      -0.28211402
H        2.01732836       1.78314961      -0.62560850
H        3.00549104      -0.62956544       0.27963978
H        0.76365607      -2.70225842       0.54998811
13
Frame=15 idx=011621 GeodesicLength=0.8846401132435996 rxn_smarts="[C:1]([O:2][c:3]1[n:4][n:5]([H:11])[c:6]([H:12])[c:7]1[H:13])([H:8])([H:9])[H:10]>>[C:1]([O:2][C:3]#[N+:4][N-:5][H:11])([H:8])([H:9])[H:10].[C:6](#[C:7][H:13])[H:12]"
C       -2.11987844       0.58362608       0.22742319
O       -1.55837711      -0.40413071      -0.64076149
C       -0.24682148      -0.30733629      -0.81540844
N        0.39777338       0.78200343      -0.85555226
N        1.57613231       0.91041464      -0.33688936
C        1.95770905      -0.82462487       0.49517928
C        1.01221054      -1.67870452       0.35470768
H       -3.14194491       0.26935567       0.42356149
H       -1.54861251       0.65459416       1.15602976
H       -2.10560257       1.55521321      -0.27161105
H        2.01561077       1.78574677      -0.59163717
H        2.98833879      -0.62906969       0.26604210
H        0.77346218      -2.69708787       0.58891626
13
Frame=16 idx=011621 GeodesicLength=0.9446340788165036 rxn_smarts="[C:1]([O:2][c:3]1[n:4][n:5]([H:11])[c:6]([H:12])[c:7]1[H:13])([H:8])([H:9])[H:10]>>[C:1]([O:2][C:3]#[N+:4][N-:5][H:11])([H:8])([H:9])[H:10].[C:6](#[C:7][H:13])[H:12]"
C       -2.10993347       0.58012587       0.22884662
O       -1.56014893      -0.39910028      -0.65558864
C       -0.24706009      -0.30791444      -0.83296133
N        0.39553841       0.78492995      -0.87150986
N        1.58038758       0.89444699      -0.35675967
C        1.93470032      -0.80810616       0.49349475
C        0.99713186      -1.67710173       0.34476120
H       -3.13071137       0.26601843       0.43189629
H       -1.52887378       0.64108561       1.15224377
H       -2.09829713       1.55714600      -0.25968363
H        2.01229964       1.78608669      -0.56015866
H        2.96905416      -0.62516673       0.26700013
H        0.78591278      -2.69245020       0.61841902
