10
Frame=0 idx=004812 GeodesicLength=0.0 rxn_smarts="[O:1]=[C:2]1[O:3][C@@:4]2([H:7])[C:5]([H:8])([H:9])[C@@:6]12[H:10]>>[O:1]=[C:2](/[C:6](=[C:5](\[C:4](=[O:3])[H:7])[H:8])[H:10])[H:9]"
O        2.14430580      -1.00284965      -0.45204612
C        1.12359583      -0.37625386      -0.28848772
O        1.05356691       0.95899401       0.42399593
C       -0.27409889       0.91118785       0.51449380
C       -0.95956414       0.09900099      -0.46138536
C       -0.24601843      -0.83820133       0.29889862
H       -0.79743186       1.64146805       1.11723558
H       -2.02110698       0.14682874      -0.69042193
H        0.52218779       0.14857064      -1.35539606
H       -0.54543603      -1.68874544       0.89311326
10
Frame=1 idx=004812 GeodesicLength=0.07971610644427221 rxn_smarts="[O:1]=[C:2]1[O:3][C@@:4]2([H:7])[C:5]([H:8])([H:9])[C@@:6]12[H:10]>>[O:1]=[C:2](/[C:6](=[C:5](\[C:4](=[O:3])[H:7])[H:8])[H:10])[H:9]"
O        2.14586686      -1.02045139      -0.44224056
C        1.13106672      -0.38432329      -0.28588628
O        1.05103270       0.97568879       0.42560228
C       -0.27585052       0.92161555       0.51571281
C       -0.95671298       0.10374963      -0.46246594
C       -0.24063844      -0.83521379       0.29723889
H       -0.80456492       1.65277215       1.11371234
H       -2.02306598       0.14028118      -0.66931238
H        0.51656822       0.14590697      -1.36035884
H       -0.54370166      -1.70002580       0.86799767
10
Frame=2 idx=004812 GeodesicLength=0.15943917920047906 rxn_smarts="[O:1]=[C:2]1[O:3][C@@:4]2([H:7])[C:5]([H:8])([H:9])[C@@:6]12[H:10]>>[O:1]=[C:2](/[C:6](=[C:5](\[C:4](=[O:3])[H:7])[H:8])[H:10])[H:9]"
O        2.14722260      -1.03833102      -0.43246621
C        1.13852885      -0.39262607      -0.28330504
O        1.04837224       0.99261467       0.42724595
C       -0.27767347       0.93210143       0.51705740
C       -0.95392418       0.10837749      -0.46323580
C       -0.23513267      -0.83223815       0.29588832
H       -0.81181459       1.66418655       1.11012769
H       -2.02441530       0.13366139      -0.64835199
H        0.51060466       0.14328689      -1.36532679
H       -0.54176813      -1.71103318       0.84236647
10
Frame=3 idx=004812 GeodesicLength=0.23916794395353197 rxn_smarts="[O:1]=[C:2]1[O:3][C@@:4]2([H:7])[C:5]([H:8])([H:9])[C@@:6]12[H:10]>>[O:1]=[C:2](/[C:6](=[C:5](\[C:4](=[O:3])[H:7])[H:8])[H:10])[H:9]"
O        2.14838647      -1.05649774      -0.42274945
C        1.14599162      -0.40118336      -0.28076300
O        1.04557702       1.00975817       0.42895091
C       -0.27957536       0.94262091       0.51852914
C       -0.95118684       0.11288222      -0.46372149
C       -0.22949912      -0.82930036       0.29480308
H       -0.81920084       1.67565078       1.10651143
H       -2.02517999       0.12699286      -0.62758032
H        0.50430913       0.14072967      -1.37030924
H       -0.53962210      -1.72165315       0.81632894
10
Frame=4 idx=004812 GeodesicLength=0.3188353908456615 rxn_smarts="[O:1]=[C:2]1[O:3][C@@:4]2([H:7])[C:5]([H:8])([H:9])[C@@:6]12[H:10]>>[O:1]=[C:2](/[C:6](=[C:5](\[C:4](=[O:3])[H:7])[H:8])[H:10])[H:9]"
O        2.14936887      -1.07495007      -0.41311015
C        1.15346469      -0.41001173      -0.27827199
O        1.04263887       1.02710425       0.43072411
C       -0.28156148       0.95314543       0.52012300
C       -0.94848652       0.11726164      -0.46394129
C       -0.22373759      -0.82641293       0.29394192
H       -0.82674027       1.68709396       1.10288419
H       -2.02537968       0.12029141      -0.60701369
H        0.49769997       0.13824507      -1.37530438
H       -0.53726688      -1.73176705       0.78996828
10
Frame=5 idx=004812 GeodesicLength=0.39854226027976797 rxn_smarts="[O:1]=[C:2]1[O:3][C@@:4]2([H:7])[C:5]([H:8])([H:9])[C@@:6]12[H:10]>>[O:1]=[C:2](/[C:6](=[C:5](\[C:4](=[O:3])[H:7])[H:8])[H:10])[H:9]"
O        2.15017889      -1.09371955      -0.40357911
C        1.16095882      -0.41913344      -0.27586238
O        1.03954604       1.04465730       0.43261163
C       -0.28364052       0.96366376       0.52185425
C       -0.94580983       0.12152508      -0.46393650
C       -0.21784381      -0.82360964       0.29324670
H       -0.83445664       1.69849803       1.09927323
H       -2.02503595       0.11356663      -0.58669152
H        0.49079377       0.13587227      -1.38034565
H       -0.53469076      -1.74132044       0.76342937
10
Frame=6 idx=004812 GeodesicLength=0.478223394417137 rxn_smarts="[O:1]=[C:2]1[O:3][C@@:4]2([H:7])[C:5]([H:8])([H:9])[C@@:6]12[H:10]>>[O:1]=[C:2](/[C:6](=[C:5](\[C:4](=[O:3])[H:7])[H:8])[H:10])[H:9]"
O        2.15082024      -1.11281436      -0.39418056
C        1.16848380      -0.42856032      -0.27355980
O        1.03629173       1.06239850       0.43464061
C       -0.28581738       0.97414485       0.52372426
C       -0.94314205       0.12568350      -0.46373397
C       -0.21181648      -0.82089705       0.29265361
H       -0.84236734       1.70980651       1.09568196
H       -2.02416706       0.10682772      -0.56663344
H        0.48361046       0.13364421      -1.38543506
H       -0.53189591      -1.75023356       0.73684239
10
Frame=7 idx=004812 GeodesicLength=0.5579188521313216 rxn_smarts="[O:1]=[C:2]1[O:3][C@@:4]2([H:7])[C:5]([H:8])([H:9])[C@@:6]12[H:10]>>[O:1]=[C:2](/[C:6](=[C:5](\[C:4](=[O:3])[H:7])[H:8])[H:10])[H:9]"
O        2.15130199      -1.13225331      -0.38493463
C        1.17605158      -0.43831368      -0.27137956
O        1.03286285       1.08034235       0.43682296
C       -0.28809773       0.98458170       0.52573290
C       -0.94046853       0.12974030      -0.46336436
C       -0.20564808      -0.81829067       0.29212582
H       -0.85048839       1.72097063       1.09215377
H       -2.02278728       0.10008214      -0.54687050
H        0.47616491       0.13157335      -1.39059591
H       -0.52889132      -1.75843280       0.71030950
10
Frame=8 idx=004812 GeodesicLength=0.6376738755598844 rxn_smarts="[O:1]=[C:2]1[O:3][C@@:4]2([H:7])[C:5]([H:8])([H:9])[C@@:6]12[H:10]>>[O:1]=[C:2](/[C:6](=[C:5](\[C:4](=[O:3])[H:7])[H:8])[H:10])[H:9]"
O        2.15162664      -1.15206430      -0.37586562
C        1.18367292      -0.44841065      -0.26935006
O        1.02925118       1.09850268       0.43918900
C       -0.29048766       0.99496949       0.52788790
C       -0.93777422       0.13370989      -0.46286296
C       -0.19933341      -0.81580200       0.29161062
H       -0.85883959       1.73196688       1.08871584
H       -2.02091140       0.09333138      -0.52743522
H        0.46847744       0.12969220      -1.39585665
H       -0.52568189      -1.76589558       0.68396717
10
Frame=9 idx=004812 GeodesicLength=0.7172288063755633 rxn_smarts="[O:1]=[C:2]1[O:3][C@@:4]2([H:7])[C:5]([H:8])([H:9])[C@@:6]12[H:10]>>[O:1]=[C:2](/[C:6](=[C:5](\[C:4](=[O:3])[H:7])[H:8])[H:10])[H:9]"
O        2.15179209      -1.17223891      -0.36702139
C        1.19135982      -0.45885055      -0.26752231
O        1.02544448       1.11680455       0.44178416
C       -0.29299533       1.00524105       0.53017392
C       -0.93504147       0.13761422      -0.46225167
C       -0.19286521      -0.81340162       0.29101159
H       -0.86744551       1.74268728       1.08532594
H       -2.01854650       0.08660712      -0.50835392
H        0.46057436       0.12806249      -1.40117789
H       -0.52227672      -1.77252562       0.65803158
10
Frame=10 idx=004812 GeodesicLength=0.7969002349731694 rxn_smarts="[O:1]=[C:2]1[O:3][C@@:4]2([H:7])[C:5]([H:8])([H:9])[C@@:6]12[H:10]>>[O:1]=[C:2](/[C:6](=[C:5](\[C:4](=[O:3])[H:7])[H:8])[H:10])[H:9]"
O        2.15180292      -1.19283599      -0.35836690
C        1.19912576      -0.46966400      -0.26587759
O        1.02143771       1.13536946       0.44459198
C       -0.29561720       1.01546406       0.53262261
C       -0.93226054       0.14145384      -0.46154577
C       -0.18622636      -0.81111800       0.29036840
H       -0.87630747       1.75322680       1.08203837
H       -2.01571185       0.07986474      -0.48960858
H        0.45245002       0.12665689      -1.40663573
H       -0.51869297      -1.77841780       0.63241322
10
Frame=11 idx=004812 GeodesicLength=0.8765320488941415 rxn_smarts="[O:1]=[C:2]1[O:3][C@@:4]2([H:7])[C:5]([H:8])([H:9])[C@@:6]12[H:10]>>[O:1]=[C:2](/[C:6](=[C:5](\[C:4](=[O:3])[H:7])[H:8])[H:10])[H:9]"
O        2.15165610      -1.21386588      -0.34991900
C        1.20698538      -0.48085736      -0.26444222
O        1.01721430       1.15417169       0.44763031
C       -0.29836028       1.02560516       0.53523342
C       -0.92941440       0.14524407      -0.46074415
C       -0.17940084      -0.80892169       0.28964076
H       -0.88544874       1.76354770       1.07879915
H       -2.01241065       0.07311621      -0.47117417
H        0.44412095       0.12549757      -1.41219891
H       -0.51494182      -1.78353746       0.60717481
10
Frame=12 idx=004812 GeodesicLength=0.9561729753440282 rxn_smarts="[O:1]=[C:2]1[O:3][C@@:4]2([H:7])[C:5]([H:8])([H:9])[C@@:6]12[H:10]>>[O:1]=[C:2](/[C:6](=[C:5](\[C:4](=[O:3])[H:7])[H:8])[H:10])[H:9]"
O        2.15134676      -1.23535544      -0.34169650
C        1.21494748      -0.49244934      -0.26324339
O        1.01276637       1.17324431       0.45091785
C       -0.30122723       1.03567565       0.53799918
C       -0.92648875       0.14899894      -0.45988464
C       -0.17237894      -0.80680808       0.28879048
H       -0.89487954       1.77360771       1.07566770
H       -2.00864901       0.06636214      -0.45310912
H        0.43559977       0.12460989      -1.41790443
H       -0.51103692      -1.78788577       0.58246286
10
Frame=13 idx=004812 GeodesicLength=1.035839439399944 rxn_smarts="[O:1]=[C:2]1[O:3][C@@:4]2([H:7])[C:5]([H:8])([H:9])[C@@:6]12[H:10]>>[O:1]=[C:2](/[C:6](=[C:5](\[C:4](=[O:3])[H:7])[H:8])[H:10])[H:9]"
O        2.15087012      -1.25733618      -0.33371165
C        1.22302410      -0.50445840      -0.26230179
O        1.00807957       1.19261767       0.45446788
C       -0.30422301       1.04568611       0.54091943
C       -0.92346783       0.15273242      -0.45898478
C       -0.16514395      -0.80476226       0.28779875
H       -0.90461662       1.78339238       1.07266118
H       -2.00442991       0.05960160      -0.43543026
H        0.42689742       0.12400736      -1.42376927
H       -0.50698988      -1.79148070       0.55835049
10
Frame=14 idx=004812 GeodesicLength=1.1154472872249332 rxn_smarts="[O:1]=[C:2]1[O:3][C@@:4]2([H:7])[C:5]([H:8])([H:9])[C@@:6]12[H:10]>>[O:1]=[C:2](/[C:6](=[C:5](\[C:4](=[O:3])[H:7])[H:8])[H:10])[H:9]"
O        2.15021658      -1.27983108      -0.32598497
C        1.23122584      -0.51689956      -0.26165168
O        1.00313810       1.21228676       0.45830206
C       -0.30735524       1.05562240       0.54398916
C       -0.92033353       0.15646186      -0.45805558
C       -0.15767912      -0.80275535       0.28662903
H       -0.91468233       1.79286156       1.06977179
H       -1.99975208       0.05284019      -0.41815337
H        0.41803041       0.12371709      -1.42978908
H       -0.50280863      -1.79430386       0.53494265
10
Frame=15 idx=004812 GeodesicLength=1.195080267775522 rxn_smarts="[O:1]=[C:2]1[O:3][C@@:4]2([H:7])[C:5]([H:8])([H:9])[C@@:6]12[H:10]>>[O:1]=[C:2](/[C:6](=[C:5](\[C:4](=[O:3])[H:7])[H:8])[H:10])[H:9]"
O        2.14937547      -1.30287562      -0.31849271
C        1.23956413      -0.52979517      -0.26128625
O        0.99792810       1.23232860       0.46240180
C       -0.31062130       1.06551894       0.54721563
C       -0.91707208       0.16019247      -0.45709874
C       -0.14996162      -0.80077406       0.28530463
H       -0.92508083       1.80203987       1.06701489
H       -1.99461707       0.04606215      -0.40125709
H        0.40899303       0.12371887      -1.43598392
H       -0.49850782      -1.79641604       0.51218176
10
Frame=16 idx=004812 GeodesicLength=1.2747213735566598 rxn_smarts="[O:1]=[C:2]1[O:3][C@@:4]2([H:7])[C:5]([H:8])([H:9])[C@@:6]12[H:10]>>[O:1]=[C:2](/[C:6](=[C:5](\[C:4](=[O:3])[H:7])[H:8])[H:10])[H:9]"
O        2.14833483      -1.32650745      -0.31124064
C        1.24805214      -0.54316695      -0.26123262
O        0.99243196       1.25276413       0.46678724
C       -0.31402717       1.07537644       0.55060633
C       -0.91366750       0.16393893      -0.45611658
C       -0.14196769      -0.79879482       0.28381131
H       -0.93583616       1.81092523       1.06436937
H       -1.98902290       0.03926464      -0.38473429
H        0.39979181       0.12403050      -1.44235791
H       -0.49408932      -1.79783066       0.49010780
