10
Frame=0 idx=005711 GeodesicLength=0.0 rxn_smarts="[O:1]=[C:2]([O:3][C:4]([C:5]#[C:6][H:10])([H:8])[H:9])[H:7]>>[O:1]=[C:2]([H:7])[H:8].[O:3]=[C:4]([C:5]#[C:6][H:10])[H:9]"
O       -2.67243481       0.60361603      -0.17458521
C       -1.76171534      -0.14120605      -0.15118624
O       -0.64782643      -0.10099663       1.27268942
C        0.08637343       0.48900473       0.38423571
C        1.39648036      -0.04089363       0.05812506
C        2.47487549      -0.48184982      -0.21810850
H       -1.63682451      -1.22378365      -0.16404639
H       -0.66018643       0.19776297      -0.79544963
H       -0.01537089       1.57334238       0.24172624
H        3.43662913      -0.87499634      -0.45340047
10
Frame=1 idx=005711 GeodesicLength=0.07791163122434104 rxn_smarts="[O:1]=[C:2]([O:3][C:4]([C:5]#[C:6][H:10])([H:8])[H:9])[H:7]>>[O:1]=[C:2]([H:7])[H:8].[O:3]=[C:4]([C:5]#[C:6][H:10])[H:9]"
O       -2.67268090       0.63737158      -0.14641412
C       -1.78720717      -0.13957790      -0.14414106
O       -0.63562399      -0.12087382       1.25269218
C        0.09750037       0.47288800       0.36362982
C        1.40969977      -0.05359823       0.04177988
C        2.49929918      -0.47874055      -0.21441426
H       -1.70783566      -1.22693498      -0.15503103
H       -0.68066156       0.18665465      -0.81411481
H       -0.00461473       1.55874553       0.23403824
H        3.48212470      -0.83593427      -0.41802484
10
Frame=2 idx=005711 GeodesicLength=0.15533953592853367 rxn_smarts="[O:1]=[C:2]([O:3][C:4]([C:5]#[C:6][H:10])([H:8])[H:9])[H:7]>>[O:1]=[C:2]([H:7])[H:8].[O:3]=[C:4]([C:5]#[C:6][H:10])[H:9]"
O       -2.67149800       0.66911365      -0.11671887
C       -1.81226267      -0.13840869      -0.13678824
O       -0.62235403      -0.14281388       1.23056609
C        0.10887420       0.45686618       0.34164556
C        1.42390809      -0.06414499       0.02361436
C        2.52430215      -0.47243822      -0.21304675
H       -1.77872238      -1.22866137      -0.14490876
H       -0.70203404       0.17700272      -0.83339710
H        0.00537364       1.54421877       0.22702949
H        3.52441305      -0.80073417      -0.37799579
10
Frame=3 idx=005711 GeodesicLength=0.23230204047558256 rxn_smarts="[O:1]=[C:2]([O:3][C:4]([C:5]#[C:6][H:10])([H:8])[H:9])[H:7]>>[O:1]=[C:2]([H:7])[H:8].[O:3]=[C:4]([C:5]#[C:6][H:10])[H:9]"
O       -2.66774169       0.70114160      -0.09026171
C       -1.83705201      -0.13687941      -0.13016232
O       -0.61112421      -0.16484285       1.20770863
C        0.12035070       0.43960859       0.31989850
C        1.43874176      -0.07682053       0.00928280
C        2.54889410      -0.47097848      -0.20477644
H       -1.85138662      -1.22810874      -0.13196669
H       -0.72248090       0.16626867      -0.85273590
H        0.01655479       1.52831799       0.21970678
H        3.56524407      -0.75770684      -0.34669365
10
Frame=4 idx=005711 GeodesicLength=0.30887990117513203 rxn_smarts="[O:1]=[C:2]([O:3][C:4]([C:5]#[C:6][H:10])([H:8])[H:9])[H:7]>>[O:1]=[C:2]([H:7])[H:8].[O:3]=[C:4]([C:5]#[C:6][H:10])[H:9]"
O       -2.66281601       0.73020694      -0.06252345
C       -1.86120499      -0.13631609      -0.12330361
O       -0.59871480      -0.18890936       1.18248574
C        0.13195591       0.42309551       0.29680846
C        1.45479558      -0.08579569      -0.00655223
C        2.57460980      -0.46311309      -0.19975632
H       -1.92310220      -1.22642980      -0.11756425
H       -0.74372309       0.15730231      -0.87270917
H        0.02621084       1.51301738       0.21347746
H        3.60198897      -0.72305811      -0.31036263
10
Frame=5 idx=005711 GeodesicLength=0.38503169679819793 rxn_smarts="[O:1]=[C:2]([O:3][C:4]([C:5]#[C:6][H:10])([H:8])[H:9])[H:7]>>[O:1]=[C:2]([H:7])[H:8].[O:3]=[C:4]([C:5]#[C:6][H:10])[H:9]"
O       -2.65608438       0.75815848      -0.03631684
C       -1.88502997      -0.13594665      -0.11689955
O       -0.58723574      -0.21389111       1.15576759
C        0.14364094       0.40613099       0.27339650
C        1.47166801      -0.09461407      -0.02021013
C        2.60025905      -0.45567820      -0.19247473
H       -1.99529018      -1.22273086      -0.10082902
H       -0.76473723       0.14860535      -0.89299929
H        0.03594963       1.49706874       0.20773294
H        3.63685987      -0.68710267      -0.27716746
10
Frame=6 idx=005711 GeodesicLength=0.46085514273676276 rxn_smarts="[O:1]=[C:2]([O:3][C:4]([C:5]#[C:6][H:10])([H:8])[H:9])[H:7]>>[O:1]=[C:2]([H:7])[H:8].[O:3]=[C:4]([C:5]#[C:6][H:10])[H:9]"
O       -2.64788032       0.78453580      -0.01072541
C       -1.90862341      -0.13597263      -0.11076028
O       -0.57617618      -0.24009930       1.12706605
C        0.15538015       0.38899670       0.24916717
C        1.48934711      -0.10240874      -0.03282119
C        2.62625931      -0.44703170      -0.18282164
H       -2.06755481      -1.21709029      -0.08189487
H       -0.78600021       0.14064368      -0.91382280
H        0.04533266       1.48070006       0.20248279
H        3.66991571      -0.65227359      -0.24586984
10
Frame=7 idx=005711 GeodesicLength=0.5363599600916525 rxn_smarts="[O:1]=[C:2]([O:3][C:4]([C:5]#[C:6][H:10])([H:8])[H:9])[H:7]>>[O:1]=[C:2]([H:7])[H:8].[O:3]=[C:4]([C:5]#[C:6][H:10])[H:9]"
O       -2.63844774       0.80906953       0.01604687
C       -1.93213939      -0.13643801      -0.10432286
O       -0.56464689      -0.26803428       1.09556302
C        0.16729102       0.37176283       0.22311922
C        1.50771484      -0.10887669      -0.04660202
C        2.65241281      -0.43655774      -0.17391611
H       -2.13953021      -1.20950646      -0.06063995
H       -0.80842529       0.13417965      -0.93545752
H        0.05432156       1.46391636       0.19749783
H        3.70144929      -0.61951518      -0.21128849
10
Frame=8 idx=005711 GeodesicLength=0.6114558832163928 rxn_smarts="[O:1]=[C:2]([O:3][C:4]([C:5]#[C:6][H:10])([H:8])[H:9])[H:7]>>[O:1]=[C:2]([H:7])[H:8].[O:3]=[C:4]([C:5]#[C:6][H:10])[H:9]"
O       -2.62775332       0.83173311       0.04200789
C       -1.95540522      -0.13740667      -0.09822216
O       -0.55376922      -0.29690506       1.06188836
C        0.17924597       0.35455474       0.19630075
C        1.52677394      -0.11433639      -0.05865063
C        2.67834218      -0.42560593      -0.16346645
H       -2.21072222      -1.19997311      -0.03699161
H       -0.83105741       0.12887736      -0.95759954
H        0.06296199       1.44673436       0.19311709
H        3.73138331      -0.58767242      -0.17838370
10
Frame=9 idx=005711 GeodesicLength=0.6862122754418747 rxn_smarts="[O:1]=[C:2]([O:3][C:4]([C:5]#[C:6][H:10])([H:8])[H:9])[H:7]>>[O:1]=[C:2]([H:7])[H:8].[O:3]=[C:4]([C:5]#[C:6][H:10])[H:9]"
O       -2.61575127       0.85279784       0.06753798
C       -1.97859593      -0.13874269      -0.09229003
O       -0.54349284      -0.32689541       1.02572717
C        0.19129139       0.33710411       0.16839078
C        1.54633355      -0.11936685      -0.06943548
C        2.70400609      -0.41452968      -0.15136486
H       -2.28123257      -1.18824677      -0.01083860
H       -0.85418445       0.12478594      -0.98034102
H        0.07147474       1.42882188       0.18914109
H        3.76015129      -0.55572838      -0.14652702
10
Frame=10 idx=005711 GeodesicLength=0.7605939031347262 rxn_smarts="[O:1]=[C:2]([O:3][C:4]([C:5]#[C:6][H:10])([H:8])[H:9])[H:7]>>[O:1]=[C:2]([H:7])[H:8].[O:3]=[C:4]([C:5]#[C:6][H:10])[H:9]"
O       -2.60267926       0.87198072       0.09265998
C       -2.00168941      -0.14053792      -0.08652546
O       -0.53386722      -0.35769029       0.98699468
C        0.20341487       0.31967684       0.13937581
C        1.56630582      -0.12374981      -0.07866630
C        2.72918801      -0.40369161      -0.13707508
H       -2.35030436      -1.17451197       0.01767847
H       -0.87782329       0.12221464      -1.00366404
H        0.07972515       1.41033498       0.18547921
H        3.78772971      -0.52402557      -0.11625727
10
Frame=11 idx=005711 GeodesicLength=0.8345815853632754 rxn_smarts="[O:1]=[C:2]([O:3][C:4]([C:5]#[C:6][H:10])([H:8])[H:9])[H:7]>>[O:1]=[C:2]([H:7])[H:8].[O:3]=[C:4]([C:5]#[C:6][H:10])[H:9]"
O       -2.58879346       0.88894247       0.11755967
C       -2.02464100      -0.14294761      -0.08082809
O       -0.52476524      -0.38901116       0.94551185
C        0.21562198       0.30263931       0.10913529
C        1.58658433      -0.12707006      -0.08641852
C        2.75375143      -0.39278592      -0.12102759
H       -2.41716928      -1.15911828       0.04853859
H       -0.90207889       0.12152550      -1.02754867
H        0.08750847       1.39151018       0.18204316
H        3.81398167      -0.49368442      -0.08696571
10
Frame=12 idx=005711 GeodesicLength=0.9082082336355033 rxn_smarts="[O:1]=[C:2]([O:3][C:4]([C:5]#[C:6][H:10])([H:8])[H:9])[H:7]>>[O:1]=[C:2]([H:7])[H:8].[O:3]=[C:4]([C:5]#[C:6][H:10])[H:9]"
O       -2.57420340       0.90355267       0.14268838
C       -2.04745433      -0.14603094      -0.07496460
O       -0.51598796      -0.42070879       0.90094203
C        0.22794171       0.28620081       0.07733862
C        1.60701296      -0.12918105      -0.09320150
C        2.77758956      -0.38158942      -0.10341540
H       -2.48130947      -1.14235537       0.08175465
H       -0.92721978       0.12299948      -1.05199935
H        0.09475801       1.37242717       0.17855715
H        3.83887270      -0.46531457      -0.05769997
10
Frame=13 idx=005711 GeodesicLength=0.9815433223747484 rxn_smarts="[O:1]=[C:2]([O:3][C:4]([C:5]#[C:6][H:10])([H:8])[H:9])[H:7]>>[O:1]=[C:2]([H:7])[H:8].[O:3]=[C:4]([C:5]#[C:6][H:10])[H:9]"
O       -2.55880432       0.91603000       0.16812797
C       -2.07018694      -0.14965965      -0.06887906
O       -0.50766959      -0.45275173       0.85301297
C        0.24041205       0.27020433       0.04383110
C        1.62739747      -0.13065432      -0.09889325
C        2.80056767      -0.37039132      -0.08382282
H       -2.54255399      -1.12421929       0.11742139
H       -0.95333872       0.12671892      -1.07699435
H        0.10164392       1.35282486       0.17480454
H        3.86253245      -0.43810180      -0.02860849
10
Frame=14 idx=005711 GeodesicLength=1.0546243414010774 rxn_smarts="[O:1]=[C:2]([O:3][C:4]([C:5]#[C:6][H:10])([H:8])[H:9])[H:7]>>[O:1]=[C:2]([H:7])[H:8].[O:3]=[C:4]([C:5]#[C:6][H:10])[H:9]"
O       -2.54254314       0.92617660       0.19479149
C       -2.09275899      -0.15390354      -0.06210014
O       -0.49939782      -0.48501099       0.80107723
C        0.25308445       0.25493017       0.00790421
C        1.64755657      -0.13130828      -0.10482612
C        2.82250553      -0.35885248      -0.06353387
H       -2.60022617      -1.10514238       0.15581449
H       -0.98096304       0.13314173      -1.10252830
H        0.10815393       1.33281399       0.17025409
H        3.88458868      -0.41284483       0.00314694
10
Frame=15 idx=005711 GeodesicLength=1.1274415956998292 rxn_smarts="[O:1]=[C:2]([O:3][C:4]([C:5]#[C:6][H:10])([H:8])[H:9])[H:7]>>[O:1]=[C:2]([H:7])[H:8].[O:3]=[C:4]([C:5]#[C:6][H:10])[H:9]"
O       -2.52550954       0.93391668       0.22221608
C       -2.11503120      -0.15881259      -0.05469700
O       -0.49146493      -0.51689325       0.74528830
C        0.26596597       0.24066385      -0.03013478
C        1.66729552      -0.13123520      -0.11020616
C        2.84307676      -0.34746791      -0.04153143
H       -2.65368884      -1.08557413       0.19667601
H       -1.00983668       0.14234905      -1.12837764
H        0.11424118       1.31258697       0.16476661
H        3.90495175      -0.38953347       0.03600000
10
Frame=16 idx=005711 GeodesicLength=1.2000112595374222 rxn_smarts="[O:1]=[C:2]([O:3][C:4]([C:5]#[C:6][H:10])([H:8])[H:9])[H:7]>>[O:1]=[C:2]([H:7])[H:8].[O:3]=[C:4]([C:5]#[C:6][H:10])[H:9]"
O       -2.50766698       0.93919149       0.25049822
C       -2.13685029      -0.16442890      -0.04648647
O       -0.48387492      -0.54796425       0.68550450
C        0.27909809       0.22765385      -0.07039470
C        1.68639938      -0.13055415      -0.11522507
C        2.86199211      -0.33645996      -0.01794492
H       -2.70237201      -1.06598099       0.23999617
H       -1.04002414       0.15452773      -1.15436970
H        0.11993515       1.29230629       0.15797016
H        3.92336360      -0.36829110       0.07045180
