15
Frame=0 idx=009045 GeodesicLength=0.0 rxn_smarts="[N:1]([C@@:2]([C:3]#[N:4])([C:5]1([H:11])[C:6]([H:12])([H:13])[C:7]1([H:14])[H:15])[H:10])([H:8])[H:9]>>[N:1]([C@@:2]1([H:10])/[C:3](=[N:4]/[H:11])[C:5]12[C:6]([H:12])([H:13])[C:7]2([H:14])[H:15])([H:8])[H:9]"
N        1.60124914      -0.98384853       0.57508323
C        0.88211878       0.25251096       0.64033556
C        1.14825801       1.34348953      -0.27879539
N        1.34185843       2.19621958      -1.10897706
C       -0.43754798       0.37849016      -0.17386827
C       -1.76242951       0.01832058       0.40072537
C       -1.14270059      -0.84052774      -0.67352057
H        2.53135037      -0.91196872       0.96259090
H        1.65972904      -1.32514094      -0.37458685
H        0.77302079       0.60316723       1.66691855
H        0.18516121       1.68478726      -1.15534112
H       -1.79951226      -0.41198972       1.39688517
H       -2.61828182       0.63385295       0.14982019
H       -1.56984235      -0.81934262      -1.66946800
H       -0.79243121      -1.81802004      -0.35780176
15
Frame=1 idx=009045 GeodesicLength=0.08326333034731132 rxn_smarts="[N:1]([C@@:2]([C:3]#[N:4])([C:5]1([H:11])[C:6]([H:12])([H:13])[C:7]1([H:14])[H:15])[H:10])([H:8])[H:9]>>[N:1]([C@@:2]1([H:10])/[C:3](=[N:4]/[H:11])[C:5]12[C:6]([H:12])([H:13])[C:7]2([H:14])[H:15])([H:8])[H:9]"
N        1.61836981      -0.98372446       0.56057703
C        0.88126722       0.24146959       0.64623559
C        1.14199008       1.35366663      -0.25100124
N        1.33699125       2.19689585      -1.09082486
C       -0.43096857       0.36807455      -0.17464370
C       -1.76502302       0.03196381       0.39368451
C       -1.14775572      -0.84765519      -0.66431167
H        2.54896891      -0.90118308       0.94505639
H        1.68101061      -1.30778099      -0.39494565
H        0.76365628       0.57152580       1.67850274
H        0.17244540       1.66190809      -1.17198608
H       -1.81572731      -0.38276225       1.39560944
H       -2.61065879       0.65497471       0.12749225
H       -1.56541162      -0.83269479      -1.66424043
H       -0.80915455      -1.82467827      -0.33520431
15
Frame=2 idx=009045 GeodesicLength=0.1665016021805556 rxn_smarts="[N:1]([C@@:2]([C:3]#[N:4])([C:5]1([H:11])[C:6]([H:12])([H:13])[C:7]1([H:14])[H:15])[H:10])([H:8])[H:9]>>[N:1]([C@@:2]1([H:10])/[C:3](=[N:4]/[H:11])[C:5]12[C:6]([H:12])([H:13])[C:7]2([H:14])[H:15])([H:8])[H:9]"
N        1.63542780      -0.98328205       0.54583750
C        0.88048578       0.23014190       0.65180978
C        1.13526209       1.36321126      -0.22313226
N        1.33154388       2.19799644      -1.07142282
C       -0.42445186       0.35758797      -0.17549596
C       -1.76730959       0.04571035       0.38642855
C       -1.15301884      -0.85472458      -0.65490397
H        2.56621735      -0.88997450       0.92769387
H        1.70216360      -1.28974093      -0.41529615
H        0.75450616       0.53917371       1.68939405
H        0.16047400       1.63826837      -1.18881041
H       -1.83131173      -0.35285332       1.39390959
H       -2.60250089       0.67583851       0.10486755
H       -1.56131464      -0.84642058      -1.65862304
H       -0.82617310      -1.83093254      -0.31225627
15
Frame=3 idx=009045 GeodesicLength=0.24971804138419454 rxn_smarts="[N:1]([C@@:2]([C:3]#[N:4])([C:5]1([H:11])[C:6]([H:12])([H:13])[C:7]1([H:14])[H:15])[H:10])([H:8])[H:9]>>[N:1]([C@@:2]1([H:10])/[C:3](=[N:4]/[H:11])[C:5]12[C:6]([H:12])([H:13])[C:7]2([H:14])[H:15])([H:8])[H:9]"
N        1.65239767      -0.98253649       0.53092998
C        0.87978624       0.21853487       0.65705831
C        1.12816753       1.37205846      -0.19523063
N        1.32540858       2.19947174      -1.05090653
C       -0.41798230       0.34705009      -0.17643227
C       -1.76925415       0.05953233       0.37896727
C       -1.15847374      -0.86169275      -0.64533556
H        2.58305824      -0.87839999       0.91060927
H        1.72317952      -1.27106449      -0.43554843
H        0.74558524       0.50617256       1.69956162
H        0.14914535       1.61398383      -1.20576862
H       -1.84618211      -0.32233117       1.39177290
H       -2.59379641       0.69640440       0.08200476
H       -1.55756781      -0.86043604      -1.65263848
H       -0.84347183      -1.83674733      -0.28904359
15
Frame=4 idx=009045 GeodesicLength=0.3329456937967102 rxn_smarts="[N:1]([C@@:2]([C:3]#[N:4])([C:5]1([H:11])[C:6]([H:12])([H:13])[C:7]1([H:14])[H:15])[H:10])([H:8])[H:9]>>[N:1]([C@@:2]1([H:10])/[C:3](=[N:4]/[H:11])[C:5]12[C:6]([H:12])([H:13])[C:7]2([H:14])[H:15])([H:8])[H:9]"
N        1.66926946      -0.98149930       0.51590368
C        0.87917534       0.20665511       0.66199345
C        1.12078079       1.38018385      -0.16729029
N        1.31850466       2.20125707      -1.02939767
C       -0.41155040       0.33648329      -0.17745686
C       -1.77083159       0.07340994       0.37131285
C       -1.16410876      -0.86852098      -0.63564087
H        2.59947616      -0.86650835       0.89388663
H        1.74406300      -1.25177136      -0.45563878
H        0.73689720       0.47255881       1.70899878
H        0.13836874       1.58911937      -1.22287206
H       -1.86026828      -0.29125298       1.38919658
H       -2.58454407       0.71664900       0.05895759
H       -1.55419303      -0.87466826      -1.64631217
H       -0.86103922      -1.84209521      -0.26564083
15
Frame=5 idx=009045 GeodesicLength=0.4160670387013229 rxn_smarts="[N:1]([C@@:2]([C:3]#[N:4])([C:5]1([H:11])[C:6]([H:12])([H:13])[C:7]1([H:14])[H:15])[H:10])([H:8])[H:9]>>[N:1]([C@@:2]1([H:10])/[C:3](=[N:4]/[H:11])[C:5]12[C:6]([H:12])([H:13])[C:7]2([H:14])[H:15])([H:8])[H:9]"
N        1.68601343      -0.98016954       0.50080950
C        0.87865413       0.19451209       0.66661539
C        1.11318610       1.38755098      -0.13932385
N        1.31078407       2.20319198      -1.00710721
C       -0.40513444       0.32591044      -0.17856527
C       -1.77201226       0.08730813       0.36348017
C       -1.16989393      -0.87515202      -0.62584940
H        2.61542123      -0.85434858       0.87762217
H        1.76482453      -1.23185928      -0.47549278
H        0.72843057       0.43837267       1.71767858
H        0.12801148       1.56380557      -1.24004173
H       -1.87350758      -0.25970431       1.38616272
H       -2.57474132       0.73650962       0.03579156
H       -1.55118183      -0.88901057      -1.63964770
H       -0.87885417      -1.84691718      -0.24213217
15
Frame=6 idx=009045 GeodesicLength=0.49914429011027267 rxn_smarts="[N:1]([C@@:2]([C:3]#[N:4])([C:5]1([H:11])[C:6]([H:12])([H:13])[C:7]1([H:14])[H:15])[H:10])([H:8])[H:9]>>[N:1]([C@@:2]1([H:10])/[C:3](=[N:4]/[H:11])[C:5]12[C:6]([H:12])([H:13])[C:7]2([H:14])[H:15])([H:8])[H:9]"
N        1.70259980      -0.97856622       0.48579079
C        0.87823114       0.18216503       0.67094352
C        1.10548321       1.39415152      -0.11139467
N        1.30229247       2.20507864      -0.98431967
C       -0.39874231       0.31539841      -0.17975520
C       -1.77276410       0.10115968       0.35553676
C       -1.17581534      -0.88150741      -0.61607269
H        2.63086282      -0.84200052       0.86202502
H        1.78546282      -1.21141944      -0.49494428
H        0.72021109       0.40379787       1.72559720
H        0.11785141       1.53820073      -1.25730418
H       -1.88577163      -0.22792567       1.38270337
H       -2.56444441       0.75592313       0.01271531
H       -1.54860663      -0.90326337      -1.63274922
H       -0.89685034      -1.85119236      -0.21877207
15
Frame=7 idx=009045 GeodesicLength=0.5821829834697377 rxn_smarts="[N:1]([C@@:2]([C:3]#[N:4])([C:5]1([H:11])[C:6]([H:12])([H:13])[C:7]1([H:14])[H:15])[H:10])([H:8])[H:9]>>[N:1]([C@@:2]1([H:10])/[C:3](=[N:4]/[H:11])[C:5]12[C:6]([H:12])([H:13])[C:7]2([H:14])[H:15])([H:8])[H:9]"
N        1.71895552      -0.97665881       0.47094389
C        0.87788253       0.16966455       0.67497878
C        1.09775177       1.39998379      -0.08354311
N        1.29314440       2.20671018      -0.96124390
C       -0.39237292       0.30499353      -0.18102701
C       -1.77304480       0.11489204       0.34755722
C       -1.18183510      -0.88750443      -0.60638376
H        2.64570953      -0.82947367       0.84721036
H        1.80592675      -1.19046758      -0.51385911
H        0.71221220       0.36896626       1.73272263
H        0.10773831       1.51233596      -1.27471956
H       -1.89696669      -0.19614806       1.37885779
H       -2.55366390       0.77481507      -0.01006312
H       -1.54647554      -0.91723540      -1.62566839
H       -0.91496206      -1.85487345      -0.19576270
15
Frame=8 idx=009045 GeodesicLength=0.6651546158693384 rxn_smarts="[N:1]([C@@:2]([C:3]#[N:4])([C:5]1([H:11])[C:6]([H:12])([H:13])[C:7]1([H:14])[H:15])[H:10])([H:8])[H:9]>>[N:1]([C@@:2]1([H:10])/[C:3](=[N:4]/[H:11])[C:5]12[C:6]([H:12])([H:13])[C:7]2([H:14])[H:15])([H:8])[H:9]"
N        1.73511449      -0.97447546       0.45630589
C        0.87762166       0.15702445       0.67873978
C        1.09004773       1.40508093      -0.05573499
N        1.28332166       2.20800946      -0.93800959
C       -0.38601431       0.29472839      -0.18238441
C       -1.77286297       0.12850683       0.33955860
C       -1.18794221      -0.89311944      -0.59681752
H        2.66000193      -0.81684950       0.83326243
H        1.82628583      -1.16902140      -0.53220289
H        0.70443901       0.33390980       1.73908340
H        0.09751746       1.48626510      -1.29233922
H       -1.90707597      -0.16442179       1.37464826
H       -2.54246121       0.79319597      -0.03250299
H       -1.54481839      -0.93087021      -1.61844410
H       -0.93317471      -1.85796313      -0.17316265
15
Frame=9 idx=009045 GeodesicLength=0.7480695439884699 rxn_smarts="[N:1]([C@@:2]([C:3]#[N:4])([C:5]1([H:11])[C:6]([H:12])([H:13])[C:7]1([H:14])[H:15])[H:10])([H:8])[H:9]>>[N:1]([C@@:2]1([H:10])/[C:3](=[N:4]/[H:11])[C:5]12[C:6]([H:12])([H:13])[C:7]2([H:14])[H:15])([H:8])[H:9]"
N        1.75108332      -0.97200498       0.44187345
C        0.87743601       0.14424846       0.68223345
C        1.08239564       1.40948114      -0.02790341
N        1.27283508       2.20892414      -0.91463512
C       -0.37965870       0.28461929      -0.18383925
C       -1.77221569       0.14200714       0.33155957
C       -1.19412108      -0.89833437      -0.58738050
H        2.67374630      -0.80414600       0.82018829
H        1.84656235      -1.14703420      -0.54997036
H        0.69686108       0.29860832       1.74468483
H        0.08713376       1.45990774      -1.31027927
H       -1.91608927      -0.13276854       1.37010543
H       -2.53084934       0.81108350      -0.05457115
H       -1.54363632      -0.94413817      -1.61108313
H       -0.95148314      -1.86045350      -0.15098283
15
Frame=10 idx=009045 GeodesicLength=0.8309411579276841 rxn_smarts="[N:1]([C@@:2]([C:3]#[N:4])([C:5]1([H:11])[C:6]([H:12])([H:13])[C:7]1([H:14])[H:15])[H:10])([H:8])[H:9]>>[N:1]([C@@:2]1([H:10])/[C:3](=[N:4]/[H:11])[C:5]12[C:6]([H:12])([H:13])[C:7]2([H:14])[H:15])([H:8])[H:9]"
N        1.76687401      -0.96924106       0.42765026
C        0.87731919       0.13134372       0.68546489
C        1.07481997       1.41321951       0.00000860
N        1.26169856       2.20940236      -0.89114508
C       -0.37329886       0.27468528      -0.18540600
C       -1.77110427       0.15539729       0.32357834
C       -1.20035788      -0.90313393      -0.57808448
H        2.68695563      -0.79138931       0.80800655
H        1.86678316      -1.12447224      -0.56714772
H        0.68945958       0.26305478       1.74953035
H        0.07651564       1.43320037      -1.32864137
H       -1.92399622      -0.10121261       1.36526132
H       -2.51885349       0.82849841      -0.07623417
H       -1.54293870      -0.95701050      -1.60360010
H       -0.96987631      -1.86234207      -0.12924140
15
Frame=11 idx=009045 GeodesicLength=0.913778239867203 rxn_smarts="[N:1]([C@@:2]([C:3]#[N:4])([C:5]1([H:11])[C:6]([H:12])([H:13])[C:7]1([H:14])[H:15])[H:10])([H:8])[H:9]>>[N:1]([C@@:2]1([H:10])/[C:3](=[N:4]/[H:11])[C:5]12[C:6]([H:12])([H:13])[C:7]2([H:14])[H:15])([H:8])[H:9]"
N        1.78249777      -0.96617706       0.41364224
C        0.87726546       0.11831902       0.68843525
C        1.06734376       1.41632660       0.02804974
N        1.24993112       2.20939338      -0.86756222
C       -0.36692726       0.26494623      -0.18710170
C       -1.76952983       0.16868163       0.31563294
C       -1.20663828      -0.90750375      -0.56894190
H        2.69964184      -0.77860694       0.79673880
H        1.88697477      -1.10130489      -0.58371588
H        0.68221799       0.22724846       1.75361732
H        0.06558508       1.40608179      -1.34751745
H       -1.93078642      -0.06978060       1.36014775
H       -2.50650018       0.84546154      -0.09745752
H       -1.54273598      -0.96945869      -1.59600979
H       -0.98833983      -1.86362672      -0.10795758
15
Frame=12 idx=009045 GeodesicLength=0.9965891618402956 rxn_smarts="[N:1]([C@@:2]([C:3]#[N:4])([C:5]1([H:11])[C:6]([H:12])([H:13])[C:7]1([H:14])[H:15])[H:10])([H:8])[H:9]>>[N:1]([C@@:2]1([H:10])/[C:3](=[N:4]/[H:11])[C:5]12[C:6]([H:12])([H:13])[C:7]2([H:14])[H:15])([H:8])[H:9]"
N        1.79796578      -0.96280566       0.39985422
C        0.87726955       0.10518350       0.69114205
C        1.05998855       1.41882935       0.05626397
N        1.23755799       2.20885378      -0.84390092
C       -0.36053600       0.25542167      -0.18894628
C       -1.76749396       0.18186584       0.30773937
C       -1.21294818      -0.91143240      -0.55996353
H        2.71181743      -0.76582639       0.78640459
H        1.90716306      -1.07750278      -0.59965451
H        0.67512115       0.19119067       1.75693815
H        0.05425976       1.37848992      -1.36699092
H       -1.93645149      -0.03849537       1.35479544
H       -2.49381613       0.86199440      -0.11821107
H       -1.54303901      -0.98146008      -1.58832501
H       -1.00685850      -1.86430646      -0.08714553
15
Frame=13 idx=009045 GeodesicLength=1.0793835370146767 rxn_smarts="[N:1]([C@@:2]([C:3]#[N:4])([C:5]1([H:11])[C:6]([H:12])([H:13])[C:7]1([H:14])[H:15])[H:10])([H:8])[H:9]>>[N:1]([C@@:2]1([H:10])/[C:3](=[N:4]/[H:11])[C:5]12[C:6]([H:12])([H:13])[C:7]2([H:14])[H:15])([H:8])[H:9]"
N        1.81328965      -0.95911927       0.38628876
C        0.87732640       0.09194477       0.69357991
C        1.05276611       1.42075146       0.08469505
N        1.22460125       2.20775498      -0.82015416
C       -0.35411676       0.24612988      -0.19096315
C       -1.76499879       0.19495898       0.29991027
C       -1.21927068      -0.91491115      -0.55115624
H        2.72349290      -0.75307429       0.77701181
H        1.92736591      -1.05304141      -0.61494105
H        0.66815785       0.15488051       1.75948076
H        0.04246262       1.35035177      -1.38714702
H       -1.94098228      -0.00736934       1.34923600
H       -2.48082804       0.87812336      -0.13847428
H       -1.54385553      -0.99299954      -1.58055669
H       -1.02541061      -1.86438071      -0.06680997
15
Frame=14 idx=009045 GeodesicLength=1.162189708112187 rxn_smarts="[N:1]([C@@:2]([C:3]#[N:4])([C:5]1([H:11])[C:6]([H:12])([H:13])[C:7]1([H:14])[H:15])[H:10])([H:8])[H:9]>>[N:1]([C@@:2]1([H:10])/[C:3](=[N:4]/[H:11])[C:5]12[C:6]([H:12])([H:13])[C:7]2([H:14])[H:15])([H:8])[H:9]"
N        1.82847943      -0.95511434       0.37294796
C        0.87743420       0.07861273       0.69574535
C        1.04569632       1.42212543       0.11338181
N        1.21110490       2.20608350      -0.79632207
C       -0.34766322       0.23709081      -0.19318091
C       -1.76204486       0.20797166       0.29215789
C       -1.22559662      -0.91794211      -0.54253217
H        2.73468150      -0.74038242       0.76858704
H        1.94760876      -1.02788970      -0.62956127
H        0.66132169       0.11832113       1.76124136
H        0.03009790       1.32160446      -1.40806099
H       -1.94436794       0.02358489       1.34350472
H       -2.46756159       0.89387876      -0.15822819
H       -1.54520657      -1.00407912      -1.57272532
H       -1.04398390      -1.86386568      -0.04695520
15
Frame=15 idx=009045 GeodesicLength=1.244936655492378 rxn_smarts="[N:1]([C@@:2]([C:3]#[N:4])([C:5]1([H:11])[C:6]([H:12])([H:13])[C:7]1([H:14])[H:15])[H:10])([H:8])[H:9]>>[N:1]([C@@:2]1([H:10])/[C:3](=[N:4]/[H:11])[C:5]12[C:6]([H:12])([H:13])[C:7]2([H:14])[H:15])([H:8])[H:9]"
N        1.84354600      -0.95076517       0.35982182
C        0.87758094       0.06519967       0.69759920
C        1.03878072       1.42291761       0.14234514
N        1.19712106       2.20375409      -0.77236708
C       -0.34116160       0.22832032      -0.19561920
C       -1.75863871       0.22090342       0.28447982
C       -1.23189696      -0.92048831      -0.53407072
H        2.74538608      -0.72777382       0.76110686
H        1.96792469      -1.00200624      -0.64346774
H        0.65458155       0.08152078       1.76213992
H        0.01707146       1.29217725      -1.42974443
H       -1.94662019       0.05435553       1.33758339
H       -2.45405360       0.90923586      -0.17746562
H       -1.54707817      -1.01465915      -1.56477755
H       -1.06254328      -1.86269184      -0.02756381
15
Frame=16 idx=009045 GeodesicLength=1.3277418901721472 rxn_smarts="[N:1]([C@@:2]([C:3]#[N:4])([C:5]1([H:11])[C:6]([H:12])([H:13])[C:7]1([H:14])[H:15])[H:10])([H:8])[H:9]>>[N:1]([C@@:2]1([H:10])/[C:3](=[N:4]/[H:11])[C:5]12[C:6]([H:12])([H:13])[C:7]2([H:14])[H:15])([H:8])[H:9]"
N        1.85852639      -0.94606544       0.34684875
C        0.87777148       0.05167230       0.69914583
C        1.03199506       1.42317965       0.17169639
N        1.18263859       2.20088023      -0.74814508
C       -0.33460606       0.21980655      -0.19832818
C       -1.75478676       0.23380822       0.27684585
C       -1.23818414      -0.92261165      -0.52575032
H        2.75564765      -0.71525727       0.75453978
H        1.98834210      -0.97529658      -0.65673020
H        0.64794272       0.04436163       1.76219596
H        0.00335814       1.26193402      -1.45229536
H       -1.94772910       0.08508968       1.33150716
H       -2.44028662       0.92429272      -0.19628971
H       -1.54950341      -1.02487289      -1.55672335
H       -1.08112603      -1.86092117      -0.00851751
