7
Frame=0 idx=000580 GeodesicLength=0.0 rxn_smarts="[O:1]=[C:2]([C:3]#[C:4][C:5]#[N:6])[H:7]>>[O+:1](=[C-:2][H:7])[C:3]#[C:4][C:5]#[N:6]"
O       -1.56650100      -0.70022982       0.46605055
C       -1.83796599       0.45367072      -0.10336267
C       -0.31531581      -0.15846168       0.24091804
C        0.89986959      -0.22363646       0.18693397
C        2.23728238       0.01382357       0.01398326
N        3.36739187       0.19642464      -0.12711752
H       -2.78476101       0.41840903      -0.67740566
7
Frame=1 idx=000580 GeodesicLength=0.05260802238725735 rxn_smarts="[O:1]=[C:2]([C:3]#[C:4][C:5]#[N:6])[H:7]>>[O+:1](=[C-:2][H:7])[C:3]#[C:4][C:5]#[N:6]"
O       -1.57836243      -0.68895951       0.47644771
C       -1.83369099       0.44529796      -0.13119260
C       -0.30733160      -0.16461631       0.22323396
C        0.90697325      -0.22793157       0.17400344
C        2.24772362       0.00908114       0.02262686
N        3.37599717       0.20408965      -0.11477942
H       -2.81130901       0.42303865      -0.65033995
7
Frame=2 idx=000580 GeodesicLength=0.10494459938876158 rxn_smarts="[O:1]=[C:2]([C:3]#[C:4][C:5]#[N:6])[H:7]>>[O+:1](=[C-:2][H:7])[C:3]#[C:4][C:5]#[N:6]"
O       -1.58916519      -0.67738546       0.48756480
C       -1.83112761       0.43300857      -0.16102021
C       -0.29945961      -0.16987555       0.20505107
C        0.91399344      -0.22923778       0.15933643
C        2.25734896       0.00777138       0.02634702
N        3.38630312       0.20716513      -0.09691743
H       -2.83789311       0.42855372      -0.62036168
7
Frame=3 idx=000580 GeodesicLength=0.1571278452241412 rxn_smarts="[O:1]=[C:2]([C:3]#[C:4][C:5]#[N:6])[H:7]>>[O+:1](=[C-:2][H:7])[C:3]#[C:4][C:5]#[N:6]"
O       -1.60210509      -0.66812108       0.49513718
C       -1.82694892       0.41689493      -0.19435242
C       -0.29197879      -0.17927481       0.19033230
C        0.92103844      -0.23100157       0.15850615
C        2.26660476       0.00311816       0.03706886
N        3.39180510       0.21663557      -0.09401492
H       -2.85841549       0.44174880      -0.59267714
7
Frame=4 idx=000580 GeodesicLength=0.20991066271854508 rxn_smarts="[O:1]=[C:2]([C:3]#[C:4][C:5]#[N:6])[H:7]>>[O+:1](=[C-:2][H:7])[C:3]#[C:4][C:5]#[N:6]"
O       -1.61541138      -0.66195456       0.50001889
C       -1.82437799       0.39561135      -0.23005096
C       -0.28492149      -0.18522033       0.18225883
C        0.92766383      -0.22882825       0.16212296
C        2.27536869      -0.00252304       0.04013817
N        3.39784992       0.22476677      -0.08959995
H       -2.87617157       0.45814806      -0.56488794
7
Frame=5 idx=000580 GeodesicLength=0.2610112334886117 rxn_smarts="[O:1]=[C:2]([C:3]#[C:4][C:5]#[N:6])[H:7]>>[O+:1](=[C-:2][H:7])[C:3]#[C:4][C:5]#[N:6]"
O       -1.62589635      -0.65915012       0.50243189
C       -1.82550890       0.36656848      -0.26971487
C       -0.27820543      -0.18003459       0.18119799
C        0.93303679      -0.22045675       0.15548091
C        2.28268000       0.00022665       0.04018750
N        3.40777524       0.21929713      -0.07797153
H       -2.89388135       0.47354919      -0.53161188
7
Frame=6 idx=000580 GeodesicLength=0.3155821233649005 rxn_smarts="[O:1]=[C:2]([C:3]#[C:4][C:5]#[N:6])[H:7]>>[O+:1](=[C-:2][H:7])[C:3]#[C:4][C:5]#[N:6]"
O       -1.63907807      -0.66855406       0.49246886
C       -1.82676989       0.33012175      -0.31072536
C       -0.27314852      -0.16904608       0.19324961
C        0.93722469      -0.20311961       0.17129101
C        2.28886203       0.00163454       0.04177250
N        3.41449355       0.21179189      -0.08506182
H       -2.90158379       0.49717157      -0.50299479
7
Frame=7 idx=000580 GeodesicLength=0.3691557339877708 rxn_smarts="[O:1]=[C:2]([C:3]#[C:4][C:5]#[N:6])[H:7]>>[O+:1](=[C-:2][H:7])[C:3]#[C:4][C:5]#[N:6]"
O       -1.65161389      -0.68285253       0.48128987
C       -1.82940155       0.28854161      -0.35139293
C       -0.27016136      -0.15645840       0.20390327
C        0.93951466      -0.17722379       0.19091755
C        2.29278815       0.00592655       0.04365410
N        3.42004786       0.19847649      -0.09459125
H       -2.90117388       0.52359006      -0.47378061
7
Frame=8 idx=000580 GeodesicLength=0.4198229826263522 rxn_smarts="[O:1]=[C:2]([C:3]#[C:4][C:5]#[N:6])[H:7]>>[O+:1](=[C-:2][H:7])[C:3]#[C:4][C:5]#[N:6]"
O       -1.66302707      -0.69518132       0.47743139
C       -1.83490410       0.24478544      -0.38674446
C       -0.26896435      -0.14584978       0.20606417
C        0.93990966      -0.14940216       0.20033884
C        2.29490122       0.01222051       0.03989907
N        3.42614494       0.18356510      -0.09249525
H       -2.89406029       0.54986221      -0.44449377
7
Frame=9 idx=000580 GeodesicLength=0.4732392084935486 rxn_smarts="[O:1]=[C:2]([C:3]#[C:4][C:5]#[N:6])[H:7]>>[O+:1](=[C-:2][H:7])[C:3]#[C:4][C:5]#[N:6]"
O       -1.67515110      -0.71045216       0.47377851
C       -1.84291375       0.19988284      -0.41783774
C       -0.26838844      -0.13864629       0.20324549
C        0.93914171      -0.11213095       0.21361394
C        2.29658407       0.01685609       0.03620935
N        3.43089503       0.16703518      -0.09189323
H       -2.88016751       0.57745529      -0.41711633
7
Frame=10 idx=000580 GeodesicLength=0.5238141532271096 rxn_smarts="[O:1]=[C:2]([C:3]#[C:4][C:5]#[N:6])[H:7]>>[O+:1](=[C-:2][H:7])[C:3]#[C:4][C:5]#[N:6]"
O       -1.68615799      -0.72089234       0.47818732
C       -1.85384724       0.15752494      -0.44001475
C       -0.26810982      -0.13332205       0.19235265
C        0.93738789      -0.08505028       0.20484512
C        2.29699706       0.03374041       0.03593058
N        3.43679138       0.14618889      -0.08041377
H       -2.86306128       0.60181043      -0.39088714
7
Frame=11 idx=000580 GeodesicLength=0.5767674607789851 rxn_smarts="[O:1]=[C:2]([C:3]#[C:4][C:5]#[N:6])[H:7]>>[O+:1](=[C-:2][H:7])[C:3]#[C:4][C:5]#[N:6]"
O       -1.69904838      -0.72907534       0.48620204
C       -1.86580300       0.12015021      -0.45502538
C       -0.26740640      -0.12998592       0.18095210
C        0.93617448      -0.06460171       0.19126543
C        2.29827334       0.04183210       0.02995104
N        3.44151080       0.13651061      -0.06313622
H       -2.84370084       0.62517005      -0.37020901
7
Frame=12 idx=000580 GeodesicLength=0.6300128535592213 rxn_smarts="[O:1]=[C:2]([C:3]#[C:4][C:5]#[N:6])[H:7]>>[O+:1](=[C-:2][H:7])[C:3]#[C:4][C:5]#[N:6]"
O       -1.71308850      -0.73830790       0.49241847
C       -1.87720019       0.08706355      -0.46613174
C       -0.26667638      -0.12793095       0.17084188
C        0.93481350      -0.04661542       0.17929257
C        2.29976128       0.05277129       0.03336501
N        3.44464744       0.12635194      -0.05555766
H       -2.82225714       0.64666749      -0.35422853
7
Frame=13 idx=000580 GeodesicLength=0.6836703365669968 rxn_smarts="[O:1]=[C:2]([C:3]#[C:4][C:5]#[N:6])[H:7]>>[O+:1](=[C-:2][H:7])[C:3]#[C:4][C:5]#[N:6]"
O       -1.72762069      -0.74612206       0.50128473
C       -1.88956520       0.05648453      -0.47296535
C       -0.26565866      -0.12728873       0.15860104
C        0.93360867      -0.03248339       0.16129950
C        2.30102440       0.06361708       0.03199858
N        3.44788415       0.11868251      -0.04072826
H       -2.79967267       0.66711005      -0.33949025
7
Frame=14 idx=000580 GeodesicLength=0.7370985340705261 rxn_smarts="[O:1]=[C:2]([C:3]#[C:4][C:5]#[N:6])[H:7]>>[O+:1](=[C-:2][H:7])[C:3]#[C:4][C:5]#[N:6]"
O       -1.74398682      -0.75194699       0.51050571
C       -1.90189425       0.02852380      -0.47715661
C       -0.26463027      -0.13007355       0.14610925
C        0.93260664      -0.02471983       0.14238935
C        2.30243613       0.07403840       0.03651049
N        3.44991256       0.11631141      -0.03077352
H       -2.77444399       0.68786677      -0.32758467
7
Frame=15 idx=000580 GeodesicLength=0.7907756489349594 rxn_smarts="[O:1]=[C:2]([C:3]#[C:4][C:5]#[N:6])[H:7]>>[O+:1](=[C-:2][H:7])[C:3]#[C:4][C:5]#[N:6]"
O       -1.75987650      -0.75753269       0.52118014
C       -1.91505019       0.00288527      -0.47835169
C       -0.26326208      -0.13207207       0.13187336
C        0.93192910      -0.01836352       0.11787178
C        2.30394345       0.08412504       0.03970217
N        3.45221035       0.11423061      -0.01620687
H       -2.74989412       0.70672735      -0.31606889
7
Frame=16 idx=000580 GeodesicLength=0.844566210646304 rxn_smarts="[O:1]=[C:2]([C:3]#[C:4][C:5]#[N:6])[H:7]>>[O+:1](=[C-:2][H:7])[C:3]#[C:4][C:5]#[N:6]"
O       -1.77593078      -0.76169328       0.53322161
C       -1.92874610      -0.02057281      -0.47693216
C       -0.26158379      -0.13482429       0.11595520
C        0.93172648      -0.01612566       0.08815483
C        2.30529566       0.09382944       0.04347112
N        3.45413568       0.11474120       0.00110089
H       -2.72489714       0.72464540      -0.30497150
