11
Frame=0 idx=002679 GeodesicLength=0.0 rxn_smarts="[O:1]=[C:2]([C:3]1([H:7])[C:4]([H:8])([H:9])[C:5]1([H:10])[H:11])[H:6]>>[O:1]([C:2][C:3]1([H:7])[C:4]([H:8])([H:9])[C:5]1([H:10])[H:11])[H:6]"
O        2.55145888       0.00085942       0.21188684
C        1.38539515      -0.18987917      -0.33384181
C        0.20431935       0.17971121       0.42335067
C       -0.98973015       0.67755846      -0.37025000
C       -1.03274177      -0.67536474       0.21795748
H        2.47850514      -0.46113335      -0.86572376
H        0.38882651       0.60145799       1.40813589
H       -1.56481503       1.46746501       0.09262068
H       -0.85421247       0.76834493      -1.43934487
H       -1.63917375      -0.84349042       1.09715286
H       -0.92783182      -1.52552933      -0.44194396
11
Frame=1 idx=002679 GeodesicLength=0.031406705255388585 rxn_smarts="[O:1]=[C:2]([C:3]1([H:7])[C:4]([H:8])([H:9])[C:5]1([H:10])[H:11])[H:6]>>[O:1]([C:2][C:3]1([H:7])[C:4]([H:8])([H:9])[C:5]1([H:10])[H:11])[H:6]"
O        2.55070180       0.00316226       0.20907273
C        1.38479467      -0.19578077      -0.32583070
C        0.20350642       0.17961071       0.42792321
C       -0.98728816       0.67738751      -0.37032690
C       -1.03305718      -0.67522282       0.21869281
H        2.47827041      -0.45737518      -0.87769301
H        0.38574583       0.60207294       1.41256161
H       -1.56438361       1.46743929       0.08982038
H       -0.84829204       0.76722154      -1.43909313
H       -1.64285292      -0.84284486       1.09565772
H       -0.92714522      -1.52567064      -0.44078472
11
Frame=2 idx=002679 GeodesicLength=0.06282299727896937 rxn_smarts="[O:1]=[C:2]([C:3]1([H:7])[C:4]([H:8])([H:9])[C:5]1([H:10])[H:11])[H:6]>>[O:1]([C:2][C:3]1([H:7])[C:4]([H:8])([H:9])[C:5]1([H:10])[H:11])[H:6]"
O        2.54991151       0.00547121       0.20623877
C        1.38423597      -0.20163897      -0.31771369
C        0.20270212       0.17951467       0.43252265
C       -0.98478758       0.67719991      -0.37039999
C       -1.03332477      -0.67508178       0.21941686
H        2.47767336      -0.45362296      -0.88973490
H        0.38262005       0.60269862       1.41701020
H       -1.56390510       1.46739631       0.08698695
H       -0.84225711       0.76606959      -1.43881140
H       -1.64650687      -0.84219453       1.09411052
H       -0.92636158      -1.52581206      -0.43962595
11
Frame=3 idx=002679 GeodesicLength=0.09434900169122776 rxn_smarts="[O:1]=[C:2]([C:3]1([H:7])[C:4]([H:8])([H:9])[C:5]1([H:10])[H:11])[H:6]>>[O:1]([C:2][C:3]1([H:7])[C:4]([H:8])([H:9])[C:5]1([H:10])[H:11])[H:6]"
O        2.54910363       0.00770028       0.20344814
C        1.38372745      -0.20726049      -0.30957416
C        0.20191198       0.17949755       0.43711620
C       -0.98229167       0.67702518      -0.37046920
C       -1.03351166      -0.67494892       0.22011340
H        2.47676794      -0.45012965      -0.90175524
H        0.37947079       0.60339778       1.42145951
H       -1.56347457       1.46731720       0.08415726
H       -0.83622943       0.76496227      -1.43851398
H       -1.65005403      -0.84161937       1.09252313
H       -0.92542044      -1.52594185      -0.43850506
11
Frame=4 idx=002679 GeodesicLength=0.12567156306229166 rxn_smarts="[O:1]=[C:2]([C:3]1([H:7])[C:4]([H:8])([H:9])[C:5]1([H:10])[H:11])[H:6]>>[O:1]([C:2][C:3]1([H:7])[C:4]([H:8])([H:9])[C:5]1([H:10])[H:11])[H:6]"
O        2.54827127       0.01020765       0.20054521
C        1.38329761      -0.21242244      -0.30151697
C        0.20114327       0.17962598       0.44166520
C       -0.97984595       0.67689685      -0.37049057
C       -1.03354854      -0.67482459       0.22072176
H        2.47546133      -0.44762069      -0.91341176
H        0.37629172       0.60418029       1.42589318
H       -1.56318011       1.46716037       0.08145848
H       -0.83029792       0.76401500      -1.43815193
H       -1.65339137      -0.84121878       1.09083995
H       -0.92420131      -1.52599965      -0.43755254
11
Frame=5 idx=002679 GeodesicLength=0.15700178498024986 rxn_smarts="[O:1]=[C:2]([C:3]1([H:7])[C:4]([H:8])([H:9])[C:5]1([H:10])[H:11])[H:6]>>[O:1]([C:2][C:3]1([H:7])[C:4]([H:8])([H:9])[C:5]1([H:10])[H:11])[H:6]"
O        2.54741892       0.01283710       0.19760582
C        1.38291667      -0.21715465      -0.29354256
C        0.20038408       0.17989553       0.44617460
C       -0.97746258       0.67681238      -0.37047407
C       -1.03345868      -0.67470809       0.22126248
H        2.47390868      -0.44591387      -0.92481427
H        0.37308589       0.60506018       1.43030923
H       -1.56302727       1.46693508       0.07886459
H       -0.82447996       0.76320953      -1.43774016
H       -1.65654234      -0.84097214       1.08908502
H       -0.92274342      -1.52600103      -0.43673069
11
Frame=6 idx=002679 GeodesicLength=0.18836561431549684 rxn_smarts="[O:1]=[C:2]([C:3]1([H:7])[C:4]([H:8])([H:9])[C:5]1([H:10])[H:11])[H:6]>>[O:1]([C:2][C:3]1([H:7])[C:4]([H:8])([H:9])[C:5]1([H:10])[H:11])[H:6]"
O        2.54653799       0.01543597       0.19470135
C        1.38258443      -0.22157130      -0.28560116
C        0.19963327       0.18027004       0.45066070
C       -0.97511050       0.67675174      -0.37043690
C       -1.03326975      -0.67459637       0.22176131
H        2.47210956      -0.44466515      -0.93611993
H        0.36984870       0.60602841       1.43471076
H       -1.56296451       1.46665875       0.07632053
H       -0.81871858       0.76248396      -1.43729485
H       -1.65955571      -0.84082627       1.08727930
H       -0.92109490      -1.52596977      -0.43598111
11
Frame=7 idx=002679 GeodesicLength=0.21973883573803737 rxn_smarts="[O:1]=[C:2]([C:3]1([H:7])[C:4]([H:8])([H:9])[C:5]1([H:10])[H:11])[H:6]>>[O:1]([C:2][C:3]1([H:7])[C:4]([H:8])([H:9])[C:5]1([H:10])[H:11])[H:6]"
O        2.54562963       0.01798570       0.19183790
C        1.38229696      -0.22572810      -0.27767296
C        0.19888986       0.18073025       0.45513163
C       -0.97277629       0.67670950      -0.37038491
C       -1.03299571      -0.67448827       0.22222717
H        2.47006682      -0.44376154      -0.94737298
H        0.36657803       0.60706823       1.43910454
H       -1.56296825       1.46634128       0.07380586
H       -0.81298772       0.76181782      -1.43682223
H       -1.66245358      -0.84076127       1.08542992
H       -0.91927974      -1.52591361      -0.43528395
11
Frame=8 idx=002679 GeodesicLength=0.25111206242552003 rxn_smarts="[O:1]=[C:2]([C:3]1([H:7])[C:4]([H:8])([H:9])[C:5]1([H:10])[H:11])[H:6]>>[O:1]([C:2][C:3]1([H:7])[C:4]([H:8])([H:9])[C:5]1([H:10])[H:11])[H:6]"
O        2.54469693       0.02044850       0.18903041
C        1.38205203      -0.22968491      -0.26973419
C        0.19815424       0.18125620       0.45959683
C       -0.97044366       0.67667728      -0.37032503
C       -1.03265053      -0.67438335       0.22267087
H        2.46777529      -0.44306297      -0.95863130
H        0.36327317       0.60816833       1.44349626
H       -1.56301358       1.46598984       0.07129701
H       -0.80725718       0.76118524      -1.43632826
H       -1.66526421      -0.84075036       1.08354241
H       -0.91732249      -1.52584380      -0.43461502
11
Frame=9 idx=002679 GeodesicLength=0.28249008704569534 rxn_smarts="[O:1]=[C:2]([C:3]1([H:7])[C:4]([H:8])([H:9])[C:5]1([H:10])[H:11])[H:6]>>[O:1]([C:2][C:3]1([H:7])[C:4]([H:8])([H:9])[C:5]1([H:10])[H:11])[H:6]"
O        2.54374936       0.02286766       0.18625714
C        1.38185164      -0.23349530      -0.26175653
C        0.19742604       0.18182642       0.46406889
C       -0.96810059       0.67665190      -0.37026103
C       -1.03225182      -0.67428500       0.22309807
H        2.46523454      -0.44251395      -0.96992351
H        0.35993443       0.60930691       1.44789881
H       -1.56307607       1.46561868       0.06877888
H       -0.80149798       0.76057626      -1.43581558
H       -1.66801990      -0.84078219       1.08161600
H       -0.91524965      -1.52577140      -0.43396113
11
Frame=10 idx=002679 GeodesicLength=0.3138643565351006 rxn_smarts="[O:1]=[C:2]([C:3]1([H:7])[C:4]([H:8])([H:9])[C:5]1([H:10])[H:11])[H:6]>>[O:1]([C:2][C:3]1([H:7])[C:4]([H:8])([H:9])[C:5]1([H:10])[H:11])[H:6]"
O        2.54277482       0.02529948       0.18349298
C        1.38168777      -0.23714422      -0.25374331
C        0.19670206       0.18244350       0.46855023
C       -0.96574189       0.67663336      -0.37018676
C       -1.03178868      -0.67418840       0.22350193
H        2.46242412      -0.44218897      -0.98122600
H        0.35655162       0.61047482       1.45231902
H       -1.56315157       1.46521845       0.06626338
H       -0.79570280       0.75999539      -1.43527573
H       -1.67071123      -0.84085967       1.07963859
H       -0.91304423      -1.52568374      -0.43333431
11
Frame=11 idx=002679 GeodesicLength=0.34524496058365006 rxn_smarts="[O:1]=[C:2]([C:3]1([H:7])[C:4]([H:8])([H:9])[C:5]1([H:10])[H:11])[H:6]>>[O:1]([C:2][C:3]1([H:7])[C:4]([H:8])([H:9])[C:5]1([H:10])[H:11])[H:6]"
O        2.54176066       0.02774562       0.18074976
C        1.38156137      -0.24053049      -0.24575527
C        0.19598130       0.18314260       0.47301689
C       -0.96340167       0.67663653      -0.37008877
C       -1.03123912      -0.67409380       0.22386804
H        2.45939771      -0.44227770      -0.99245528
H        0.35313288       0.61170100       1.45673454
H       -1.56329011       1.46477601       0.06379260
H       -0.78994292       0.75948737      -1.43469880
H       -1.67329241      -0.84102261       1.07760328
H       -0.91066769      -1.52556454      -0.43276699
11
Frame=12 idx=002679 GeodesicLength=0.37662301173727325 rxn_smarts="[O:1]=[C:2]([C:3]1([H:7])[C:4]([H:8])([H:9])[C:5]1([H:10])[H:11])[H:6]>>[O:1]([C:2][C:3]1([H:7])[C:4]([H:8])([H:9])[C:5]1([H:10])[H:11])[H:6]"
O        2.54073369       0.03019570       0.17803258
C        1.38147639      -0.24368651      -0.23777905
C        0.19526495       0.18391237       0.47747615
C       -0.96107920       0.67666224      -0.36997261
C       -1.03061857      -0.67400531       0.22420364
H        2.45616818      -0.44271504      -1.00364171
H        0.34968186       0.61297900       1.46115014
H       -1.56348627       1.46430571       0.06135040
H       -0.78420911       0.75904638      -1.43409070
H       -1.67578944      -0.84126811       1.07551581
H       -0.90814248      -1.52542643      -0.43224464
11
Frame=13 idx=002679 GeodesicLength=0.4080016353855474 rxn_smarts="[O:1]=[C:2]([C:3]1([H:7])[C:4]([H:8])([H:9])[C:5]1([H:10])[H:11])[H:6]>>[O:1]([C:2][C:3]1([H:7])[C:4]([H:8])([H:9])[C:5]1([H:10])[H:11])[H:6]"
O        2.53968379       0.03265709       0.17533577
C        1.38142885      -0.24664798      -0.22979518
C        0.19455144       0.18474103       0.48193536
C       -0.95876002       0.67670436      -0.36984067
C       -1.02993090      -0.67392080       0.22451189
H        2.45271963      -0.44344965      -1.01481026
H        0.34619379       0.61430008       1.46557187
H       -1.56372460       1.46380425       0.05892590
H       -0.77847331       0.75866184      -1.43345160
H       -1.67820877      -0.84158099       1.07337794
H       -0.90547988      -1.52526922      -0.43176102
11
Frame=14 idx=002679 GeodesicLength=0.43938865629620616 rxn_smarts="[O:1]=[C:2]([C:3]1([H:7])[C:4]([H:8])([H:9])[C:5]1([H:10])[H:11])[H:6]>>[O:1]([C:2][C:3]1([H:7])[C:4]([H:8])([H:9])[C:5]1([H:10])[H:11])[H:6]"
O        2.53861953       0.03516561       0.17263999
C        1.38142272      -0.24946419      -0.22177191
C        0.19384179       0.18560834       0.48640889
C       -0.95642900       0.67675800      -0.36969830
C       -1.02919094      -0.67384288       0.22479892
H        2.44903820      -0.44442220      -1.02599535
H        0.34266761       0.61564483       1.47001538
H       -1.56398221       1.46327855       0.05650205
H       -0.77270158       0.75832276      -1.43278639
H       -1.68058209      -0.84194643       1.07118907
H       -0.90270404      -1.52510240      -0.43130235
11
Frame=15 idx=002679 GeodesicLength=0.4707763283018029 rxn_smarts="[O:1]=[C:2]([C:3]1([H:7])[C:4]([H:8])([H:9])[C:5]1([H:10])[H:11])[H:6]>>[O:1]([C:2][C:3]1([H:7])[C:4]([H:8])([H:9])[C:5]1([H:10])[H:11])[H:6]"
O        2.53752648       0.03774595       0.16992672
C        1.38145306      -0.25213724      -0.21370257
C        0.19313293       0.18651406       0.49090050
C       -0.95408017       0.67682161      -0.36954057
C       -1.02839121      -0.67376977       0.22506159
H        2.44510471      -0.44565681      -1.03719125
H        0.33909254       0.61701059       1.47448329
H       -1.56425284       1.46272743       0.05408208
H       -0.76688016       0.75802742      -1.43208484
H       -1.68290324      -0.84236272       1.06893966
H       -0.89980210      -1.52492051      -0.43087460
11
Frame=16 idx=002679 GeodesicLength=0.5021690494333257 rxn_smarts="[O:1]=[C:2]([C:3]1([H:7])[C:4]([H:8])([H:9])[C:5]1([H:10])[H:11])[H:6]>>[O:1]([C:2][C:3]1([H:7])[C:4]([H:8])([H:9])[C:5]1([H:10])[H:11])[H:6]"
O        2.53640042       0.04023651       0.16729046
C        1.38151171      -0.25458491      -0.20565837
C        0.19242347       0.18749577       0.49537538
C       -0.95174685       0.67690248      -0.36936660
C       -1.02751175      -0.67369415       0.22529655
H        2.44097450      -0.44715733      -1.04837365
H        0.33547356       0.61843404       1.47893787
H       -1.56458005       1.46213977       0.05168531
H       -0.76108787       0.75778237      -1.43135080
H       -1.68511284      -0.84284415       1.06664881
H       -0.89674431      -1.52471040      -0.43048495
