19
Frame=0 idx=008083 GeodesicLength=0.0 rxn_smarts="[C:1]([C:2]([C@@:3]([O:4][H:14])([C@@:5]([C:6]([H:16])([H:17])[H:18])([O:7][H:19])[H:15])[H:13])([H:11])[H:12])([H:8])([H:9])[H:10]>>[C:1]([C:2]([C@@:3]1([H:13])[O:4][C@@:5]1([C:6]([H:16])([H:17])[H:18])[H:15])([H:11])[H:12])([H:8])([H:9])[H:10].[O:7]([H:14])[H:19]"
C        2.07648636       0.97186343       0.91329686
C        1.01729892      -0.03725688       1.33669675
C        0.33294255      -0.71298220       0.15614475
O       -0.63854483      -1.63297318       0.48027363
C       -0.55021754       0.16809263      -0.63841138
C       -0.94825762      -0.21511341      -2.00127799
O       -2.40550163       0.02793132       0.57882662
H        2.86625904       0.49477076       0.32734660
H        1.65322719       1.77568415       0.30296362
H        2.54500609       1.44126329       1.77916065
H        1.46041401      -0.82978575       1.94352230
H        0.24958716       0.43733956       1.95524052
H        1.10724297      -1.13954218      -0.51195533
H       -1.81505780      -0.81477112       0.73899955
H       -0.75605298       1.18542421      -0.32747476
H       -0.87916006      -1.29069603      -2.14648545
H       -1.93512873       0.15332828      -2.27628120
H       -0.22528598       0.28041224      -2.66508350
H       -3.15525703      -0.26298921       0.05449767
19
Frame=1 idx=008083 GeodesicLength=0.0877760026448366 rxn_smarts="[C:1]([C:2]([C@@:3]([O:4][H:14])([C@@:5]([C:6]([H:16])([H:17])[H:18])([O:7][H:19])[H:15])[H:13])([H:11])[H:12])([H:8])([H:9])[H:10]>>[C:1]([C:2]([C@@:3]1([H:13])[O:4][C@@:5]1([C:6]([H:16])([H:17])[H:18])[H:15])([H:11])[H:12])([H:8])([H:9])[H:10].[O:7]([H:14])[H:19]"
C        2.09854362       0.96111125       0.92208370
C        1.00796674      -0.01897118       1.33328478
C        0.33943050      -0.69535753       0.14593349
O       -0.62503899      -1.63030155       0.45700308
C       -0.57367018       0.16394156      -0.63856473
C       -0.95821019      -0.21358266      -2.00904827
O       -2.40653896       0.00689901       0.58892471
H        2.89340461       0.45798762       0.36568605
H        1.70705580       1.76360077       0.28936137
H        2.55507201       1.43449711       1.79229413
H        1.41959971      -0.80800669       1.96653864
H        0.24135024       0.48206357       1.93188601
H        1.11275782      -1.11139662      -0.52817639
H       -1.80419813      -0.84747090       0.75297517
H       -0.77351765       1.18469544      -0.33363329
H       -0.87724925      -1.28745777      -2.16176646
H       -1.94907551       0.14364386      -2.28530378
H       -0.23962742       0.29281071      -2.66863548
H       -3.16805478      -0.27870599       0.07915727
19
Frame=2 idx=008083 GeodesicLength=0.17557717222388555 rxn_smarts="[C:1]([C:2]([C@@:3]([O:4][H:14])([C@@:5]([C:6]([H:16])([H:17])[H:18])([O:7][H:19])[H:15])[H:13])([H:11])[H:12])([H:8])([H:9])[H:10]>>[C:1]([C:2]([C@@:3]1([H:13])[O:4][C@@:5]1([C:6]([H:16])([H:17])[H:18])[H:15])([H:11])[H:12])([H:8])([H:9])[H:10].[O:7]([H:14])[H:19]"
C        2.12071144       0.94964968       0.93187643
C        0.99847057       0.00025957       1.32924455
C        0.34577357      -0.67668900       0.13517364
O       -0.61081724      -1.62702342       0.43366025
C       -0.59713760       0.15955864      -0.63914575
C       -0.96860791      -0.21226119      -2.01702420
O       -2.40686582      -0.01464824       0.59941463
H        2.91875406       0.41993603       0.40566141
H        1.76252705       1.75027393       0.27753371
H        2.56556431       1.42681481       1.80624388
H        1.37702241      -0.78436785       1.98851312
H        0.23384243       0.52823054       1.90683113
H        1.11811613      -1.08194495      -0.54492176
H       -1.79154476      -0.88073152       0.76670403
H       -0.79163533       1.18366634      -0.34052987
H       -0.87556596      -1.28424542      -2.17712706
H       -1.96351304       0.13338671      -2.29435270
H       -0.25491389       0.30503001      -2.67270802
H       -3.18018043      -0.29489466       0.10495259
19
Frame=3 idx=008083 GeodesicLength=0.2633927342226059 rxn_smarts="[C:1]([C:2]([C@@:3]([O:4][H:14])([C@@:5]([C:6]([H:16])([H:17])[H:18])([O:7][H:19])[H:15])[H:13])([H:11])[H:12])([H:8])([H:9])[H:10]>>[C:1]([C:2]([C@@:3]1([H:13])[O:4][C@@:5]1([C:6]([H:16])([H:17])[H:18])[H:15])([H:11])[H:12])([H:8])([H:9])[H:10].[O:7]([H:14])[H:19]"
C        2.14291764       0.93741502       0.94277568
C        0.98879134       0.02049838       1.32451209
C        0.35198488      -0.65691769       0.12379974
O       -0.59579242      -1.62309280       0.41019369
C       -0.62060160       0.15493302      -0.64018801
C       -0.97949258      -0.21121049      -2.02522343
O       -2.40631656      -0.03668532       0.61036945
H        2.94208669       0.38055162       0.44728047
H        1.81966515       1.73566400       0.26772719
H        2.57642820       1.41802670       1.82114427
H        1.33252809      -0.75869145       2.00931083
H        0.22716003       0.57591491       1.87994158
H        1.12334861      -1.05105506      -0.56226534
H       -1.77691497      -0.91455689       0.78009229
H       -0.81042728       1.18233296      -0.34821842
H       -0.87410681      -1.28111002      -2.19257776
H       -1.97850640       0.12242974      -2.30339121
H       -0.27125439       0.31702473      -2.67736159
H       -3.19149761      -0.31147137       0.13207848
19
Frame=4 idx=008083 GeodesicLength=0.35121732154087565 rxn_smarts="[C:1]([C:2]([C@@:3]([O:4][H:14])([C@@:5]([C:6]([H:16])([H:17])[H:18])([O:7][H:19])[H:15])[H:13])([H:11])[H:12])([H:8])([H:9])[H:10]>>[C:1]([C:2]([C@@:3]1([H:13])[O:4][C@@:5]1([C:6]([H:16])([H:17])[H:18])[H:15])([H:11])[H:12])([H:8])([H:9])[H:10].[O:7]([H:14])[H:19]"
C        2.16506702       0.92432299       0.95489296
C        0.97891692       0.04181489       1.31901128
C        0.35807466      -0.63598517       0.11174131
O       -0.57986500      -1.61844836       0.38655999
C       -0.64403952       0.15006076      -0.64172651
C       -0.99090849      -0.21049583      -2.03366018
O       -2.40471045      -0.05917854       0.62187592
H        2.96314231       0.33975551       0.49055087
H        1.87848575       1.71970371       0.26021353
H        2.58758143       1.40792129       1.83716993
H        1.28597755      -0.73074884       2.02873644
H        0.22141698       0.62518922       1.85104908
H        1.12848452      -1.01857853      -0.58029041
H       -1.76010597      -0.94894411       0.79303911
H       -0.82991952       1.18069274      -0.35675178
H       -0.87287045      -1.27810306      -2.20812512
H       -1.99411811       0.11063590      -2.31237210
H       -0.28876259       0.32873977      -2.68265749
H       -3.20184704      -0.32835433       0.16074316
19
Frame=5 idx=008083 GeodesicLength=0.4388659907828503 rxn_smarts="[C:1]([C:2]([C@@:3]([O:4][H:14])([C@@:5]([C:6]([H:16])([H:17])[H:18])([O:7][H:19])[H:15])[H:13])([H:11])[H:12])([H:8])([H:9])[H:10]>>[C:1]([C:2]([C@@:3]1([H:13])[O:4][C@@:5]1([C:6]([H:16])([H:17])[H:18])[H:15])([H:11])[H:12])([H:8])([H:9])[H:10].[O:7]([H:14])[H:19]"
C        2.18706774       0.91023437       0.96821230
C        0.96888357       0.06432126       1.31274017
C        0.36400228      -0.61380485       0.09900349
O       -0.56303080      -1.61305826       0.36273817
C       -0.66750313       0.14496208      -0.64371023
C       -1.00285698      -0.21011002      -2.04230440
O       -2.40202101      -0.08205017       0.63390750
H        2.98172812       0.29754923       0.53548469
H        1.93904425       1.70207090       0.25498096
H        2.59885244       1.39637499       1.85436146
H        1.23772278      -0.70035599       2.04672009
H        0.21664022       0.67599997       1.82002781
H        1.13348660      -0.98438990      -0.59898015
H       -1.74110204      -0.98378973       0.80549326
H       -0.85023703       1.17872396      -0.36604686
H       -0.87177575      -1.27519616      -2.22376135
H       -2.01034288       0.09792630      -2.32128046
H       -0.30747622       0.34023417      -2.68852388
H       -3.21108218      -0.34564216       0.19093743
19
Frame=6 idx=008083 GeodesicLength=0.5264817210867615 rxn_smarts="[C:1]([C:2]([C@@:3]([O:4][H:14])([C@@:5]([C:6]([H:16])([H:17])[H:18])([O:7][H:19])[H:15])[H:13])([H:11])[H:12])([H:8])([H:9])[H:10]>>[C:1]([C:2]([C@@:3]1([H:13])[O:4][C@@:5]1([C:6]([H:16])([H:17])[H:18])[H:15])([H:11])[H:12])([H:8])([H:9])[H:10].[O:7]([H:14])[H:19]"
C        2.20875828       0.89509127       0.98293499
C        0.95866038       0.08806992       1.30554432
C        0.36982997      -0.59033002       0.08543638
O       -0.54509347      -1.60686122       0.33864865
C       -0.69090416       0.13960187      -0.64621564
C       -1.01540812      -0.21016095      -2.05119004
O       -2.39789572      -0.10526712       0.64667035
H        2.99746556       0.25377298       0.58212677
H        2.00128851       1.68276301       0.25244828
H        2.61004853       1.38313850       1.87299621
H        1.18728971      -0.66723835       2.06296922
H        0.21308309       0.72849863       1.78663309
H        1.13843381      -0.94829335      -0.61851944
H       -1.71954818      -1.01916564       0.81730577
H       -0.87132288       1.17642081      -0.37621903
H       -0.87085133      -1.27247493      -2.23951713
H       -2.02729293       0.08411408      -2.33001625
H       -0.32759091       0.35140226      -2.69510692
H       -3.21895014      -0.36308175       0.22307042
19
Frame=7 idx=008083 GeodesicLength=0.614086420475566 rxn_smarts="[C:1]([C:2]([C@@:3]([O:4][H:14])([C@@:5]([C:6]([H:16])([H:17])[H:18])([O:7][H:19])[H:15])[H:13])([H:11])[H:12])([H:8])([H:9])[H:10]>>[C:1]([C:2]([C@@:3]1([H:13])[O:4][C@@:5]1([C:6]([H:16])([H:17])[H:18])[H:15])([H:11])[H:12])([H:8])([H:9])[H:10].[O:7]([H:14])[H:19]"
C        2.22995896       0.87880203       0.99914950
C        0.94825217       0.11311463       1.29735003
C        0.37557550      -0.56549563       0.07096601
O       -0.52593592      -1.59978736       0.31422918
C       -0.71419290       0.13397225      -0.64925033
C       -1.02858713      -0.21071003      -2.06032017
O       -2.39210343      -0.12875700       0.66026725
H        3.01000197       0.20834279       0.63044058
H        2.06510385       1.66163516       0.25287607
H        2.62096386       1.36804244       1.89321887
H        1.13462040      -0.63120771       2.07727484
H        0.21089865       0.78270634       1.75070437
H        1.14334649      -0.91010854      -0.63899638
H       -1.69523173      -1.05506251       0.82833623
H       -0.89317126       1.17376929      -0.38728683
H       -0.87008409      -1.26998015      -2.25539061
H       -2.04500026       0.06905756      -2.33851570
H       -0.34920245       0.36219285      -2.70245043
H       -3.22521268      -0.38052640       0.25739752
19
Frame=8 idx=008083 GeodesicLength=0.7017087551253601 rxn_smarts="[C:1]([C:2]([C@@:3]([O:4][H:14])([C@@:5]([C:6]([H:16])([H:17])[H:18])([O:7][H:19])[H:15])[H:13])([H:11])[H:12])([H:8])([H:9])[H:10]>>[C:1]([C:2]([C@@:3]1([H:13])[O:4][C@@:5]1([C:6]([H:16])([H:17])[H:18])[H:15])([H:11])[H:12])([H:8])([H:9])[H:10].[O:7]([H:14])[H:19]"
C        2.25043749       0.86126289       1.01694772
C        0.93767517       0.13950430       1.28806104
C        0.38125440      -0.53924384       0.05550134
O       -0.50543681      -1.59177174       0.28943388
C       -0.73731874       0.12806176      -0.65281472
C       -1.04240830      -0.21181749      -2.06968078
O       -2.38436771      -0.15240992       0.67480308
H        3.01890326       0.16118131       0.68039984
H        2.13034477       1.63850006       0.25652179
H        2.63131612       1.35092484       1.91522727
H        1.07966591      -0.59204217       2.08931278
H        0.21028998       0.83861837       1.71204583
H        1.14823263      -0.86967283      -0.66051505
H       -1.66789922      -1.09142269       0.83846555
H       -0.91577559       1.17074150      -0.39923762
H       -0.86944769      -1.26774148      -2.27138362
H       -2.06347953       0.05262003      -2.34668451
H       -0.37241820       0.37254670      -2.71058413
H       -3.22956796      -0.39783961       0.29418032
19
Frame=9 idx=008083 GeodesicLength=0.7890596979451135 rxn_smarts="[C:1]([C:2]([C@@:3]([O:4][H:14])([C@@:5]([C:6]([H:16])([H:17])[H:18])([O:7][H:19])[H:15])[H:13])([H:11])[H:12])([H:8])([H:9])[H:10]>>[C:1]([C:2]([C@@:3]1([H:13])[O:4][C@@:5]1([C:6]([H:16])([H:17])[H:18])[H:15])([H:11])[H:12])([H:8])([H:9])[H:10].[O:7]([H:14])[H:19]"
C        2.26997897       0.84232850       1.03619910
C        0.92701325       0.16731253       1.27776622
C        0.38679582      -0.51153273       0.03912709
O       -0.48368956      -1.58279634       0.26424024
C       -0.76030444       0.12187987      -0.65678557
C       -1.05679513      -0.21343044      -2.07919148
O       -2.37469583      -0.17610548       0.69017808
H        3.02390265       0.11252299       0.73180682
H        2.19682975       1.61281814       0.26326261
H        2.64079234       1.33173586       1.93882308
H        1.02304009      -0.54960205       2.09914245
H        0.21135281       0.89602236       1.67066905
H        1.15300384      -0.82693182      -0.68294358
H       -1.63765075      -1.12807511       0.84762613
H       -0.93921471       1.16729064      -0.41188467
H       -0.86879640      -1.26565537      -2.28748730
H       -2.08260642       0.03477990      -2.35451449
H       -0.39717582       0.38258448      -2.71930827
H       -3.23178047      -0.41514592       0.33327450
19
Frame=10 idx=008083 GeodesicLength=0.8765509129930376 rxn_smarts="[C:1]([C:2]([C@@:3]([O:4][H:14])([C@@:5]([C:6]([H:16])([H:17])[H:18])([O:7][H:19])[H:15])[H:13])([H:11])[H:12])([H:8])([H:9])[H:10]>>[C:1]([C:2]([C@@:3]1([H:13])[O:4][C@@:5]1([C:6]([H:16])([H:17])[H:18])[H:15])([H:11])[H:12])([H:8])([H:9])[H:10].[O:7]([H:14])[H:19]"
C        2.28822522       0.82195809       1.05713984
C        0.91625705       0.19652057       1.26622890
C        0.39229792      -0.48233309       0.02161912
O       -0.46041470      -1.57276606       0.23857002
C       -0.78297764       0.11538104      -0.66122993
C       -1.07179858      -0.21568566      -2.08887929
O       -2.36255891      -0.19970801       0.70667693
H        3.02434931       0.06215326       0.78462303
H        2.26421826       1.58463937       0.27367123
H        2.64896766       1.31022161       1.96442379
H        0.96422892      -0.50365681       2.10615095
H        0.21446095       0.95497581       1.62627070
H        1.15774467      -0.78165826      -0.70655446
H       -1.60393455      -1.16503789       0.85566482
H       -0.96332519       1.16339824      -0.42532695
H       -0.86818925      -1.26384189      -2.30370500
H       -2.10245321       0.01534169      -2.36183143
H       -0.42366636       0.39211272      -2.72881226
H       -3.23143156      -0.43201474       0.37529998
19
Frame=11 idx=008083 GeodesicLength=0.9642253646200031 rxn_smarts="[C:1]([C:2]([C@@:3]([O:4][H:14])([C@@:5]([C:6]([H:16])([H:17])[H:18])([O:7][H:19])[H:15])[H:13])([H:11])[H:12])([H:8])([H:9])[H:10]>>[C:1]([C:2]([C@@:3]1([H:13])[O:4][C@@:5]1([C:6]([H:16])([H:17])[H:18])[H:15])([H:11])[H:12])([H:8])([H:9])[H:10].[O:7]([H:14])[H:19]"
C        2.30482046       0.80010001       1.07972851
C        0.90545083       0.22708716       1.25342784
C        0.39775995      -0.45166667       0.00295578
O       -0.43558193      -1.56162950       0.21238328
C       -0.80523447       0.10854722      -0.66608079
C       -1.08735325      -0.21860206      -2.09868789
O       -2.34769039      -0.22306953       0.72434412
H        3.01974973       0.01018543       0.83860566
H        2.33204641       1.55373854       0.28789683
H        2.65540234       1.28632948       1.99198980
H        0.90343797      -0.45414910       2.11010863
H        0.21985362       1.01526304       1.57883209
H        1.16241893      -0.73379524      -0.73135311
H       -1.56657216      -1.20219895       0.86246234
H       -0.98800611       1.15902653      -0.43945437
H       -0.86758484      -1.26229123      -2.32000992
H       -2.12291513      -0.00572678      -2.36854581
H       -0.45184697       0.40108857      -2.73902889
H       -3.22815497      -0.44823692       0.42042590
19
Frame=12 idx=008083 GeodesicLength=1.0523045595269143 rxn_smarts="[C:1]([C:2]([C@@:3]([O:4][H:14])([C@@:5]([C:6]([H:16])([H:17])[H:18])([O:7][H:19])[H:15])[H:13])([H:11])[H:12])([H:8])([H:9])[H:10]>>[C:1]([C:2]([C@@:3]1([H:13])[O:4][C@@:5]1([C:6]([H:16])([H:17])[H:18])[H:15])([H:11])[H:12])([H:8])([H:9])[H:10].[O:7]([H:14])[H:19]"
C        2.31934732       0.77672940       1.10390287
C        0.89465764       0.25891800       1.23933896
C        0.40317418      -0.41958847      -0.01688402
O       -0.40920843      -1.54935653       0.18567108
C       -0.82695259       0.10135419      -0.67124501
C       -1.10336235      -0.22218067      -2.10854858
O       -2.32988727      -0.24594782       0.74321587
H        3.00960828      -0.04321089       0.89346690
H        2.39972793       1.51987930       0.30602354
H        2.65961046       1.26009376       2.02150654
H        0.84101015      -0.40110313       2.11067284
H        0.22774491       1.07656479       1.52836987
H        1.16698014      -0.68335647      -0.75733363
H       -1.52535093      -1.23936440       0.86801850
H       -1.01311541       1.15412597      -0.45412523
H       -0.86693007      -1.26097383      -2.33638189
H       -2.14383250      -0.02840792      -2.37455968
H       -0.48163157       0.40946753      -2.74986937
H       -3.22158989      -0.46364281       0.46876043
19
Frame=13 idx=008083 GeodesicLength=1.1405507686239313 rxn_smarts="[C:1]([C:2]([C@@:3]([O:4][H:14])([C@@:5]([C:6]([H:16])([H:17])[H:18])([O:7][H:19])[H:15])[H:13])([H:11])[H:12])([H:8])([H:9])[H:10]>>[C:1]([C:2]([C@@:3]1([H:13])[O:4][C@@:5]1([C:6]([H:16])([H:17])[H:18])[H:15])([H:11])[H:12])([H:8])([H:9])[H:10].[O:7]([H:14])[H:19]"
C        2.33145001       0.75185301       1.12936910
C        0.88398569       0.29192919       1.22413842
C        0.40845152      -0.38623315      -0.03771864
O       -0.38155285      -1.53599376       0.15848544
C       -0.84807056       0.09379350      -0.67655109
C       -1.11963243      -0.22631923      -2.11834061
O       -2.30923372      -0.26818152       0.76305715
H        2.99372148      -0.09749264       0.94865095
H        2.46662532       1.48266281       0.32779254
H        2.66121102       1.23163966       2.05253049
H        0.77774051      -0.34464631       2.10801013
H        0.23824544       1.13838800       1.47519955
H        1.17129707      -0.63058278      -0.78421192
H       -1.48041678      -1.27619883       0.87238546
H       -1.03855614       1.14864403      -0.46906174
H       -0.86609789      -1.25974840      -2.35278205
H       -2.16491793      -0.05254413      -2.37988602
H       -0.51275533       0.41735614      -2.76104482
H       -3.21149444      -0.47832560       0.51997765
19
Frame=14 idx=008083 GeodesicLength=1.2294844963675997 rxn_smarts="[C:1]([C:2]([C@@:3]([O:4][H:14])([C@@:5]([C:6]([H:16])([H:17])[H:18])([O:7][H:19])[H:15])[H:13])([H:11])[H:12])([H:8])([H:9])[H:10]>>[C:1]([C:2]([C@@:3]1([H:13])[O:4][C@@:5]1([C:6]([H:16])([H:17])[H:18])[H:15])([H:11])[H:12])([H:8])([H:9])[H:10].[O:7]([H:14])[H:19]"
C        2.34065432       0.72569085       1.15599816
C        0.87349834       0.32577043       1.20779791
C        0.41364433      -0.35185238      -0.05956806
O       -0.35266055      -1.52158845       0.13088000
C       -0.86832977       0.08580939      -0.68191014
C       -1.13602302      -0.23103306      -2.12800385
O       -2.28549601      -0.28949959       0.78395262
H        2.97168513      -0.15238166       1.00363177
H        2.53171264       1.44241224       0.35333757
H        2.65972473       1.20119514       2.08498960
H        0.71384266      -0.28520943       2.10166428
H        0.25152655       1.20015893       1.41965847
H        1.17536567      -0.57572883      -0.81199641
H       -1.43147484      -1.31256597       0.87560685
H       -1.06391340       1.14255734      -0.48414504
H       -0.86522435      -1.25869123      -2.36912294
H       -2.18597399      -0.07787526      -2.38443905
H       -0.54492685       0.42453428      -2.77255040
H       -3.19763158      -0.49170275       0.57421865
19
Frame=15 idx=008083 GeodesicLength=1.3194368601944655 rxn_smarts="[C:1]([C:2]([C@@:3]([O:4][H:14])([C@@:5]([C:6]([H:16])([H:17])[H:18])([O:7][H:19])[H:15])[H:13])([H:11])[H:12])([H:8])([H:9])[H:10]>>[C:1]([C:2]([C@@:3]1([H:13])[O:4][C@@:5]1([C:6]([H:16])([H:17])[H:18])[H:15])([H:11])[H:12])([H:8])([H:9])[H:10].[O:7]([H:14])[H:19]"
C        2.34657066       0.69827405       1.18361355
C        0.86324929       0.36033008       1.19031971
C        0.41874135      -0.31657375      -0.08241544
O       -0.32261362      -1.50616259       0.10283966
C       -0.88761770       0.07739814      -0.68720466
C       -1.15241606      -0.23624619      -2.13743999
O       -2.25855322      -0.30973175       0.80584336
H        2.94309868      -0.20760137       1.05821934
H        2.59439771       1.39881518       0.38244992
H        2.65458532       1.16894776       2.11870182
H        0.64972873      -0.22291561       2.09141475
H        0.26778155       1.26144422       1.36187911
H        1.17912458      -0.51897755      -0.84061170
H       -1.37831984      -1.34821877       0.87780677
H       -1.08902844       1.13582875      -0.49914843
H       -0.86417729      -1.25767261      -2.38542754
H       -2.20683038      -0.10434664      -2.38809411
H       -0.57806804       0.43110773      -2.78420298
H       -3.17965327      -0.50369908       0.63145689
19
Frame=16 idx=008083 GeodesicLength=1.4104803174884906 rxn_smarts="[C:1]([C:2]([C@@:3]([O:4][H:14])([C@@:5]([C:6]([H:16])([H:17])[H:18])([O:7][H:19])[H:15])[H:13])([H:11])[H:12])([H:8])([H:9])[H:10]>>[C:1]([C:2]([C@@:3]1([H:13])[O:4][C@@:5]1([C:6]([H:16])([H:17])[H:18])[H:15])([H:11])[H:12])([H:8])([H:9])[H:10].[O:7]([H:14])[H:19]"
C        2.34893595       0.66988927       1.21179103
C        0.85332195       0.39522696       1.17196123
C        0.42367159      -0.28074575      -0.10601316
O       -0.29181883      -1.48987985       0.07450594
C       -0.90579359       0.06853366      -0.69224786
C       -1.16857036      -0.24182826      -2.14653589
O       -2.22867338      -0.32868056       0.82842985
H        2.90815682      -0.26245761       1.11174647
H        2.65369428       1.35203727       0.41462467
H        2.64563756       1.13543847       2.15306148
H        0.58622924      -0.15848963       2.07747674
H        0.28683880       1.32146961       1.30264833
H        1.18245985      -0.46092366      -0.86971120
H       -1.32111765      -1.38282566       0.87916305
H       -1.11357314       1.12844301      -0.51380036
H       -0.86300670      -1.25662296      -2.40160559
H       -2.22713512      -0.13150606      -2.39091761
H       -0.61166692       0.43706952      -2.79574847
H       -3.15759035      -0.51414776       0.69117137
