10
Frame=0 idx=006018 GeodesicLength=0.0 rxn_smarts="[C:1]([O:2][C:3]([C:4]#[N:5])([H:9])[H:10])([H:6])([H:7])[H:8]>>[C:1](=[O:2])([H:6])[H:7].[C:3](=[C:4]=[N:5][H:8])([H:9])[H:10]"
C       -0.99490100       0.93122322       0.15825228
O       -0.74408584       0.22997435      -0.87760861
C        0.75952988      -1.02062150      -0.77204505
C        1.11771444      -0.72267758       0.49655182
N        0.92337328      -0.08546803       1.48724784
H       -1.86856303       0.65725482       0.76484580
H       -0.72506138       1.99547306       0.13462541
H       -0.05298410       0.59257000       1.14610209
H        1.35868012      -0.63322697      -1.58502364
H        0.22629763      -1.94450137      -0.95294792
10
Frame=1 idx=006018 GeodesicLength=0.08421781044248458 rxn_smarts="[C:1]([O:2][C:3]([C:4]#[N:5])([H:9])[H:10])([H:6])([H:7])[H:8]>>[C:1](=[O:2])([H:6])[H:7].[C:3](=[C:4]=[N:5][H:8])([H:9])[H:10]"
C       -0.99977431       0.93072326       0.15869989
O       -0.76448423       0.21466818      -0.87258833
C        0.76052808      -1.01461282      -0.77439880
C        1.13922758      -0.71178504       0.48943370
N        0.94377951      -0.09311148       1.49106673
H       -1.90244706       0.70526475       0.74203388
H       -0.68587628       1.98292172       0.12731842
H       -0.08216157       0.56158495       1.18219229
H        1.33106133      -0.61583621      -1.60222050
H        0.26014694      -1.95981729      -0.94153727
10
Frame=2 idx=006018 GeodesicLength=0.16792049181610774 rxn_smarts="[C:1]([O:2][C:3]([C:4]#[N:5])([H:9])[H:10])([H:6])([H:7])[H:8]>>[C:1](=[O:2])([H:6])[H:7].[C:3](=[C:4]=[N:5][H:8])([H:9])[H:10]"
C       -1.00472733       0.92984485       0.15964253
O       -0.78347852       0.20154641      -0.86823405
C        0.76072619      -1.00888242      -0.77609463
C        1.15984709      -0.70085645       0.48265742
N        0.96455766      -0.09865887       1.49387458
H       -1.93369518       0.75254902       0.71744678
H       -0.64951185       1.96895767       0.12262252
H       -0.11017934       0.52980497       1.21644370
H        1.30325128      -0.60080377      -1.61799991
H        0.29320999      -1.97350142      -0.93035895
10
Frame=3 idx=006018 GeodesicLength=0.2512609417368098 rxn_smarts="[C:1]([O:2][C:3]([C:4]#[N:5])([H:9])[H:10])([H:6])([H:7])[H:8]>>[C:1](=[O:2])([H:6])[H:7].[C:3](=[C:4]=[N:5][H:8])([H:9])[H:10]"
C       -1.00993156       0.92860587       0.16105479
O       -0.80180054       0.18971504      -0.86418280
C        0.76022737      -1.00339477      -0.77723313
C        1.17936754      -0.69028408       0.47631827
N        0.98493823      -0.10343371       1.49632085
H       -1.96216530       0.79944881       0.69188994
H       -0.61592150       1.95381322       0.11937610
H       -0.13617276       0.49861082       1.24874263
H        1.27530302      -0.58723383      -1.63224772
H        0.32615549      -1.98584738      -0.92003892
10
Frame=4 idx=006018 GeodesicLength=0.33427642168081156 rxn_smarts="[C:1]([O:2][C:3]([C:4]#[N:5])([H:9])[H:10])([H:6])([H:7])[H:8]>>[C:1](=[O:2])([H:6])[H:7].[C:3](=[C:4]=[N:5][H:8])([H:9])[H:10]"
C       -1.01550669       0.92704027       0.16286659
O       -0.81971419       0.17885328      -0.86027609
C        0.75907463      -0.99811500      -0.77786565
C        1.19786590      -0.68009595       0.47035335
N        1.00484834      -0.10811267       1.49867537
H       -1.98793374       0.84605448       0.66551984
H       -0.58501239       1.93763474       0.11706860
H       -0.16003850       0.46851606       1.27938703
H        1.24721711      -0.57483973      -1.64502487
H        0.35919953      -1.99693548      -0.91070416
10
Frame=5 idx=006018 GeodesicLength=0.4170927567806825 rxn_smarts="[C:1]([O:2][C:3]([C:4]#[N:5])([H:9])[H:10])([H:6])([H:7])[H:8]>>[C:1](=[O:2])([H:6])[H:7].[C:3](=[C:4]=[N:5][H:8])([H:9])[H:10]"
C       -1.02154457       0.92519809       0.16506256
O       -0.83738489       0.16866942      -0.85644571
C        0.75729353      -0.99309935      -0.77805845
C        1.21536429      -0.67039886       0.46473448
N        1.02451196      -0.11278655       1.50102100
H       -2.01124431       0.89248918       0.63831826
H       -0.55652829       1.92061317       0.11547566
H       -0.18199122       0.43966978       1.30886385
H        1.21900076      -0.56342885      -1.65642925
H        0.39252273      -2.00692604      -0.90254241
10
Frame=6 idx=006018 GeodesicLength=0.499717969773373 rxn_smarts="[C:1]([O:2][C:3]([C:4]#[N:5])([H:9])[H:10])([H:6])([H:7])[H:8]>>[C:1](=[O:2])([H:6])[H:7].[C:3](=[C:4]=[N:5][H:8])([H:9])[H:10]"
C       -1.02810093       0.92310936       0.16761746
O       -0.85478361       0.15922843      -0.85270934
C        0.75489787      -0.98834123      -0.77782421
C        1.23208541      -0.66099382       0.45932602
N        1.04418395      -0.11745938       1.50330906
H       -2.03223862       0.93877115       0.61006189
H       -0.53034042       1.90282804       0.11467090
H       -0.20238083       0.41177932       1.33754314
H        1.19063798      -0.55311716      -1.66663321
H        0.42603919      -2.01580470      -0.89536172
10
Frame=7 idx=006018 GeodesicLength=0.5821747781891422 rxn_smarts="[C:1]([O:2][C:3]([C:4]#[N:5])([H:9])[H:10])([H:6])([H:7])[H:8]>>[C:1](=[O:2])([H:6])[H:7].[C:3](=[C:4]=[N:5][H:8])([H:9])[H:10]"
C       -1.03522878       0.92079206       0.17052622
O       -0.87199311       0.15042640      -0.84902336
C        0.75189834      -0.98385169      -0.77717124
C        1.24812982      -0.65180990       0.45405676
N        1.06405190      -0.12206797       1.50549096
H       -2.05099994       0.98504815       0.58061007
H       -0.50625835       1.88432370       0.11463620
H       -0.22149812       0.38459704       1.36572988
H        1.16209309      -0.54386150      -1.67572164
H        0.45980515      -2.02359629      -0.88913386
10
Frame=8 idx=006018 GeodesicLength=0.6644829361914426 rxn_smarts="[C:1]([O:2][C:3]([C:4]#[N:5])([H:9])[H:10])([H:6])([H:7])[H:8]>>[C:1](=[O:2])([H:6])[H:7].[C:3](=[C:4]=[N:5][H:8])([H:9])[H:10]"
C       -1.04297918       0.91827177       0.17378162
O       -0.88905239       0.14222628      -0.84538024
C        0.74830163      -0.97964642      -0.77609956
C        1.26358867      -0.64275620       0.44885883
N        1.08425589      -0.12652702       1.50751150
H       -2.06754019       1.03138300       0.54985100
H       -0.48414972       1.86515050       0.11540417
H       -0.23959540       0.35787465       1.39365068
H        1.13335222      -0.53567231      -1.68377422
H        0.49381846      -2.03030426      -0.88380379
10
Frame=9 idx=006018 GeodesicLength=0.7466798418759996 rxn_smarts="[C:1]([O:2][C:3]([C:4]#[N:5])([H:9])[H:10])([H:6])([H:7])[H:8]>>[C:1](=[O:2])([H:6])[H:7].[C:3](=[C:4]=[N:5][H:8])([H:9])[H:10]"
C       -1.05140187       0.91558870       0.17737842
O       -0.90590439       0.13470596      -0.84187717
C        0.74411904      -0.97575627      -0.77460939
C        1.27856276      -0.63371197       0.44365302
N        1.10491970      -0.13069624       1.50931067
H       -2.08185620       1.07766377       0.51769000
H       -0.46393221       1.84541602       0.11712993
H       -0.25688760       0.33137018       1.42147490
H        1.10443973      -0.52866654      -1.69089860
H        0.52794106      -2.03591360      -0.87925179
10
Frame=10 idx=006018 GeodesicLength=0.8287556200169947 rxn_smarts="[C:1]([O:2][C:3]([C:4]#[N:5])([H:9])[H:10])([H:6])([H:7])[H:8]>>[C:1](=[O:2])([H:6])[H:7].[C:3](=[C:4]=[N:5][H:8])([H:9])[H:10]"
C       -1.06054004       0.91276677       0.18127125
O       -0.92265867       0.12774513      -0.83846566
C        0.73935101      -0.97218357      -0.77268025
C        1.29304993      -0.62465017       0.43842769
N        1.12607925      -0.13452000       1.51085290
H       -2.09381036       1.12395771       0.48415027
H       -0.44548753       1.82511367       0.11972166
H       -0.27354858       0.30491809       1.44931376
H        1.07533803      -0.52274534      -1.69708336
H        0.56222695      -2.04040228      -0.87550827
10
Frame=11 idx=006018 GeodesicLength=0.9107235995485549 rxn_smarts="[C:1]([O:2][C:3]([C:4]#[N:5])([H:9])[H:10])([H:6])([H:7])[H:8]>>[C:1](=[O:2])([H:6])[H:7].[C:3](=[C:4]=[N:5][H:8])([H:9])[H:10]"
C       -1.07042924       0.90985779       0.18540695
O       -0.93932464       0.12135314      -0.83519160
C        0.73400865      -0.96893887      -0.77029615
C        1.30708616      -0.61548241       0.43314333
N        1.14776505      -0.13791488       1.51209870
H       -2.10328004       1.17015963       0.44927204
H       -0.42873610       1.80429307       0.12320485
H       -0.28974639       0.27833805       1.47723784
H        1.04606195      -0.51793245      -1.70236983
H        0.59659460      -2.04373308      -0.87250613
10
Frame=12 idx=006018 GeodesicLength=0.9926079021586991 rxn_smarts="[C:1]([O:2][C:3]([C:4]#[N:5])([H:9])[H:10])([H:6])([H:7])[H:8]>>[C:1](=[O:2])([H:6])[H:7].[C:3](=[C:4]=[N:5][H:8])([H:9])[H:10]"
C       -1.08109366       0.90691940       0.18970948
O       -0.95596591       0.11545316      -0.83206329
C        0.72810069      -0.96603431      -0.76743812
C        1.32066089      -0.60617405       0.42779815
N        1.16997456      -0.14081188       1.51303242
H       -2.11010898       1.21619663       0.41316344
H       -0.41357951       1.78298701       0.12750777
H       -0.30562985       0.25150931       1.50530572
H        1.01661374      -0.51416999      -1.70675819
H        0.63102803      -2.04587528      -0.87025739
10
Frame=13 idx=006018 GeodesicLength=1.0743702475859405 rxn_smarts="[C:1]([O:2][C:3]([C:4]#[N:5])([H:9])[H:10])([H:6])([H:7])[H:8]>>[C:1](=[O:2])([H:6])[H:7].[C:3](=[C:4]=[N:5][H:8])([H:9])[H:10]"
C       -1.09252728       0.90404078       0.19407023
O       -0.97249432       0.11019414      -0.82920624
C        0.72165055      -0.96345942      -0.76408460
C        1.33381110      -0.59659203       0.42233538
N        1.19271070      -0.14312973       1.51358619
H       -2.11419637       1.26175298       0.37600924
H       -0.39996638       1.76127438       0.13269187
H       -0.32135384       0.22425294       1.53347657
H        0.98707767      -0.51156843      -1.71030114
H        0.66528817      -2.04676560      -0.86857750
10
Frame=14 idx=006018 GeodesicLength=1.156066002242453 rxn_smarts="[C:1]([O:2][C:3]([C:4]#[N:5])([H:9])[H:10])([H:6])([H:7])[H:8]>>[C:1](=[O:2])([H:6])[H:7].[C:3](=[C:4]=[N:5][H:8])([H:9])[H:10]"
C       -1.10472310       0.90129465       0.19837918
O       -0.98899452       0.10543924      -0.82662860
C        0.71468053      -0.96123421      -0.76021774
C        1.34649065      -0.58677879       0.41679839
N        1.21595956      -0.14478717       1.51376700
H       -2.11542448       1.30673804       0.33801065
H       -0.38778512       1.73919745       0.13860945
H       -0.33703677       0.19652590       1.56179356
H        0.95746851      -0.51000638      -1.71296465
H        0.69936473      -2.04638873      -0.86754724
10
Frame=15 idx=006018 GeodesicLength=1.237691752843298 rxn_smarts="[C:1]([O:2][C:3]([C:4]#[N:5])([H:9])[H:10])([H:6])([H:7])[H:8]>>[C:1](=[O:2])([H:6])[H:7].[C:3](=[C:4]=[N:5][H:8])([H:9])[H:10]"
C       -1.11764419       0.89877497       0.20250863
O       -1.00542321       0.10124788      -0.82442627
C        0.70722567      -0.95935219      -0.75582077
C        1.35870865      -0.57667153       0.41117114
N        1.23971893      -0.14570924       1.51353624
H       -2.11375554       1.35089674       0.29941447
H       -0.37695910       1.71682615       0.14523126
H       -0.35280555       0.16821290       1.59021952
H        0.92786263      -0.50951007      -1.71477503
H        0.73307171      -2.04471558      -0.86705921
10
Frame=16 idx=006018 GeodesicLength=1.3192514416681353 rxn_smarts="[C:1]([O:2][C:3]([C:4]#[N:5])([H:9])[H:10])([H:6])([H:7])[H:8]>>[C:1](=[O:2])([H:6])[H:7].[C:3](=[C:4]=[N:5][H:8])([H:9])[H:10]"
C       -1.13124492       0.89656144       0.20633611
O       -1.02177126       0.09761334      -0.82265557
C        0.69932678      -0.95780621      -0.75087359
C        1.37046399      -0.56625863       0.40545925
N        1.26399722      -0.14582172       1.51285814
H       -2.10918594       1.39405095       0.26045143
H       -0.36740221       1.69420329       0.15248312
H       -0.36876829       0.13922917       1.61872722
H        0.89832082      -0.51004543      -1.71572660
H        0.76626381      -2.04172619      -0.86705951
