12
Frame=0 idx=004261 GeodesicLength=0.0 rxn_smarts="[O:1]([C:2]([C@@:3]([O:4][H:11])([C:5](=[O:6])[H:12])[H:10])([H:8])[H:9])[H:7]>>[O:1]([C:2]([C:3](=[O:4])[C:5]([O:6][H:11])([H:10])[H:12])([H:8])[H:9])[H:7]"
O       -1.95728345       0.69789634      -0.40547538
C       -1.25816771      -0.37962515       0.16311820
C        0.21155118      -0.25405786      -0.18033696
O        0.59031326      -0.24214093      -1.41045769
C        1.15801706       0.40963061       0.68215274
O        2.21935583       0.75581611       0.05459453
H       -1.69046853       0.74339824      -1.32946145
H       -1.62525505      -1.34063017      -0.21331957
H       -1.41657843      -0.34408763       1.24380484
H        0.78860428      -1.10833750       0.55405105
H        1.90110101       0.50083291      -0.91127232
H        1.07881055       0.56130507       1.75260196
12
Frame=1 idx=004261 GeodesicLength=0.07215609220331057 rxn_smarts="[O:1]([C:2]([C@@:3]([O:4][H:11])([C:5](=[O:6])[H:12])[H:10])([H:8])[H:9])[H:7]>>[O:1]([C:2]([C:3](=[O:4])[C:5]([O:6][H:11])([H:10])[H:12])([H:8])[H:9])[H:7]"
O       -1.95515815       0.69665455      -0.41185375
C       -1.25742335      -0.37709374       0.16424374
C        0.21171833      -0.26165162      -0.18136875
O        0.58742377      -0.22626377      -1.41314482
C        1.16560354       0.38969779       0.68908849
O        2.21694071       0.75957755       0.05612678
H       -1.68074543       0.74276293      -1.33362671
H       -1.62574958      -1.34132431      -0.20291787
H       -1.41642620      -0.33399834       1.24469861
H        0.79908817      -1.11951708       0.55758997
H        1.88838350       0.50678364      -0.92358343
H        1.06634469       0.56437240       1.75474773
12
Frame=2 idx=004261 GeodesicLength=0.14434054322267698 rxn_smarts="[O:1]([C:2]([C@@:3]([O:4][H:11])([C:5](=[O:6])[H:12])[H:10])([H:8])[H:9])[H:7]>>[O:1]([C:2]([C:3](=[O:4])[C:5]([O:6][H:11])([H:10])[H:12])([H:8])[H:9])[H:7]"
O       -1.95301074       0.69538189      -0.41814390
C       -1.25657006      -0.37453662       0.16533915
C        0.21196613      -0.26931085      -0.18251982
O        0.58453344      -0.21065441      -1.41555076
C        1.17320601       0.36978238       0.69579417
O        2.21471701       0.76277781       0.05831658
H       -1.67109154       0.74219714      -1.33766157
H       -1.62624168      -1.34191177      -0.19238893
H       -1.41603869      -0.32384850       1.24553258
H        0.80963514      -1.13082647       0.56120812
H        1.87538749       0.51342838      -0.93575883
H        1.05350750       0.56752103       1.75583321
12
Frame=3 idx=004261 GeodesicLength=0.21669462416901134 rxn_smarts="[O:1]([C:2]([C@@:3]([O:4][H:11])([C:5](=[O:6])[H:12])[H:10])([H:8])[H:9])[H:7]>>[O:1]([C:2]([C:3](=[O:4])[C:5]([O:6][H:11])([H:10])[H:12])([H:8])[H:9])[H:7]"
O       -1.95090937       0.69401921      -0.42438881
C       -1.25561671      -0.37194459       0.16639626
C        0.21226095      -0.27692339      -0.18379001
O        0.58162616      -0.19520861      -1.41766988
C        1.18070556       0.35010200       0.70226234
O        2.21266825       0.76550174       0.06116140
H       -1.66154890       0.74166154      -1.34159243
H       -1.62666734      -1.34241728      -0.18171227
H       -1.41544003      -0.31361519       1.24628264
H        0.82023366      -1.14210618       0.56493088
H        1.86220063       0.52047372      -0.94778591
H        1.04048714       0.57045703       1.75590579
12
Frame=4 idx=004261 GeodesicLength=0.28905056888253466 rxn_smarts="[O:1]([C:2]([C@@:3]([O:4][H:11])([C:5](=[O:6])[H:12])[H:10])([H:8])[H:9])[H:7]>>[O:1]([C:2]([C:3](=[O:4])[C:5]([O:6][H:11])([H:10])[H:12])([H:8])[H:9])[H:7]"
O       -1.94896337       0.69250745      -0.43072340
C       -1.25459791      -0.36927424       0.16741023
C        0.21256286      -0.28441509      -0.18519323
O        0.57866742      -0.17989157      -1.41953002
C        1.18803071       0.33077251       0.70848966
O        2.21084418       0.76770261       0.06466343
H       -1.65224850       0.74101094      -1.34556993
H       -1.62700327      -1.34283831      -0.17078690
H       -1.41466119      -0.30315053       1.24694425
H        0.83090573      -1.15325700       0.56876366
H        1.84889864       0.52799626      -0.95963696
H        1.02756470       0.57283697       1.75516919
12
Frame=5 idx=004261 GeodesicLength=0.36133311659032485 rxn_smarts="[O:1]([C:2]([C@@:3]([O:4][H:11])([C:5](=[O:6])[H:12])[H:10])([H:8])[H:9])[H:7]>>[O:1]([C:2]([C:3](=[O:4])[C:5]([O:6][H:11])([H:10])[H:12])([H:8])[H:9])[H:7]"
O       -1.94724020       0.69081524      -0.43710646
C       -1.25353606      -0.36654525       0.16835892
C        0.21285521      -0.29172352      -0.18674658
O        0.57566538      -0.16463531      -1.42115727
C        1.19510425       0.31196483       0.71446333
O        2.20923618       0.76949463       0.06874907
H       -1.64321255       0.74028977      -1.34953578
H       -1.62721905      -1.34320491      -0.15969508
H       -1.41374589      -0.29251856       1.24748984
H        0.84165441      -1.16416467       0.57271435
H        1.83558623       0.53561774      -0.97126718
H        1.01485209       0.57461001       1.75373284
12
Frame=6 idx=004261 GeodesicLength=0.43379455673594836 rxn_smarts="[O:1]([C:2]([C@@:3]([O:4][H:11])([C:5](=[O:6])[H:12])[H:10])([H:8])[H:9])[H:7]>>[O:1]([C:2]([C:3](=[O:4])[C:5]([O:6][H:11])([H:10])[H:12])([H:8])[H:9])[H:7]"
O       -1.94580976       0.68889159      -0.44363294
C       -1.25245302      -0.36372816       0.16924585
C        0.21310511      -0.29877619      -0.18844801
O        0.57257207      -0.14935551      -1.42256188
C        1.20187442       0.29375306       0.72020951
O        2.20784332       0.77096632       0.07344910
H       -1.63453788       0.73940409      -1.35359901
H       -1.62730004      -1.34350932      -0.14835277
H       -1.41271225      -0.28162774       1.24792002
H        0.85249367      -1.17474932       0.57678126
H        1.82242360       0.54324424      -0.98279380
H        1.00250075       0.57548693       1.75178266
12
Frame=7 idx=004261 GeodesicLength=0.5061597293858867 rxn_smarts="[O:1]([C:2]([C@@:3]([O:4][H:11])([C:5](=[O:6])[H:12])[H:10])([H:8])[H:9])[H:7]>>[O:1]([C:2]([C:3](=[O:4])[C:5]([O:6][H:11])([H:10])[H:12])([H:8])[H:9])[H:7]"
O       -1.94469010       0.68672034      -0.45032550
C       -1.25135564      -0.36080855       0.17006585
C        0.21331550      -0.30556511      -0.19032536
O        0.56940350      -0.13403582      -1.42378391
C        1.20834270       0.27612314       0.72571598
O        2.20669303       0.77212996       0.07869675
H       -1.62623914       0.73830855      -1.35778425
H       -1.62723962      -1.34375554      -0.13672755
H       -1.41158185      -0.27041382       1.24822102
H        0.86342527      -1.18503001       0.58090490
H        1.80936451       0.55087002      -0.99414561
H        0.99056184       0.57545683       1.74948767
12
Frame=8 idx=004261 GeodesicLength=0.57810454607065 rxn_smarts="[O:1]([C:2]([C@@:3]([O:4][H:11])([C:5](=[O:6])[H:12])[H:10])([H:8])[H:9])[H:7]>>[O:1]([C:2]([C:3](=[O:4])[C:5]([O:6][H:11])([H:10])[H:12])([H:8])[H:9])[H:7]"
O       -1.94381605       0.68430502      -0.45726406
C       -1.25023212      -0.35776895       0.17081993
C        0.21348124      -0.31215859      -0.19235377
O        0.56619073      -0.11869931      -1.42478615
C        1.21454999       0.25893784       0.73101765
O        2.20567970       0.77295273       0.08434995
H       -1.61825271       0.73695101      -1.36217390
H       -1.62704983      -1.34390189      -0.12476136
H       -1.41032968      -0.25878803       1.24837629
H        0.87442103      -1.19508986       0.58512637
H        1.79626758       0.55877956      -1.00533233
H        0.97909011       0.57448046       1.74698137
12
Frame=9 idx=004261 GeodesicLength=0.6504605920135864 rxn_smarts="[O:1]([C:2]([C@@:3]([O:4][H:11])([C:5](=[O:6])[H:12])[H:10])([H:8])[H:9])[H:7]>>[O:1]([C:2]([C:3](=[O:4])[C:5]([O:6][H:11])([H:10])[H:12])([H:8])[H:9])[H:7]"
O       -1.94335605       0.68159340      -0.46434578
C       -1.24911661      -0.35462432       0.17150342
C        0.21357968      -0.31837521      -0.19457332
O        0.56282312      -0.10319411      -1.42564260
C        1.22039817       0.24241774       0.73610992
O        2.20489543       0.77371953       0.09063928
H       -1.61076109       0.73539597      -1.36666573
H       -1.62667517      -1.34398770      -0.11252102
H       -1.40900591      -0.24686686       1.24838867
H        0.88554437      -1.20475903       0.58932963
H        1.78363841       0.56618705      -1.01656204
H        0.96803564       0.57249352       1.74433955
12
Frame=10 idx=004261 GeodesicLength=0.722889530976871 rxn_smarts="[O:1]([C:2]([C@@:3]([O:4][H:11])([C:5](=[O:6])[H:12])[H:10])([H:8])[H:9])[H:7]>>[O:1]([C:2]([C:3](=[O:4])[C:5]([O:6][H:11])([H:10])[H:12])([H:8])[H:9])[H:7]"
O       -1.94327277       0.67858993      -0.47158719
C       -1.24800310      -0.35137329       0.17211884
C        0.21360917      -0.32426137      -0.19698098
O        0.55930367      -0.08752317      -1.42634816
C        1.22592883       0.22643238       0.74100850
O        2.20426163       0.77446292       0.09746591
H       -1.60372240       0.73364671      -1.37127606
H       -1.62612639      -1.34399138      -0.09998497
H       -1.40759604      -0.23462827       1.24825433
H        0.89678079      -1.21412253       0.59349770
H        1.77147278       0.57318580      -1.02785083
H        0.95736382       0.56958227       1.74168291
12
Frame=11 idx=004261 GeodesicLength=0.7948323899717683 rxn_smarts="[O:1]([C:2]([C@@:3]([O:4][H:11])([C:5](=[O:6])[H:12])[H:10])([H:8])[H:9])[H:7]>>[O:1]([C:2]([C:3](=[O:4])[C:5]([O:6][H:11])([H:10])[H:12])([H:8])[H:9])[H:7]"
O       -1.94340351       0.67532681      -0.47909682
C       -1.24686080      -0.34799451       0.17266548
C        0.21362027      -0.32998426      -0.19953955
O        0.55579811      -0.07183106      -1.42685747
C        1.23129289       0.21072310       0.74573996
O        2.20374732       0.77489497       0.10459763
H       -1.59694716       0.73162522      -1.37611319
H       -1.62546018      -1.34386522      -0.08708061
H       -1.40607717      -0.22191705       1.24794739
H        0.90808599      -1.22338645       0.59770641
H        1.75909661       0.58054644      -1.03900424
H        0.94710763       0.56586201       1.73903502
12
Frame=12 idx=004261 GeodesicLength=0.8669966609422058 rxn_smarts="[O:1]([C:2]([C@@:3]([O:4][H:11])([C:5](=[O:6])[H:12])[H:10])([H:8])[H:9])[H:7]>>[O:1]([C:2]([C:3](=[O:4])[C:5]([O:6][H:11])([H:10])[H:12])([H:8])[H:9])[H:7]"
O       -1.94401803       0.67172175      -0.48673257
C       -1.24574533      -0.34450249       0.17315122
C        0.21353124      -0.33528720      -0.20230060
O        0.55206183      -0.05582621      -1.42723075
C        1.23632504       0.19554555       0.75030913
O        2.20335532       0.77552657       0.11235732
H       -1.59074952       0.72941074      -1.38104305
H       -1.62457487      -1.34364012      -0.07386108
H       -1.40448690      -0.20888792       1.24748795
H        0.91954471      -1.23231848       0.60176628
H        1.74759105       0.58708527      -1.05038728
H        0.93716546       0.56117254       1.73648344
12
Frame=13 idx=004261 GeodesicLength=0.9391813296188807 rxn_smarts="[O:1]([C:2]([C@@:3]([O:4][H:11])([C:5](=[O:6])[H:12])[H:10])([H:8])[H:9])[H:7]>>[O:1]([C:2]([C:3](=[O:4])[C:5]([O:6][H:11])([H:10])[H:12])([H:8])[H:9])[H:7]"
O       -1.94485214       0.66782511      -0.49459765
C       -1.24458345      -0.34088259       0.17356966
C        0.21342592      -0.34034143      -0.20521461
O        0.54828656      -0.03967445      -1.42740423
C        1.24116694       0.18063124       0.75472983
O        2.20300536       0.77604639       0.12054111
H       -1.58484211       0.72696096      -1.38615189
H       -1.62351353      -1.34326963      -0.06028520
H       -1.40278028      -0.19542711       1.24683695
H        0.93108634      -1.24113884       0.60578410
H        1.73603397       0.59356986      -1.06183714
H        0.92756643       0.55570048       1.73402906
12
Frame=14 idx=004261 GeodesicLength=1.0113056656144495 rxn_smarts="[O:1]([C:2]([C@@:3]([O:4][H:11])([C:5](=[O:6])[H:12])[H:10])([H:8])[H:9])[H:7]>>[O:1]([C:2]([C:3](=[O:4])[C:5]([O:6][H:11])([H:10])[H:12])([H:8])[H:9])[H:7]"
O       -1.94609565       0.66359171      -0.50261305
C       -1.24344022      -0.33714878       0.17392893
C        0.21324972      -0.34504208      -0.20831331
O        0.54435740      -0.02326916      -1.42743235
C        1.24577311       0.16607838       0.75901392
O        2.20277826       0.77663004       0.12925161
H       -1.57941925       0.72430868      -1.39137905
H       -1.62225235      -1.34277290      -0.04638341
H       -1.40100680      -0.18160416       1.24601915
H        0.94276103      -1.24976077       0.60966319
H        1.72505220       0.59956205      -1.07348487
H        0.91824256       0.54942698       1.73172924
12
Frame=15 idx=004261 GeodesicLength=1.0834675257144328 rxn_smarts="[O:1]([C:2]([C@@:3]([O:4][H:11])([C:5](=[O:6])[H:12])[H:10])([H:8])[H:9])[H:7]>>[O:1]([C:2]([C:3](=[O:4])[C:5]([O:6][H:11])([H:10])[H:12])([H:8])[H:9])[H:7]"
O       -1.94771239       0.65901691      -0.51075143
C       -1.24230172      -0.33331449       0.17422767
C        0.21300932      -0.34938157      -0.21158292
O        0.54026754      -0.00659531      -1.42729434
C        1.25014049       0.15186257       0.76316776
O        2.20262452       0.77729684       0.13850561
H       -1.57443546       0.72150831      -1.39668110
H       -1.62076993      -1.34214013      -0.03218879
H       -1.39916291      -0.16747204       1.24502223
H        0.95456085      -1.25819001       0.61341564
H        1.71463223       0.60498482      -1.08542617
H        0.90914746       0.54242410       1.72958584
12
Frame=16 idx=004261 GeodesicLength=1.1557185396560419 rxn_smarts="[O:1]([C:2]([C@@:3]([O:4][H:11])([C:5](=[O:6])[H:12])[H:10])([H:8])[H:9])[H:7]>>[O:1]([C:2]([C:3](=[O:4])[C:5]([O:6][H:11])([H:10])[H:12])([H:8])[H:9])[H:7]"
O       -1.94969838       0.65410228      -0.51897726
C       -1.24117234      -0.32939603       0.17446459
C        0.21270998      -0.35335572      -0.21501374
O        0.53601505       0.01035120      -1.42698394
C        1.25428039       0.13797040       0.76720549
O        2.20253015       0.77806936       0.14831382
H       -1.56987484       0.71861789      -1.40201377
H       -1.61906093      -1.34137112      -0.01774898
H       -1.39726252      -0.15308719       1.24384453
H        0.96649374      -1.26643202       0.61705279
H        1.70480855       0.60975993      -1.09775552
H        0.90023114       0.53477100       1.72761197
