16
Frame=0 idx=005465 GeodesicLength=0.0 rxn_smarts="[O:1]([C:2]([C:3]([C:4]([C:5]([O:6][H:16])([H:14])[H:15])([H:12])[H:13])([H:10])[H:11])([H:8])[H:9])[H:7]>>[C:4](=[C:5]([H:14])[H:15])([H:12])[H:13].[O:1]([C:2]([C:3]([O:6][H:16])([H:10])[H:11])([H:8])[H:9])[H:7]"
O       -1.87226280       1.04887734      -1.25916015
C       -1.77458493       0.06173146      -0.26753480
C       -0.62812804      -0.87359999      -0.46166099
C        1.02413770      -0.40440355       1.40276573
C        1.61338740       0.53645076       0.53131508
O        0.77356664       0.45006172      -0.87264409
H       -0.98589502       1.41918755      -1.34978046
H       -1.74846277       0.49519750       0.73696845
H       -2.68785203      -0.54450928      -0.33528005
H       -0.49781705      -1.21172078      -1.48429986
H       -0.53627187      -1.66762000       0.25896778
H        1.51799503      -1.35414841       1.57114176
H        0.35976916      -0.06595322       2.18848078
H        2.62733399       0.33471742       0.18723724
H        1.47186451       1.58806326       0.76608826
H        1.34322015       0.18766818      -1.61260467
16
Frame=1 idx=005465 GeodesicLength=0.06387231054161996 rxn_smarts="[O:1]([C:2]([C:3]([C:4]([C:5]([O:6][H:16])([H:14])[H:15])([H:12])[H:13])([H:10])[H:11])([H:8])[H:9])[H:7]>>[C:4](=[C:5]([H:14])[H:15])([H:12])[H:13].[O:1]([C:2]([C:3]([O:6][H:16])([H:10])[H:11])([H:8])[H:9])[H:7]"
O       -1.88392478       1.03570771      -1.26773924
C       -1.77560861       0.05754574      -0.26778175
C       -0.61818574      -0.86748623      -0.45672712
C        1.01719344      -0.40739071       1.40091327
C        1.62821993       0.52710249       0.53708021
O        0.76903837       0.47205276      -0.88112202
H       -1.00276924       1.41850351      -1.35706880
H       -1.74932662       0.50211753       0.73214936
H       -2.68449318      -0.55533524      -0.32742783
H       -0.49633275      -1.21776396      -1.47716095
H       -0.54344933      -1.67247228       0.25546750
H        1.51433931      -1.35128694       1.59231117
H        0.35044386      -0.05679709       2.17975398
H        2.63832959       0.30545898       0.19376164
H        1.50133275       1.58025773       0.77318280
H        1.33519299       0.22978602      -1.62959221
16
Frame=2 idx=005465 GeodesicLength=0.12752603318380998 rxn_smarts="[O:1]([C:2]([C:3]([C:4]([C:5]([O:6][H:16])([H:14])[H:15])([H:12])[H:13])([H:10])[H:11])([H:8])[H:9])[H:7]>>[C:4](=[C:5]([H:14])[H:15])([H:12])[H:13].[O:1]([C:2]([C:3]([O:6][H:16])([H:10])[H:11])([H:8])[H:9])[H:7]"
O       -1.89545340       1.02243857      -1.27599919
C       -1.77651324       0.05321940      -0.26800598
C       -0.60816825      -0.86132293      -0.45198727
C        1.01042472      -0.41020181       1.39917290
C        1.64305926       0.51720170       0.54268543
O        0.76422037       0.49434751      -0.88943455
H       -1.01972985       1.41771552      -1.36414132
H       -1.75028530       0.50865167       0.72733022
H       -2.68093734      -0.56620166      -0.31967559
H       -0.49455390      -1.22342362      -1.47011636
H       -0.55010269      -1.67700945       0.25141754
H        1.51008460      -1.34792583       1.61419773
H        0.34140300      -0.04702061       2.17077663
H        2.64875612       0.27545371       0.19978135
H        1.53082026       1.57177999       0.77971928
H        1.32697564       0.27229784      -1.64572082
16
Frame=3 idx=005465 GeodesicLength=0.19083088233474266 rxn_smarts="[O:1]([C:2]([C:3]([C:4]([C:5]([O:6][H:16])([H:14])[H:15])([H:12])[H:13])([H:10])[H:11])([H:8])[H:9])[H:7]>>[C:4](=[C:5]([H:14])[H:15])([H:12])[H:13].[O:1]([C:2]([C:3]([O:6][H:16])([H:10])[H:11])([H:8])[H:9])[H:7]"
O       -1.90666382       1.00919194      -1.28391999
C       -1.77721709       0.04889603      -0.26815799
C       -0.59816288      -0.85515736      -0.44741590
C        1.00390741      -0.41299000       1.39745483
C        1.65768689       0.50691337       0.54815783
O        0.75920544       0.51665049      -0.89771939
H       -1.03652716       1.41678009      -1.37106236
H       -1.75112973       0.51497581       0.72254100
H       -2.67720752      -0.57682549      -0.31190115
H       -0.49269140      -1.22881540      -1.46313517
H       -0.55637164      -1.68124066       0.24691359
H        1.50550913      -1.34413763       1.63639325
H        0.33274877      -0.03706813       2.16158896
H        2.65860120       0.24540597       0.20557094
H        1.55949594       1.56275648       0.78565441
H        1.31881647       0.31466449      -1.66096286
16
Frame=4 idx=005465 GeodesicLength=0.25384339967146585 rxn_smarts="[O:1]([C:2]([C:3]([C:4]([C:5]([O:6][H:16])([H:14])[H:15])([H:12])[H:13])([H:10])[H:11])([H:8])[H:9])[H:7]>>[C:4](=[C:5]([H:14])[H:15])([H:12])[H:13].[O:1]([C:2]([C:3]([O:6][H:16])([H:10])[H:11])([H:8])[H:9])[H:7]"
O       -1.91756051       0.99599628      -1.29151253
C       -1.77771976       0.04459894      -0.26823080
C       -0.58818016      -0.84900979      -0.44301434
C        0.99764486      -0.41578667       1.39576127
C        1.67209138       0.49626556       0.55352300
O        0.75399924       0.53890988      -0.90601050
H       -1.05314588       1.41569246      -1.37786189
H       -1.75183348       0.52112639       0.71779677
H       -2.67331955      -0.58717175      -0.30408405
H       -0.49078862      -1.23397249      -1.45623706
H       -0.56226676      -1.68518748       0.24198992
H        1.50065250      -1.33993493       1.65882641
H        0.32449658      -0.02700591       2.15221393
H        2.66791352       0.21540511       0.21123084
H        1.58726591       1.55324090       0.79097962
H        1.31075074       0.35683349      -1.67537059
16
Frame=5 idx=005465 GeodesicLength=0.3165721377073598 rxn_smarts="[O:1]([C:2]([C:3]([C:4]([C:5]([O:6][H:16])([H:14])[H:15])([H:12])[H:13])([H:10])[H:11])([H:8])[H:9])[H:7]>>[C:4](=[C:5]([H:14])[H:15])([H:12])[H:13].[O:1]([C:2]([C:3]([O:6][H:16])([H:10])[H:11])([H:8])[H:9])[H:7]"
O       -1.92813233       0.98286508      -1.29878452
C       -1.77801480       0.04035208      -0.26821560
C       -0.57823652      -0.84289394      -0.43877688
C        0.99163763      -0.41863073       1.39407680
C        1.68625446       0.48529215       0.55880111
O        0.74861109       0.56107030      -0.91433954
H       -1.06955517       1.41443664      -1.38456802
H       -1.75235771       0.52714471       0.71310009
H       -2.66928587      -0.59720102      -0.29619085
H       -0.48889380      -1.23892569      -1.44941883
H       -0.56782438      -1.68885709       0.23668916
H        1.49555632      -1.33533506       1.68139531
H        0.31665684      -0.01692619       2.14266013
H        2.67674809       0.18556517       0.21687147
H        1.61401681       1.54329290       0.79568571
H        1.30281935       0.39875069      -1.68898555
16
Frame=6 idx=005465 GeodesicLength=0.3790473124075935 rxn_smarts="[O:1]([C:2]([C:3]([C:4]([C:5]([O:6][H:16])([H:14])[H:15])([H:12])[H:13])([H:10])[H:11])([H:8])[H:9])[H:7]>>[C:4](=[C:5]([H:14])[H:15])([H:12])[H:13].[O:1]([C:2]([C:3]([O:6][H:16])([H:10])[H:11])([H:8])[H:9])[H:7]"
O       -1.93838171       0.96981288      -1.30575052
C       -1.77810034       0.03618096      -0.26810364
C       -0.56834641      -0.83682541      -0.43469994
C        0.98588853      -0.42156366       1.39238967
C        1.70016629       0.47402673       0.56401607
O        0.74304692       0.58308180      -0.92274573
H       -1.08573849       1.41300089      -1.39122072
H       -1.75266741       0.53307873       0.70845457
H       -2.66512130      -0.60687524      -0.28818020
H       -0.48705124      -1.24370828      -1.44268247
H       -0.57307894      -1.69226236       0.23105296
H        1.49026452      -1.33036686       1.70401079
H        0.30923345      -0.00692128       2.13294216
H        2.68517898       0.15598926       0.22260615
H        1.63964549       1.53297763       0.79977408
H        1.29506167       0.44037421      -1.70186323
16
Frame=7 idx=005465 GeodesicLength=0.4412632552481368 rxn_smarts="[O:1]([C:2]([C:3]([C:4]([C:5]([O:6][H:16])([H:14])[H:15])([H:12])[H:13])([H:10])[H:11])([H:8])[H:9])[H:7]>>[C:4](=[C:5]([H:14])[H:15])([H:12])[H:13].[O:1]([C:2]([C:3]([O:6][H:16])([H:10])[H:11])([H:8])[H:9])[H:7]"
O       -1.94831932       0.95683836      -1.31240891
C       -1.77797438       0.03209371      -0.26789240
C       -0.55851867      -0.83081118      -0.43078565
C        0.98038513      -0.42460575       1.39068611
C        1.71383477       0.46248796       0.56919113
O        0.73730502       0.60490853      -0.93124510
H       -1.10169150       1.41136382      -1.39782683
H       -1.75273460       0.53894531       0.70385610
H       -2.66083171      -0.61617811      -0.28003833
H       -0.48529987      -1.24833107      -1.43603393
H       -0.57805188      -1.69540467       0.22509550
H        1.48479650      -1.32502776       1.72661993
H        0.30221967       0.00296525       2.12305240
H        2.69326297       0.12672908       0.22852627
H        1.66413984       1.52233468       0.80323756
H        1.28747804       0.48169184      -1.71403384
16
Frame=8 idx=005465 GeodesicLength=0.5033201205343587 rxn_smarts="[O:1]([C:2]([C:3]([C:4]([C:5]([O:6][H:16])([H:14])[H:15])([H:12])[H:13])([H:10])[H:11])([H:8])[H:9])[H:7]>>[C:4](=[C:5]([H:14])[H:15])([H:12])[H:13].[O:1]([C:2]([C:3]([O:6][H:16])([H:10])[H:11])([H:8])[H:9])[H:7]"
O       -1.95805663       0.94384575      -1.31879505
C       -1.77768976       0.02799872      -0.26761533
C       -0.54870434      -0.82481983      -0.42703844
C        0.97507347      -0.42766179       1.38902509
C        1.72739844       0.45055098       0.57430977
O        0.73130791       0.62674295      -0.93974990
H       -1.11756679       1.40953891      -1.40436627
H       -1.75269236       0.54464787       0.69928062
H       -2.65640252      -0.62530511      -0.27183023
H       -0.48350081      -1.25273306      -1.42948564
H       -0.58266203      -1.69827426       0.21882867
H        1.47894315      -1.31923932       1.74939681
H        0.29558599       0.01300969       2.11295071
H        2.70102543       0.09731255       0.23453910
H        1.68800844       1.51128667       0.80606370
H        1.27993242       0.52309928      -1.72551361
16
Frame=9 idx=005465 GeodesicLength=0.5652379017110588 rxn_smarts="[O:1]([C:2]([C:3]([C:4]([C:5]([O:6][H:16])([H:14])[H:15])([H:12])[H:13])([H:10])[H:11])([H:8])[H:9])[H:7]>>[C:4](=[C:5]([H:14])[H:15])([H:12])[H:13].[O:1]([C:2]([C:3]([O:6][H:16])([H:10])[H:11])([H:8])[H:9])[H:7]"
O       -1.96761270       0.93084174      -1.32491708
C       -1.77725318       0.02389767      -0.26727161
C       -0.53890016      -0.81885691      -0.42345988
C        0.96993917      -0.43074246       1.38741425
C        1.74087165       0.43821212       0.57938186
O        0.72504860       0.64858050      -0.94827277
H       -1.13337694       1.40752776      -1.41084845
H       -1.75254712       0.55019316       0.69473495
H       -2.65183881      -0.63426029      -0.26355271
H       -0.48165340      -1.25692018      -1.42305492
H       -0.58690582      -1.70088683       0.21227095
H        1.47271058      -1.31299913       1.77233238
H        0.28932429       0.02320968       2.10264492
H        2.70850300       0.06772862       0.24069319
H        1.71127193       1.49985083       0.80822439
H        1.27241890       0.56462372      -1.73631945
16
Frame=10 idx=005465 GeodesicLength=0.6270193455573009 rxn_smarts="[O:1]([C:2]([C:3]([C:4]([C:5]([O:6][H:16])([H:14])[H:15])([H:12])[H:13])([H:10])[H:11])([H:8])[H:9])[H:7]>>[C:4](=[C:5]([H:14])[H:15])([H:12])[H:13].[O:1]([C:2]([C:3]([O:6][H:16])([H:10])[H:11])([H:8])[H:9])[H:7]"
O       -1.97698478       0.91783056      -1.33077936
C       -1.77665885       0.01980771      -0.26685549
C       -0.52911635      -0.81292944      -0.42004697
C        0.96498295      -0.43387140       1.38583783
C        1.75424662       0.42548970       0.58442675
O        0.71852491       0.67038401      -0.95684591
H       -1.14910763       1.40531748      -1.41729146
H       -1.75226848       0.55561284       0.69021762
H       -2.64714436      -0.64301653      -0.25517948
H       -0.47978971      -1.26091145      -1.41674045
H       -0.59081173      -1.70324682       0.20545325
H        1.46612129      -1.30632002       1.79534047
H        0.28344818       0.03350353       2.09213351
H        2.71574807       0.03805044       0.24709271
H        1.73385504       1.48805954       0.80970620
H        1.26495485       0.60623985      -1.74646921
16
Frame=11 idx=005465 GeodesicLength=0.6886894582154353 rxn_smarts="[O:1]([C:2]([C:3]([C:4]([C:5]([O:6][H:16])([H:14])[H:15])([H:12])[H:13])([H:10])[H:11])([H:8])[H:9])[H:7]>>[C:4](=[C:5]([H:14])[H:15])([H:12])[H:13].[O:1]([C:2]([C:3]([O:6][H:16])([H:10])[H:11])([H:8])[H:9])[H:7]"
O       -1.98619221       0.90481133      -1.33639646
C       -1.77591086       0.01573979      -0.26636477
C       -0.51935349      -0.80704080      -0.41679912
C        0.96020358      -0.43706496       1.38429553
C        1.76753142       0.41238640       0.58946329
O        0.71172804       0.69214132      -0.96549678
H       -1.16476947       1.40289828      -1.42372677
H       -1.75184677       0.56093422       0.68572816
H       -2.64232526      -0.65156349      -0.24668784
H       -0.47791865      -1.26471906      -1.41054870
H       -0.59439210      -1.70536094       0.19840488
H        1.45918714      -1.29921898       1.81837041
H        0.27796469       0.04385841       2.08142572
H        2.72281534       0.00829616       0.25382385
H        1.75573753       1.47593357       0.81049384
H        1.25754109       0.64796875      -1.75598524
16
Frame=12 idx=005465 GeodesicLength=0.7502228882368478 rxn_smarts="[O:1]([C:2]([C:3]([C:4]([C:5]([O:6][H:16])([H:14])[H:15])([H:12])[H:13])([H:10])[H:11])([H:8])[H:9])[H:7]>>[C:4](=[C:5]([H:14])[H:15])([H:12])[H:13].[O:1]([C:2]([C:3]([O:6][H:16])([H:10])[H:11])([H:8])[H:9])[H:7]"
O       -1.99523715       0.89177250      -1.34175855
C       -1.77500178       0.01169239      -0.26579640
C       -0.50961220      -0.80119086      -0.41371619
C        0.95558280      -0.44032422       1.38277351
C        1.78073124       0.39890444       0.59450642
O        0.70465239       0.71384128      -0.97423546
H       -1.18035672       1.40025092      -1.43015454
H       -1.75126100       0.56616382       0.68125929
H       -2.63737398      -0.65990507      -0.23806564
H       -0.47605455      -1.26834382      -1.40447872
H       -0.59766115      -1.70723132       0.19113731
H        1.45189146      -1.29168528       1.84136959
H        0.27287674       0.05426682       2.07050074
H        2.72972825      -0.02152933       0.26096030
H        1.77693505       1.46348023       0.81056308
H        1.25016058       0.68983748      -1.76486474
16
Frame=13 idx=005465 GeodesicLength=0.8116953686832711 rxn_smarts="[O:1]([C:2]([C:3]([C:4]([C:5]([O:6][H:16])([H:14])[H:15])([H:12])[H:13])([H:10])[H:11])([H:8])[H:9])[H:7]>>[C:4](=[C:5]([H:14])[H:15])([H:12])[H:13].[O:1]([C:2]([C:3]([O:6][H:16])([H:10])[H:11])([H:8])[H:9])[H:7]"
O       -2.00421580       0.87861576      -1.34690032
C       -1.77397945       0.00757330      -0.26518709
C       -0.49984226      -0.79533398      -0.41080020
C        0.95106949      -0.44353412       1.38133550
C        1.79397157       0.38488439       0.59952224
O        0.69720927       0.73568443      -0.98295504
H       -1.19601940       1.39738140      -1.43654167
H       -1.75065555       0.57119125       0.67678965
H       -2.63226378      -0.66823305      -0.22939401
H       -0.47403657      -1.27170461      -1.39855083
H       -0.60051271      -1.70884206       0.18364598
H        1.44403474      -1.28358609       1.86453923
H        0.26817354       0.06504103       2.05929669
H        2.73644944      -0.05192123       0.26838544
H        1.79794393       1.45055369       0.80984615
H        1.24267354       0.73222989      -1.77303172
16
Frame=14 idx=005465 GeodesicLength=0.8731226144193913 rxn_smarts="[O:1]([C:2]([C:3]([C:4]([C:5]([O:6][H:16])([H:14])[H:15])([H:12])[H:13])([H:10])[H:11])([H:8])[H:9])[H:7]>>[C:4](=[C:5]([H:14])[H:15])([H:12])[H:13].[O:1]([C:2]([C:3]([O:6][H:16])([H:10])[H:11])([H:8])[H:9])[H:7]"
O       -2.01313879       0.86535334      -1.35182657
C       -1.77284365       0.00338944      -0.26453467
C       -0.49003778      -0.78947267      -0.40805459
C        0.94665672      -0.44670087       1.37998881
C        1.80725296       0.37031635       0.60452346
O        0.68939094       0.75765945      -0.99168068
H       -1.21176440       1.39429480      -1.44289717
H       -1.75003012       0.57602898       0.67232939
H       -2.62699204      -0.67654335      -0.22066770
H       -0.47186249      -1.27480796      -1.39278544
H       -0.60294030      -1.71021003       0.17594475
H        1.43563045      -1.27491539       1.88785670
H        0.26386691       0.07617758       2.04781991
H        2.74299916      -0.08288244       0.27617187
H        1.81874392       1.43715158       0.80829612
H        1.23506849       0.77516120      -1.78048419
16
Frame=15 idx=005465 GeodesicLength=0.9344986930873664 rxn_smarts="[O:1]([C:2]([C:3]([C:4]([C:5]([O:6][H:16])([H:14])[H:15])([H:12])[H:13])([H:10])[H:11])([H:8])[H:9])[H:7]>>[C:4](=[C:5]([H:14])[H:15])([H:12])[H:13].[O:1]([C:2]([C:3]([O:6][H:16])([H:10])[H:11])([H:8])[H:9])[H:7]"
O       -2.02200180       0.85198469      -1.35653282
C       -1.77158662      -0.00084930      -0.26383330
C       -0.48020262      -0.78360577      -0.40547891
C        0.94233975      -0.44983169       1.37871843
C        1.82056800       0.35520096       0.60952493
O        0.68119018       0.77974328      -1.00044327
H       -1.22758194       1.39098073      -1.44922497
H       -1.74936259       0.58069467       0.66787839
H       -2.62155392      -0.68482183      -0.21186666
H       -0.46955017      -1.27766058      -1.38718409
H       -0.60496034      -1.71133821       0.16805097
H        1.42668522      -1.26566944       1.91124529
H        0.25997571       0.08764482       2.03605505
H        2.74941124      -0.11437381       0.28443021
H        1.83928440       1.42327471       0.80586907
H        1.22734552       0.81862676      -1.78720834
16
Frame=16 idx=005465 GeodesicLength=0.9958282498321821 rxn_smarts="[O:1]([C:2]([C:3]([C:4]([C:5]([O:6][H:16])([H:14])[H:15])([H:12])[H:13])([H:10])[H:11])([H:8])[H:9])[H:7]>>[C:4](=[C:5]([H:14])[H:15])([H:12])[H:13].[O:1]([C:2]([C:3]([O:6][H:16])([H:10])[H:11])([H:8])[H:9])[H:7]"
O       -2.03081025       0.83851022      -1.36101606
C       -1.77020475      -0.00513771      -0.26307931
C       -0.47033482      -0.77773032      -0.40307585
C        0.93811188      -0.45292711       1.37751676
C        1.83391688       0.33952855       0.61454073
O        0.67259545       0.80192385      -1.00927384
H       -1.24347576       1.38743664      -1.45552493
H       -1.74864350       0.58519791       0.66343954
H       -2.61594352      -0.69306505      -0.20297852
H       -0.46710549      -1.28026445      -1.38175534
H       -0.60657703      -1.71223167       0.15997728
H        1.41719872      -1.25583940       1.93465314
H        0.25651650       0.09943262       2.02398802
H        2.75571946      -0.14638751       0.29326752
H        1.85954312       1.40891300       0.80251275
H        1.21949312       0.86264043      -1.79319187
