15
Frame=0 idx=011736 GeodesicLength=0.0 rxn_smarts="[C:1]([C@:2]12[C:3]([H:11])([H:12])[O:4][C@@:5]1([H:13])[C@:6]2([O:7][H:15])[H:14])([H:8])([H:9])[H:10]>>[C:1](=[C:2]1[C:3]([H:11])([H:12])[O:4][C@:5]1([C:6][O:7][H:15])[H:13])([H:8])[H:9].[H:10][H:14]"
C       -1.13670746       1.31836161      -0.16415478
C       -0.24666496       0.34881150       0.23188967
C        0.03394247      -0.42836046       1.51093831
O        1.45573635      -0.50811708       1.17306879
C        1.23516322       0.14559278      -0.07879889
C        0.40956872      -0.67911870      -0.97345715
O        0.45507911      -1.99488964      -0.78140354
H       -2.08609724       1.42219532       0.35090465
H       -0.82747818       2.16463138      -0.75768653
H       -1.28411655       0.68229958      -1.97764925
H       -0.42045041      -1.41708717       1.60341097
H       -0.09723344       0.13856192       2.43331524
H        1.92805757       0.92575747      -0.37406923
H       -0.62509295       0.11149710      -1.98302808
H        1.20629381      -2.23013556      -0.21328011
15
Frame=1 idx=011736 GeodesicLength=0.07462113333760541 rxn_smarts="[C:1]([C@:2]12[C:3]([H:11])([H:12])[O:4][C@@:5]1([H:13])[C@:6]2([O:7][H:15])[H:14])([H:8])([H:9])[H:10]>>[C:1](=[C:2]1[C:3]([H:11])([H:12])[O:4][C@:5]1([C:6][O:7][H:15])[H:13])([H:8])[H:9].[H:10][H:14]"
C       -1.14441037       1.31324798      -0.16933276
C       -0.24739652       0.34938190       0.23235989
C        0.03001268      -0.42631738       1.51197119
O        1.45009383      -0.51530049       1.17349980
C        1.23341481       0.14463864      -0.07634017
C        0.41851125      -0.67930373      -0.98405290
O        0.47178093      -1.99602763      -0.79647153
H       -2.07496460       1.43951216       0.37457281
H       -0.82967438       2.16157515      -0.75810985
H       -1.29413919       0.68337198      -1.97634728
H       -0.43076426      -1.41195030       1.60684096
H       -0.09790683       0.14357220       2.43308577
H        1.92971330       0.92330297      -0.36755923
H       -0.62444695       0.09599466      -1.99510527
H        1.21017628      -2.22569810      -0.20901142
15
Frame=2 idx=011736 GeodesicLength=0.14923121648128013 rxn_smarts="[C:1]([C@:2]12[C:3]([H:11])([H:12])[O:4][C@@:5]1([H:13])[C@:6]2([O:7][H:15])[H:14])([H:8])([H:9])[H:10]>>[C:1](=[C:2]1[C:3]([H:11])([H:12])[O:4][C@:5]1([C:6][O:7][H:15])[H:13])([H:8])[H:9].[H:10][H:14]"
C       -1.15233951       1.30802329      -0.17422126
C       -0.24821192       0.34995744       0.23295384
C        0.02607531      -0.42429342       1.51309343
O        1.44434509      -0.52258508       1.17388326
C        1.23157402       0.14370029      -0.07382809
C        0.42761475      -0.67929207      -0.99468538
O        0.48887458      -1.99691781      -0.81172862
H       -2.06288263       1.45715425       0.39741672
H       -0.83205736       2.15818955      -0.75850118
H       -1.30485781       0.68418351      -1.97472046
H       -0.44112219      -1.40674929       1.61043441
H       -0.09844328       0.14854498       2.43295475
H        1.93123697       0.92093880      -0.36080338
H       -0.62342869       0.08043732      -2.00726492
H        1.21362267      -2.22129174      -0.20498313
15
Frame=3 idx=011736 GeodesicLength=0.2238104418564425 rxn_smarts="[C:1]([C@:2]12[C:3]([H:11])([H:12])[O:4][C@@:5]1([H:13])[C@:6]2([O:7][H:15])[H:14])([H:8])([H:9])[H:10]>>[C:1](=[C:2]1[C:3]([H:11])([H:12])[O:4][C@:5]1([C:6][O:7][H:15])[H:13])([H:8])[H:9].[H:10][H:14]"
C       -1.16044653       1.30273405      -0.17876811
C       -0.24908534       0.35055468       0.23369002
C        0.02216384      -0.42226668       1.51432577
O        1.43851046      -0.52999100       1.17420714
C        1.22965596       0.14275828      -0.07127112
C        0.43686113      -0.67907912      -1.00534319
O        0.50631498      -1.99754997      -0.82715263
H       -2.05002504       1.47487024       0.41922935
H       -0.83460540       2.15451937      -0.75882830
H       -1.31629007       0.68482521      -1.97272279
H       -0.45150756      -1.40144943       1.61423540
H       -0.09877991       0.15351342       2.43293794
H        1.93265765       0.91862405      -0.35382766
H       -0.62198918       0.06487817      -2.01951074
H        1.21656501      -2.21694125      -0.20120107
15
Frame=4 idx=011736 GeodesicLength=0.2983019366374887 rxn_smarts="[C:1]([C@:2]12[C:3]([H:11])([H:12])[O:4][C@@:5]1([H:13])[C@:6]2([O:7][H:15])[H:14])([H:8])([H:9])[H:10]>>[C:1](=[C:2]1[C:3]([H:11])([H:12])[O:4][C@:5]1([C:6][O:7][H:15])[H:13])([H:8])[H:9].[H:10][H:14]"
C       -1.16869109       1.29742822      -0.18293729
C       -0.24999456       0.35118837       0.23458033
C        0.01831245      -0.42021469       1.51568938
O        1.43261787      -0.53753778       1.17445777
C        1.22768114       0.14179192      -0.06868544
C        0.44623350      -0.67867191      -1.01601645
O        0.52406204      -1.99793272      -0.84271369
H       -2.03661363       1.49240721       0.43984784
H       -0.83729720       2.15063290      -0.75904792
H       -1.32841331       0.68541386      -1.97032970
H       -0.46190475      -1.39601958       1.61829720
H       -0.09885375       0.15851791       2.43304747
H        1.93401356       0.91631958      -0.34667278
H       -0.62009404       0.04936225      -2.03185734
H        1.21894178      -2.21268554      -0.19765939
15
Frame=5 idx=011736 GeodesicLength=0.372914895253048 rxn_smarts="[C:1]([C@:2]12[C:3]([H:11])([H:12])[O:4][C@@:5]1([H:13])[C@:6]2([O:7][H:15])[H:14])([H:8])([H:9])[H:10]>>[C:1](=[C:2]1[C:3]([H:11])([H:12])[O:4][C@:5]1([C:6][O:7][H:15])[H:13])([H:8])[H:9].[H:10][H:14]"
C       -1.17699812       1.29213562      -0.18670286
C       -0.25090955       0.35186903       0.23563602
C        0.01453241      -0.41811742       1.51718748
O        1.42665123      -0.54523900       1.17463499
C        1.22565688       0.14078753      -0.06605788
C        0.45573834      -0.67805270      -1.02670248
O        0.54209524      -1.99802922      -0.85842035
H       -2.02273689       1.50965366       0.45921138
H       -0.84010340       2.14651395      -0.75920421
H       -1.34141422       0.68589470      -1.96743914
H       -0.47230947      -1.39041845       1.62262004
H       -0.09864067       0.16357651       2.43328703
H        1.93532121       0.91398557      -0.33931315
H       -0.61756631       0.03396252      -2.04435104
H        1.22068333      -2.20852228      -0.19438583
15
Frame=6 idx=011736 GeodesicLength=0.44725003874001995 rxn_smarts="[C:1]([C@:2]12[C:3]([H:11])([H:12])[O:4][C@@:5]1([H:13])[C@:6]2([O:7][H:15])[H:14])([H:8])([H:9])[H:10]>>[C:1](=[C:2]1[C:3]([H:11])([H:12])[O:4][C@:5]1([C:6][O:7][H:15])[H:13])([H:8])[H:9].[H:10][H:14]"
C       -1.18534203       1.28690550      -0.19006167
C       -0.25182040       0.35260487       0.23684897
C        0.01085272      -0.41595617       1.51883464
O        1.42064094      -0.55311298       1.17472508
C        1.22360239       0.13972614      -0.06341492
C        0.46535947      -0.67723924      -1.03739586
O        0.56040836      -1.99786601      -0.87423494
H       -2.00866337       1.52637522       0.47726773
H       -0.84298758       2.14226853      -0.75923329
H       -1.35512339       0.68641821      -1.96410008
H       -0.48271875      -1.38461793       1.62725908
H       -0.09807982       0.16873221       2.43365317
H        1.93662221       0.91158761      -0.33180108
H       -0.61450867       0.01866517      -2.05699268
H        1.22175794      -2.20449114      -0.19135415
15
Frame=7 idx=011736 GeodesicLength=0.5217609709809092 rxn_smarts="[C:1]([C@:2]12[C:3]([H:11])([H:12])[O:4][C@@:5]1([H:13])[C@:6]2([O:7][H:15])[H:14])([H:8])([H:9])[H:10]>>[C:1](=[C:2]1[C:3]([H:11])([H:12])[O:4][C@:5]1([C:6][O:7][H:15])[H:13])([H:8])[H:9].[H:10][H:14]"
C       -1.19366977       1.28175600      -0.19301813
C       -0.25270811       0.35339922       0.23822113
C        0.00725737      -0.41373083       1.52062693
O        1.41455673      -0.56117713       1.17474082
C        1.22153041       0.13860329      -0.06073176
C        0.47513367      -0.67621117      -1.04810088
O        0.57902190      -1.99741060      -0.89017676
H       -1.99436184       1.54265517       0.49408866
H       -0.84595166       2.13784146      -0.75926319
H       -1.36987952       0.68683808      -1.96016106
H       -0.49315031      -1.37860601       1.63219493
H       -0.09719660       0.17397408       2.43414787
H        1.93793836       0.90911047      -0.32408148
H       -0.61064909       0.00354964      -2.06988418
H        1.22212846      -2.20059166      -0.18860290
15
Frame=8 idx=011736 GeodesicLength=0.5959969748385723 rxn_smarts="[C:1]([C@:2]12[C:3]([H:11])([H:12])[O:4][C@@:5]1([H:13])[C@:6]2([O:7][H:15])[H:14])([H:8])([H:9])[H:10]>>[C:1](=[C:2]1[C:3]([H:11])([H:12])[O:4][C@:5]1([C:6][O:7][H:15])[H:13])([H:8])[H:9].[H:10][H:14]"
C       -1.20196920       1.27671155      -0.19558192
C       -0.25357226       0.35425154       0.23973891
C        0.00376600      -0.41142180       1.52256986
O        1.40841564      -0.56943981       1.17466668
C        1.21944996       0.13740450      -0.05803143
C        0.48504963      -0.67499043      -1.05881477
O        0.59794437      -1.99668814      -0.90621399
H       -1.98004541       1.55833973       0.50970389
H       -0.84896758       2.13331596      -0.75923352
H       -1.38550011       0.68725861      -1.95568381
H       -0.50360308      -1.37235222       1.63746753
H       -0.09594465       0.17934408       2.43475897
H        1.93929277       0.90652997      -0.31618939
H       -0.60608423      -0.01140911      -2.08303848
H        1.22176814      -2.19685443      -0.18611853
15
Frame=9 idx=011736 GeodesicLength=0.6703348432492193 rxn_smarts="[C:1]([C@:2]12[C:3]([H:11])([H:12])[O:4][C@@:5]1([H:13])[C@:6]2([O:7][H:15])[H:14])([H:8])([H:9])[H:10]>>[C:1](=[C:2]1[C:3]([H:11])([H:12])[O:4][C@:5]1([C:6][O:7][H:15])[H:13])([H:8])[H:9].[H:10][H:14]"
C       -1.21019661       1.27177189      -0.19776036
C       -0.25439990       0.35515552       0.24140108
C        0.00037060      -0.40902495       1.52465588
O        1.40218525      -0.57790637       1.17451022
C        1.21735963       0.13612616      -0.05529263
C        0.49513063      -0.67356558      -1.06953625
O        0.61719117      -1.99567103      -0.92235393
H       -1.96568885       1.57349625       0.52418292
H       -0.85202644       2.12862799      -0.75923614
H       -1.40228417       0.68756935      -1.95053927
H       -0.51407608      -1.36584109       1.64306295
H       -0.09433088       0.18483931       2.43547958
H        1.94068472       0.90382957      -0.30808322
H       -0.60053550      -0.02613372      -2.09656473
H        1.22061644      -2.19327329      -0.18392610
15
Frame=10 idx=011736 GeodesicLength=0.744606596326924 rxn_smarts="[C:1]([C@:2]12[C:3]([H:11])([H:12])[O:4][C@@:5]1([H:13])[C@:6]2([O:7][H:15])[H:14])([H:8])([H:9])[H:10]>>[C:1](=[C:2]1[C:3]([H:11])([H:12])[O:4][C@:5]1([C:6][O:7][H:15])[H:13])([H:8])[H:9].[H:10][H:14]"
C       -1.21834816       1.26696400      -0.19957082
C       -0.25519552       0.35610891       0.24319298
C       -0.00294064      -0.40654561       1.52688645
O        1.39585977      -0.58660238       1.17427158
C        1.21527448       0.13476245      -0.05251783
C        0.50540536      -0.67193555      -1.08027075
O        0.63682513      -1.99436246      -0.93859061
H       -1.95133693       1.58817937       0.53763905
H       -0.85512554       2.12380507      -0.75933073
H       -1.42029073       0.68771398      -1.94470080
H       -0.52459815      -1.35906914       1.64899321
H       -0.09236421       0.19045970       2.43630382
H        1.94214277       0.90100357      -0.29975124
H       -0.59397632      -0.04060996      -2.11051824
H        1.21866870      -2.18987194      -0.18203609
15
Frame=11 idx=011736 GeodesicLength=0.8188340269760147 rxn_smarts="[C:1]([C@:2]12[C:3]([H:11])([H:12])[O:4][C@@:5]1([H:13])[C@:6]2([O:7][H:15])[H:14])([H:8])([H:9])[H:10]>>[C:1](=[C:2]1[C:3]([H:11])([H:12])[O:4][C@:5]1([C:6][O:7][H:15])[H:13])([H:8])[H:9].[H:10][H:14]"
C       -1.22640645       1.26229402      -0.20102578
C       -0.25595999       0.35710588       0.24510223
C       -0.00619369      -0.40399512       1.52924679
O        1.38940316      -0.59554424       1.17396001
C        1.21319605       0.13331982      -0.04968224
C        0.51591074      -0.67007659      -1.09102228
O        0.65691356      -1.99272900      -0.95494103
H       -1.93688304       1.60255929       0.55019390
H       -0.85826948       2.11878308      -0.75963894
H       -1.43973468       0.68751625      -1.93803822
H       -0.53520453      -1.35203504       1.65522526
H       -0.09006860       0.19617973       2.43722058
H        1.94367266       0.89806034      -0.29112328
H       -0.58627204      -0.05479896      -2.12499403
H        1.21589633      -2.18663947      -0.18048298
15
Frame=12 idx=011736 GeodesicLength=0.8930066781918458 rxn_smarts="[C:1]([C@:2]12[C:3]([H:11])([H:12])[O:4][C@@:5]1([H:13])[C@:6]2([O:7][H:15])[H:14])([H:8])([H:9])[H:10]>>[C:1](=[C:2]1[C:3]([H:11])([H:12])[O:4][C@:5]1([C:6][O:7][H:15])[H:13])([H:8])[H:9].[H:10][H:14]"
C       -1.23436287       1.25777043      -0.20213038
C       -0.25669599       0.35814148       0.24711970
C       -0.00940713      -0.40138058       1.53173024
O        1.38278652      -0.60475324       1.17357804
C        1.21112609       0.13179931      -0.04677005
C        0.52667794      -0.66796966      -1.10179351
O        0.67752353      -1.99074326      -0.97141330
H       -1.92225894       1.61676771       0.56194307
H       -0.86146144       2.11351257      -0.76026387
H       -1.46079838       0.68682887      -1.93043702
H       -0.54592067      -1.34473377       1.66174616
H       -0.08745976       0.20198622       2.43822243
H        1.94528292       0.89499667      -0.28215046
H       -0.57729026      -0.06864824      -2.14008109
H        1.21225844      -2.18357451      -0.17929996
15
Frame=13 idx=011736 GeodesicLength=0.9672250760190239 rxn_smarts="[C:1]([C@:2]12[C:3]([H:11])([H:12])[O:4][C@@:5]1([H:13])[C@:6]2([O:7][H:15])[H:14])([H:8])([H:9])[H:10]>>[C:1](=[C:2]1[C:3]([H:11])([H:12])[O:4][C@:5]1([C:6][O:7][H:15])[H:13])([H:8])[H:9].[H:10][H:14]"
C       -1.24221434       1.25339380      -0.20288757
C       -0.25740189       0.35920890       0.24924110
C       -0.01258604      -0.39870149       1.53433792
O        1.37599027      -0.61424800       1.17312254
C        1.20906817       0.13019367      -0.04377411
C        0.53772859      -0.66561156      -1.11257958
O        0.69867615      -1.98839291      -0.98797927
H       -1.90743152       1.63086717       0.57294013
H       -0.86472290       2.10795888      -0.76128832
H       -1.48368749       0.68555965      -1.92178696
H       -0.55675176      -1.33715409       1.66856849
H       -0.08453440       0.20787900       2.43930552
H        1.94698115       0.89179817      -0.27281071
H       -0.56681200      -0.08206382      -2.15588849
H        1.20769800      -2.18068736      -0.17852068
15
Frame=14 idx=011736 GeodesicLength=1.0413998330576721 rxn_smarts="[C:1]([C@:2]12[C:3]([H:11])([H:12])[O:4][C@@:5]1([H:13])[C@:6]2([O:7][H:15])[H:14])([H:8])([H:9])[H:10]>>[C:1](=[C:2]1[C:3]([H:11])([H:12])[O:4][C@:5]1([C:6][O:7][H:15])[H:13])([H:8])[H:9].[H:10][H:14]"
C       -1.24996166       1.24917052      -0.20329820
C       -0.25808797       0.36029946       0.25145434
C       -0.01574995      -0.39596556       1.53706270
O        1.36898355      -0.62404912       1.17259114
C        1.20701878       0.12850472      -0.04068252
C        0.54908916      -0.66298807      -1.12338196
O        0.72043295      -1.98565625      -1.00462704
H       -1.89231715       1.64499123       0.58325573
H       -0.86806972       2.10206476      -0.76280775
H       -1.50853056       0.68357889      -1.91194896
H       -0.56772474      -1.32929100       1.67568690
H       -0.08130121       0.21384552       2.44046108
H        1.94876920       0.88846495      -0.26305689
H       -0.55473152      -0.09499913      -2.17251504
H        1.20218082      -2.17797092      -0.17819352
15
Frame=15 idx=011736 GeodesicLength=1.1155885804999288 rxn_smarts="[C:1]([C@:2]12[C:3]([H:11])([H:12])[O:4][C@@:5]1([H:13])[C@:6]2([O:7][H:15])[H:14])([H:8])([H:9])[H:10]>>[C:1](=[C:2]1[C:3]([H:11])([H:12])[O:4][C@:5]1([C:6][O:7][H:15])[H:13])([H:8])[H:9].[H:10][H:14]"
C       -1.25760583       1.24509370      -0.20335891
C       -0.25874749       0.36141321       0.25375936
C       -0.01890058      -0.39316777       1.53990452
O        1.36174226      -0.63417877       1.17197527
C        1.20498079       0.12672458      -0.03748620
C        0.56078042      -0.66009095      -1.13419229
O        0.74280652      -1.98251535      -1.02132231
H       -1.87686695       1.65920950       0.59291937
H       -0.87153431       2.09577011      -0.76491959
H       -1.53556149       0.68073037      -1.90075803
H       -0.57884422      -1.32112380       1.68310863
H       -0.07774585       0.21988694       2.44168554
H        1.95065498       0.88497431      -0.25286538
H       -0.54076837      -0.10729217      -2.19008815
H        1.19561010      -2.17543391      -0.17836184
15
Frame=16 idx=011736 GeodesicLength=1.1897731408499308 rxn_smarts="[C:1]([C@:2]12[C:3]([H:11])([H:12])[O:4][C@@:5]1([H:13])[C@:6]2([O:7][H:15])[H:14])([H:8])([H:9])[H:10]>>[C:1](=[C:2]1[C:3]([H:11])([H:12])[O:4][C@:5]1([C:6][O:7][H:15])[H:13])([H:8])[H:9].[H:10][H:14]"
C       -1.26515557       1.24116949      -0.20306559
C       -0.25938542       0.36254781       0.25614760
C       -0.02206363      -0.39032188       1.54285863
O        1.35422690      -0.64467664       1.17127378
C        1.20295902       0.12485522      -0.03416300
C        0.57284272      -0.65688838      -1.14501223
O        0.76585889      -1.97893223      -1.03805253
H       -1.86092195       1.67371450       0.60198072
H       -0.87516457       2.08897759      -0.76778688
H       -1.56500900       0.67680118      -1.88799045
H       -0.59015230      -1.31264886       1.69082437
H       -0.07387890       0.22597700       2.44297650
H        1.95265056       0.88132881      -0.24216275
H       -0.52473436      -0.11883653      -2.20872941
H        1.18792760      -2.17306708      -0.17909877
