15
Frame=0 idx=010469 GeodesicLength=0.0 rxn_smarts="[C:1]([C@@:2]([O:3][H:11])([C:4]([O:5][H:14])([H:12])[H:13])[C:6]#[C:7][H:15])([H:8])([H:9])[H:10]>>[C:1]([C@@:2]1([O:3][H:11])[C:4]([H:12])([H:13])/[C:6]1=[C:7](\[O:5][H:14])[H:15])([H:8])([H:9])[H:10]"
C       -0.49702849      -1.59624619       0.68739400
C       -0.46925868      -0.43105777      -0.29161886
O       -1.31713006      -0.67001969      -1.39894374
C       -0.77721323       0.85289341       0.29454774
O        0.90145576       1.93432059       0.18873320
C        0.97189437      -0.22046471      -0.82752314
C        1.59146232       0.89449357      -0.54426940
H       -1.52196910      -1.80463850       1.00180073
H        0.11835089      -1.38704771       1.56464452
H       -0.09242827      -2.47605627       0.18856675
H       -0.72734101      -0.98639185      -2.09403093
H       -0.81205901       0.98165387       1.36866948
H       -1.30558563       1.58106131      -0.30496620
H        1.35604274       2.12202696       1.02174619
H        2.58080739       1.20547304      -0.85475041
15
Frame=1 idx=010469 GeodesicLength=0.10969875675024536 rxn_smarts="[C:1]([C@@:2]([O:3][H:11])([C:4]([O:5][H:14])([H:12])[H:13])[C:6]#[C:7][H:15])([H:8])([H:9])[H:10]>>[C:1]([C@@:2]1([O:3][H:11])[C:4]([H:12])([H:13])/[C:6]1=[C:7](\[O:5][H:14])[H:15])([H:8])([H:9])[H:10]"
C       -0.51929102      -1.61844480       0.68956532
C       -0.46388640      -0.44717983      -0.27950979
O       -1.29685430      -0.67473254      -1.39963375
C       -0.75674069       0.84236744       0.31176547
O        0.88625992       1.96996724       0.15059494
C        0.98449510      -0.22650722      -0.76600560
C        1.61182310       0.89392526      -0.54853101
H       -1.55152011      -1.81576760       0.98741248
H        0.08262803      -1.42473996       1.57979705
H       -0.11866224      -2.50043030       0.19081580
H       -0.69428742      -0.91475770      -2.11361051
H       -0.78121724       0.96541766       1.38753639
H       -1.33087113       1.55223168      -0.26817405
H        1.35409080       2.19955506       0.96511336
H        2.59403360       1.19909563      -0.88713613
15
Frame=2 idx=010469 GeodesicLength=0.21756423059610352 rxn_smarts="[C:1]([C@@:2]([O:3][H:11])([C:4]([O:5][H:14])([H:12])[H:13])[C:6]#[C:7][H:15])([H:8])([H:9])[H:10]>>[C:1]([C@@:2]1([O:3][H:11])[C:4]([H:12])([H:13])/[C:6]1=[C:7](\[O:5][H:14])[H:15])([H:8])([H:9])[H:10]"
C       -0.54069412      -1.63920786       0.69140302
C       -0.45811065      -0.46248641      -0.26745172
O       -1.27376337      -0.67948655      -1.40124080
C       -0.73722523       0.83235138       0.32863206
O        0.86935137       2.00237538       0.11231395
C        0.99622383      -0.23000825      -0.70349627
C        1.63136369       0.89241906      -0.55323904
H       -1.57983545      -1.82632027       0.97154093
H        0.04630903      -1.45984651       1.59447054
H       -0.14238246      -2.52271872       0.19330485
H       -0.66058641      -0.83971589      -2.12790720
H       -0.75125281       0.94955646       1.40579197
H       -1.35510982       1.52270307      -0.23022632
H        1.34986801       2.27059413       0.90672688
H        2.60584440       1.18979097      -0.92062285
15
Frame=3 idx=010469 GeodesicLength=0.32445215712363307 rxn_smarts="[C:1]([C@@:2]([O:3][H:11])([C:4]([O:5][H:14])([H:12])[H:13])[C:6]#[C:7][H:15])([H:8])([H:9])[H:10]>>[C:1]([C@@:2]1([O:3][H:11])[C:4]([H:12])([H:13])/[C:6]1=[C:7](\[O:5][H:14])[H:15])([H:8])([H:9])[H:10]"
C       -0.56046889      -1.65845560       0.69268369
C       -0.45216793      -0.47683479      -0.25587199
O       -1.24905447      -0.68441769      -1.40377245
C       -0.71913643       0.82321067       0.34496723
O        0.85074555       2.03184729       0.07390524
C        1.00652509      -0.23069033      -0.64167686
C        1.65046825       0.88941672      -0.55765568
H       -1.60607621      -1.83637721       0.95458453
H        0.01090776      -1.49200977       1.60822463
H       -0.16280564      -2.54300889       0.19554914
H       -0.62864476      -0.76234091      -2.13738023
H       -0.72278515       0.93455558       1.42346054
H       -1.37875710       1.49297861      -0.19171823
H        1.34346633       2.33607522       0.84696002
H        2.61778361       1.17605111      -0.95225956
15
Frame=4 idx=010469 GeodesicLength=0.4304694327458237 rxn_smarts="[C:1]([C@@:2]([O:3][H:11])([C:4]([O:5][H:14])([H:12])[H:13])[C:6]#[C:7][H:15])([H:8])([H:9])[H:10]>>[C:1]([C@@:2]1([O:3][H:11])[C:4]([H:12])([H:13])/[C:6]1=[C:7](\[O:5][H:14])[H:15])([H:8])([H:9])[H:10]"
C       -0.57815001      -1.67602442       0.69329772
C       -0.44615911      -0.49004551      -0.24505273
O       -1.22337776      -0.68947334      -1.40692762
C       -0.70260322       0.81506144       0.36041069
O        0.83063970       2.05841678       0.03566596
C        1.01487571      -0.22827645      -0.58186649
C        1.66929287       0.88470762      -0.56123784
H       -1.62956722      -1.84596346       0.93695872
H       -0.02265709      -1.52095410       1.62059226
H       -0.17967040      -2.56111496       0.19743707
H       -0.60031590      -0.68364161      -2.14208995
H       -0.69643420       0.92043756       1.44013338
H       -1.40157401       1.46330193      -0.15343248
H        1.33512471       2.39597572       0.78636992
H        2.63057593       1.15759282      -0.98025859
15
Frame=5 idx=010469 GeodesicLength=0.5356241125697209 rxn_smarts="[C:1]([C@@:2]([O:3][H:11])([C:4]([O:5][H:14])([H:12])[H:13])[C:6]#[C:7][H:15])([H:8])([H:9])[H:10]>>[C:1]([C@@:2]1([O:3][H:11])[C:4]([H:12])([H:13])/[C:6]1=[C:7](\[O:5][H:14])[H:15])([H:8])([H:9])[H:10]"
C       -0.59369089      -1.69183900       0.69329662
C       -0.44004770      -0.50203127      -0.23511431
O       -1.19688687      -0.69466762      -1.41071564
C       -0.68771127       0.80811034       0.37468199
O        0.80975873       2.08224659      -0.00100424
C        1.02134560      -0.22286304      -0.52447727
C        1.68806894       0.87854728      -0.56369263
H       -1.65031361      -1.85505300       0.91874719
H       -0.05421802      -1.54650785       1.63162463
H       -0.19300902      -2.57710569       0.19917007
H       -0.57623817      -0.60543412      -2.14227450
H       -0.67326143       0.90736270       1.45556259
H       -1.42318923       1.43410730      -0.11642372
H        1.32589227       2.44960301       0.72680473
H        2.64350066       1.13552437      -1.00618551
15
Frame=6 idx=010469 GeodesicLength=0.6400604513956798 rxn_smarts="[C:1]([C@@:2]([O:3][H:11])([C:4]([O:5][H:14])([H:12])[H:13])[C:6]#[C:7][H:15])([H:8])([H:9])[H:10]>>[C:1]([C@@:2]1([O:3][H:11])[C:4]([H:12])([H:13])/[C:6]1=[C:7](\[O:5][H:14])[H:15])([H:8])([H:9])[H:10]"
C       -0.60704659      -1.70600003       0.69264382
C       -0.43384822      -0.51276903      -0.22612596
O       -1.16991969      -0.69988105      -1.41500513
C       -0.67441486       0.80237335       0.38776489
O        0.78829997       2.10378737      -0.03604199
C        1.02591403      -0.21461422      -0.46996059
C        1.70701780       0.87102301      -0.56468189
H       -1.66826392      -1.86371477       0.90012894
H       -0.08348070      -1.56891585       1.64122572
H       -0.20301456      -2.59112808       0.20064319
H       -0.55728171      -0.52856143      -2.13846891
H       -0.65331428       0.89528292       1.46977027
H       -1.44367059       1.40551072      -0.08095636
H        1.31613668       2.49766390       0.66845395
H        2.65688664       1.10994320      -1.02938996
15
Frame=7 idx=010469 GeodesicLength=0.743892917505989 rxn_smarts="[C:1]([C@@:2]([O:3][H:11])([C:4]([O:5][H:14])([H:12])[H:13])[C:6]#[C:7][H:15])([H:8])([H:9])[H:10]>>[C:1]([C@@:2]1([O:3][H:11])[C:4]([H:12])([H:13])/[C:6]1=[C:7](\[O:5][H:14])[H:15])([H:8])([H:9])[H:10]"
C       -0.61827126      -1.71865297       0.69129682
C       -0.42757370      -0.52227062      -0.21810392
O       -1.14274396      -0.70496342      -1.41970471
C       -0.66260783       0.79783031       0.39974254
O        0.76635274       2.12349639      -0.06960130
C        1.02864517      -0.20376885      -0.41853787
C        1.72628099       0.86225128      -0.56396416
H       -1.68349444      -1.87200574       0.88121958
H       -0.11028933      -1.58852704       1.64934280
H       -0.20998990      -2.60337022       0.20171012
H       -0.54403767      -0.45367571      -2.13123073
H       -0.63633626       0.88412663       1.48286834
H       -1.46316118       1.37754153      -0.04701115
H        1.30613478       2.54098566       0.61114554
H        2.67109184       1.08100278      -1.04917191
15
Frame=8 idx=010469 GeodesicLength=0.8472192422527165 rxn_smarts="[C:1]([C@@:2]([O:3][H:11])([C:4]([O:5][H:14])([H:12])[H:13])[C:6]#[C:7][H:15])([H:8])([H:9])[H:10]>>[C:1]([C@@:2]1([O:3][H:11])[C:4]([H:12])([H:13])/[C:6]1=[C:7](\[O:5][H:14])[H:15])([H:8])([H:9])[H:10]"
C       -0.62748000      -1.72992575       0.68923759
C       -0.42120639      -0.53055427      -0.21101773
O       -1.11549287      -0.70972786      -1.42475244
C       -0.65216131       0.79443662       0.41074208
O        0.74394950       2.14174290      -0.10184774
C        1.02966669      -0.19058409      -0.37022711
C        1.74597198       0.85234695      -0.56137520
H       -1.69615619      -1.87993862       0.86207127
H       -0.13465097      -1.60568981       1.65600009
H       -0.21425595      -2.61398220       0.20225632
H       -0.53677356      -0.38127389      -2.12109647
H       -0.62200292       0.87379891       1.49500518
H       -1.48176775       1.35018831      -0.01446335
H        1.29608763       2.58021122       0.55465381
H        2.68627210       1.04895157      -1.06518630
15
Frame=9 idx=010469 GeodesicLength=0.9501024375314021 rxn_smarts="[C:1]([C@@:2]([O:3][H:11])([C:4]([O:5][H:14])([H:12])[H:13])[C:6]#[C:7][H:15])([H:8])([H:9])[H:10]>>[C:1]([C@@:2]1([O:3][H:11])[C:4]([H:12])([H:13])/[C:6]1=[C:7](\[O:5][H:14])[H:15])([H:8])([H:9])[H:10]"
C       -0.63484428      -1.73998702       0.68649916
C       -0.41471867      -0.53765809      -0.20479341
O       -1.08821111      -0.71402670      -1.43008611
C       -0.64298848       0.79216757       0.42087203
O        0.72119776       2.15889925      -0.13279530
C        1.02919322      -0.17528838      -0.32488142
C        1.76622588       0.84151325      -0.55687149
H       -1.70651182      -1.88759632       0.84270088
H       -0.15671410      -1.62075845       1.66129833
H       -0.21609853      -2.62316569       0.20227193
H       -0.53548689      -0.31173113      -2.10850848
H       -0.61013729       0.86422346       1.50629302
H       -1.49958222       1.32348281       0.01673134
H        1.28627704       2.61576342       0.49892236
H        2.70239951       1.01416201      -1.07765284
15
Frame=10 idx=010469 GeodesicLength=1.0526610388502897 rxn_smarts="[C:1]([C@@:2]([O:3][H:11])([C:4]([O:5][H:14])([H:12])[H:13])[C:6]#[C:7][H:15])([H:8])([H:9])[H:10]>>[C:1]([C@@:2]1([O:3][H:11])[C:4]([H:12])([H:13])/[C:6]1=[C:7](\[O:5][H:14])[H:15])([H:8])([H:9])[H:10]"
C       -0.64046592      -1.74894059       0.68303616
C       -0.40811530      -0.54360389      -0.19939698
O       -1.06102027      -0.71766693      -1.43566602
C       -0.63494956       0.79096374       0.43029196
O        0.69797771       2.17521419      -0.16281317
C        1.02731682      -0.15810088      -0.28248029
C        1.78703784       0.82976783      -0.55034122
H       -1.71467898      -1.89496025       0.82314563
H       -0.17647781      -1.63403980       1.66522124
H       -0.21579776      -2.63102241       0.20157734
H       -0.54033702      -0.24520222      -2.09385920
H       -0.60023323       0.85531168       1.51689033
H       -1.51672325       1.29734284       0.04691052
H        1.27672338       2.64819691       0.44336861
H        2.71974335       0.97673978      -1.08588490
15
Frame=11 idx=010469 GeodesicLength=1.1551118633545894 rxn_smarts="[C:1]([C@@:2]([O:3][H:11])([C:4]([O:5][H:14])([H:12])[H:13])[C:6]#[C:7][H:15])([H:8])([H:9])[H:10]>>[C:1]([C@@:2]1([O:3][H:11])[C:4]([H:12])([H:13])/[C:6]1=[C:7](\[O:5][H:14])[H:15])([H:8])([H:9])[H:10]"
C       -0.64444845      -1.75687640       0.67879650
C       -0.40136959      -0.54840596      -0.19479385
O       -1.03390965      -0.72043432      -1.44152366
C       -0.62790058       0.79080319       0.43920027
O        0.67412366       2.19087817      -0.19222194
C        1.02412283      -0.13924323      -0.24294787
C        1.80835362       0.81706347      -0.54164674
H       -1.72075129      -1.90197733       0.80340094
H       -0.19402750      -1.64580997       1.66779062
H       -0.21359504      -2.63766095       0.19996405
H       -0.55127333      -0.18178612      -2.07746676
H       -0.59182650       0.84702874       1.52702115
H       -1.53322746       1.27172951       0.07647872
H        1.26736977       2.67794744       0.38739307
H        2.73835952       0.93674376      -1.08944451
15
Frame=12 idx=010469 GeodesicLength=1.2568642662490312 rxn_smarts="[C:1]([C@@:2]([O:3][H:11])([C:4]([O:5][H:14])([H:12])[H:13])[C:6]#[C:7][H:15])([H:8])([H:9])[H:10]>>[C:1]([C@@:2]1([O:3][H:11])[C:4]([H:12])([H:13])/[C:6]1=[C:7](\[O:5][H:14])[H:15])([H:8])([H:9])[H:10]"
C       -0.64707071      -1.76380529       0.67360801
C       -0.39448073      -0.55184919      -0.19065674
O       -1.00721787      -0.72129126      -1.44729628
C       -0.62173559       0.79164378       0.44808693
O        0.64954600       2.20584022      -0.22117778
C        1.01987208      -0.11869596      -0.20534274
C        1.83026607       0.80368011      -0.53010109
H       -1.72512273      -1.90864804       0.78299332
H       -0.20971964      -1.65650869       1.66893888
H       -0.20980828      -2.64280754       0.19699405
H       -0.56635914      -0.12293283      -2.05968427
H       -0.58447205       0.83911775       1.53708035
H       -1.54915704       1.24656773       0.10597176
H        1.25830738       2.70527382       0.33027188
H        2.75715226       0.89441539      -1.08968626
15
Frame=13 idx=010469 GeodesicLength=1.3589453450395326 rxn_smarts="[C:1]([C@@:2]([O:3][H:11])([C:4]([O:5][H:14])([H:12])[H:13])[C:6]#[C:7][H:15])([H:8])([H:9])[H:10]>>[C:1]([C@@:2]1([O:3][H:11])[C:4]([H:12])([H:13])/[C:6]1=[C:7](\[O:5][H:14])[H:15])([H:8])([H:9])[H:10]"
C       -0.64810813      -1.76983281       0.66764028
C       -0.38754294      -0.55437981      -0.18745854
O       -0.98091008      -0.72175309      -1.45329885
C       -0.61628124       0.79326143       0.45623302
O        0.62418520       2.22036351      -0.25023859
C        1.01443420      -0.09680188      -0.17124271
C        1.85273248       0.78942760      -0.51666082
H       -1.72752267      -1.91498092       0.76270104
H       -0.22283968      -1.66580021       1.66854473
H       -0.20452518      -2.64692413       0.19319364
H       -0.58988914      -0.06591229      -2.04014038
H       -0.57765662       0.83170010       1.54626831
H       -1.56449383       1.22150620       0.13505798
H        1.24956162       2.72995894       0.27165420
H        2.77885602       0.85016735      -1.08225333
15
Frame=14 idx=010469 GeodesicLength=1.4612242802474475 rxn_smarts="[C:1]([C@@:2]([O:3][H:11])([C:4]([O:5][H:14])([H:12])[H:13])[C:6]#[C:7][H:15])([H:8])([H:9])[H:10]>>[C:1]([C@@:2]1([O:3][H:11])[C:4]([H:12])([H:13])/[C:6]1=[C:7](\[O:5][H:14])[H:15])([H:8])([H:9])[H:10]"
C       -0.64776211      -1.77502789       0.66073225
C       -0.38044638      -0.55574446      -0.18493784
O       -0.95492609      -0.72061850      -1.45953111
C       -0.61148283       0.79583789       0.46428375
O        0.59776124       2.23448171      -0.27953241
C        1.00805731      -0.07364993      -0.13978790
C        1.87568812       0.77433338      -0.50066671
H       -1.72819968      -1.92087177       0.74209131
H       -0.23385428      -1.67423100       1.66674282
H       -0.19787546      -2.64996128       0.18794774
H       -0.61969580      -0.01223248      -2.01917368
H       -0.57116204       0.82474510       1.55534878
H       -1.57920940       1.19686823       0.16445032
H        1.24087918       2.75224425       0.21083360
H        2.80222821       0.80382674      -1.06880091
15
Frame=15 idx=010469 GeodesicLength=1.5638152900996083 rxn_smarts="[C:1]([C@@:2]([O:3][H:11])([C:4]([O:5][H:14])([H:12])[H:13])[C:6]#[C:7][H:15])([H:8])([H:9])[H:10]>>[C:1]([C@@:2]1([O:3][H:11])[C:4]([H:12])([H:13])/[C:6]1=[C:7](\[O:5][H:14])[H:15])([H:8])([H:9])[H:10]"
C       -0.64618126      -1.77950728       0.65278918
C       -0.37325249      -0.55591896      -0.18305671
O       -0.92954312      -0.71747818      -1.46593210
C       -0.60723578       0.79929447       0.47237367
O        0.57009061       2.24823252      -0.30949037
C        1.00092341      -0.04928865      -0.11091846
C        1.89925772       0.75848042      -0.48175523
H       -1.72742136      -1.92636948       0.72114991
H       -0.24273076      -1.68213961       1.66341094
H       -0.19012523      -2.65195478       0.18101845
H       -0.65584010       0.03809561      -1.99664003
H       -0.56449727       0.81807859       1.56439333
H       -1.59338025       1.17249252       0.19459072
H        1.23233091       2.77218708       0.14663920
H        2.82760496       0.75579573      -1.04857251
15
Frame=16 idx=010469 GeodesicLength=1.66678633825785 rxn_smarts="[C:1]([C@@:2]([O:3][H:11])([C:4]([O:5][H:14])([H:12])[H:13])[C:6]#[C:7][H:15])([H:8])([H:9])[H:10]>>[C:1]([C@@:2]1([O:3][H:11])[C:4]([H:12])([H:13])/[C:6]1=[C:7](\[O:5][H:14])[H:15])([H:8])([H:9])[H:10]"
C       -0.64339338      -1.78324492       0.64367995
C       -0.36593707      -0.55484575      -0.18180793
O       -0.90483502      -0.71199414      -1.47251494
C       -0.60340944       0.80363613       0.48064073
O        0.54096236       2.26157766      -0.34027683
C        0.99312750      -0.02377911      -0.08457760
C        1.92332993       0.74186347      -0.45964880
H       -1.72521713      -1.93134483       0.69978144
H       -0.24943149      -1.68962833       1.65843132
H       -0.18139864      -2.65284552       0.17210883
H       -0.69829553       0.08491210      -1.97237338
H       -0.55731157       0.81168367       1.57350841
H       -1.60686087       1.14836831       0.22580197
H        1.22381594       2.78945845       0.07830074
H        2.85485441       0.70618280      -1.02105389
