18
Frame=0 idx=001811 GeodesicLength=0.0 rxn_smarts="[C:1]([C:2]([C:3]([H:11])([H:12])[H:13])([C:4]1([H:14])[C:5]([H:15])([H:16])[C:6]1([H:17])[H:18])[H:10])([H:7])([H:8])[H:9]>>[C:1]([C:2]([C:3]([H:11])([H:12])[H:13])([C:4][C:5]([C:6]([H:14])([H:17])[H:18])([H:15])[H:16])[H:10])([H:7])([H:8])[H:9]"
C       -1.57620444       0.83710025       0.67899498
C       -0.65635271      -0.05477941      -0.14506320
C       -1.29661682      -1.42799812      -0.37750824
C        0.64946378      -0.36409180       0.56288489
C        1.77989859      -0.48232470      -0.37706419
C        1.85090058       0.97521506       0.06071134
H       -1.14377487       1.83063136       0.82404179
H       -2.54375603       0.96530160       0.18776934
H       -1.74227495       0.39773253       1.66476787
H       -0.50188589       0.40781127      -1.13520295
H       -0.66327298      -2.06878862      -0.99424283
H       -1.46566709      -1.93645391       0.57393162
H       -2.25698950      -1.31512269      -0.88444219
H        1.09330289       0.98893588       0.96504431
H        2.62613164      -1.08949319      -0.07049632
H        1.55412810      -0.59423645      -1.43887371
H        1.53389149       1.69224635      -0.68882095
H        2.75907823       1.23831461       0.59356842
18
Frame=1 idx=001811 GeodesicLength=0.05593267018199475 rxn_smarts="[C:1]([C:2]([C:3]([H:11])([H:12])[H:13])([C:4]1([H:14])[C:5]([H:15])([H:16])[C:6]1([H:17])[H:18])[H:10])([H:7])([H:8])[H:9]>>[C:1]([C:2]([C:3]([H:11])([H:12])[H:13])([C:4][C:5]([C:6]([H:14])([H:17])[H:18])([H:15])[H:16])[H:10])([H:7])([H:8])[H:9]"
C       -1.58265550       0.83795838       0.67474547
C       -0.66028543      -0.05307260      -0.14746130
C       -1.29612580      -1.42952236      -0.37567985
C        0.64679614      -0.35583866       0.55644416
C        1.77969727      -0.48020685      -0.38001968
C        1.85678339       0.97528468       0.06335424
H       -1.15194616       1.83229904       0.81855375
H       -2.55016661       0.96340336       0.18271538
H       -1.74867058       0.39986048       1.66113094
H       -0.50710474       0.40739970      -1.13855117
H       -0.66251213      -2.06910933      -0.99334379
H       -1.46129672      -1.93683427       0.57709076
H       -2.25817136      -1.32085362      -0.88034573
H        1.11090121       0.97969243       0.99605892
H        2.62000059      -1.09328366      -0.06891072
H        1.55571352      -0.58916108      -1.44246525
H        1.53176508       1.69628210      -0.67919395
H        2.77727783       1.23570226       0.57587782
18
Frame=2 idx=001811 GeodesicLength=0.11186120203233385 rxn_smarts="[C:1]([C:2]([C:3]([H:11])([H:12])[H:13])([C:4]1([H:14])[C:5]([H:15])([H:16])[C:6]1([H:17])[H:18])[H:10])([H:7])([H:8])[H:9]>>[C:1]([C:2]([C:3]([H:11])([H:12])[H:13])([C:4][C:5]([C:6]([H:14])([H:17])[H:18])([H:15])[H:16])[H:10])([H:7])([H:8])[H:9]"
C       -1.58906452       0.83895204       0.67027727
C       -0.66427248      -0.05137687      -0.15001823
C       -1.29561694      -1.43109860      -0.37368085
C        0.64410505      -0.34736866       0.54986248
C        1.77945714      -0.47790955      -0.38312220
C        1.86262491       0.97542012       0.06617434
H       -1.15997713       1.83407687       0.81270470
H       -2.55655500       0.96158192       0.17748433
H       -1.75497631       0.40227363       1.65734836
H       -0.51242455       0.40682991      -1.14212647
H       -0.66172594      -2.06955174      -0.99219213
H       -1.45680751      -1.93706299       0.58052774
H       -2.25936344      -1.32676095      -0.87600070
H        1.12908874       0.96886347       1.02734507
H        2.61374167      -1.09692210      -0.06756097
H        1.55730952      -0.58370583      -1.44622218
H        1.52959666       1.70054453      -0.66906444
H        2.79486016       1.23321481       0.55826389
18
Frame=3 idx=001811 GeodesicLength=0.16780744875454448 rxn_smarts="[C:1]([C:2]([C:3]([H:11])([H:12])[H:13])([C:4]1([H:14])[C:5]([H:15])([H:16])[C:6]1([H:17])[H:18])[H:10])([H:7])([H:8])[H:9]>>[C:1]([C:2]([C:3]([H:11])([H:12])[H:13])([C:4][C:5]([C:6]([H:14])([H:17])[H:18])([H:15])[H:16])[H:10])([H:7])([H:8])[H:9]"
C       -1.59545224       0.84007994       0.66559324
C       -0.66831416      -0.04967766      -0.15272637
C       -1.29507519      -1.43271600      -0.37150330
C        0.64139073      -0.33864859       0.54315022
C        1.77917076      -0.47542858      -0.38636858
C        1.86844007       0.97562576       0.06915865
H       -1.16791385       1.83597455       0.80649365
H       -2.56294452       0.95981647       0.17208036
H       -1.76120178       0.40497323       1.65342503
H       -0.51784830       0.40611690      -1.14592010
H       -0.66089613      -2.07010210      -0.99077981
H       -1.45217902      -1.93712939       0.58424861
H       -2.26054892      -1.33284462      -0.87140007
H        1.14785791       0.95637121       1.05883453
H        2.60734023      -1.10041360      -0.06645214
H        1.55890456      -0.57787401      -1.45013748
H        1.52743679       1.70502236      -0.65846286
H        2.81183305       1.23085413       0.54076643
18
Frame=4 idx=001811 GeodesicLength=0.22376922566854882 rxn_smarts="[C:1]([C:2]([C:3]([H:11])([H:12])[H:13])([C:4]1([H:14])[C:5]([H:15])([H:16])[C:6]1([H:17])[H:18])[H:10])([H:7])([H:8])[H:9]>>[C:1]([C:2]([C:3]([H:11])([H:12])[H:13])([C:4][C:5]([C:6]([H:14])([H:17])[H:18])([H:15])[H:16])[H:10])([H:7])([H:8])[H:9]"
C       -1.60184086       0.84134096       0.66069544
C       -0.67241033      -0.04795962      -0.15557707
C       -1.29448365      -1.43436264      -0.36913764
C        0.63865355      -0.32964163       0.53631882
C        1.77882996      -0.47275798      -0.38975397
C        1.87424508       0.97590459       0.07229869
H       -1.17580598       1.83800309       0.79991713
H       -2.56936000       0.95808342       0.16650707
H       -1.76735726       0.40796189       1.64936534
H       -0.52337920       0.40527600      -1.14992237
H       -0.66000232      -2.07074561      -0.98909717
H       -1.44738801      -1.93702059       0.58826091
H       -2.26170890      -1.33910445      -0.86653469
H        1.16719891       0.94212659       1.09044727
H        2.60077859      -1.10376513      -0.06559112
H        1.56048682      -0.57166340      -1.45420262
H        1.52533868       1.70970355      -0.64741956
H        2.82820493       1.22862095       0.52342555
18
Frame=5 idx=001811 GeodesicLength=0.27971516819995845 rxn_smarts="[C:1]([C:2]([C:3]([H:11])([H:12])[H:13])([C:4]1([H:14])[C:5]([H:15])([H:16])[C:6]1([H:17])[H:18])[H:10])([H:7])([H:8])[H:9]>>[C:1]([C:2]([C:3]([H:11])([H:12])[H:13])([C:4][C:5]([C:6]([H:14])([H:17])[H:18])([H:15])[H:16])[H:10])([H:7])([H:8])[H:9]"
C       -1.60825194       0.84273632       0.65558487
C       -0.67656069      -0.04620735      -0.15856213
C       -1.29382354      -1.43602740      -0.36657045
C        0.63589459      -0.32031003       0.52937959
C        1.77842701      -0.46988826      -0.39327660
C        1.88005174       0.97626211       0.07558947
H       -1.18370227       1.84017678       0.79296786
H       -2.57582575       0.95636097       0.16076638
H       -1.77345187       0.41124627       1.64517400
H       -0.52902152       0.40432087      -1.15412506
H       -0.65902190      -2.07146873      -0.98712975
H       -1.44240795      -1.93672186       0.59257760
H       -2.26282290      -1.34554294      -0.86139122
H        1.18709268       0.92601898       1.12208787
H        2.59403724      -1.10698112      -0.06499073
H        1.56204512      -0.56506553      -1.45841232
H        1.52335955       1.71457804      -0.63596760
H        2.84398238       1.22651290       0.50629823
18
Frame=6 idx=001811 GeodesicLength=0.33568608110794224 rxn_smarts="[C:1]([C:2]([C:3]([H:11])([H:12])[H:13])([C:4]1([H:14])[C:5]([H:15])([H:16])[C:6]1([H:17])[H:18])[H:10])([H:7])([H:8])[H:9]>>[C:1]([C:2]([C:3]([H:11])([H:12])[H:13])([C:4][C:5]([C:6]([H:14])([H:17])[H:18])([H:15])[H:16])[H:10])([H:7])([H:8])[H:9]"
C       -1.61471194       0.84426377       0.65026278
C       -0.68076387      -0.04440376      -0.16166930
C       -1.29307488      -1.43769664      -0.36378990
C        0.63311611      -0.31061544       0.52234566
C        1.77795267      -0.46681367      -0.39693356
C        1.88588363       0.97669911       0.07901937
H       -1.19166263       1.84250713       0.78563699
H       -2.58236992       0.95461964       0.15486007
H       -1.77949974       0.41482965       1.64085527
H       -0.53477728       0.40326828      -1.15851486
H       -0.65793071      -2.07225465      -0.98486472
H       -1.43721333      -1.93621809       0.59720784
H       -2.26386757      -1.35216051      -0.85595946
H        1.20751460       0.90796791       1.15367262
H        2.58709534      -1.11007260      -0.06466000
H        1.56356536      -0.55807755      -1.46275993
H        1.52155037       1.71963941      -0.62413224
H        2.85919382       1.22451800       0.48942337
18
Frame=7 idx=001811 GeodesicLength=0.39164651723512445 rxn_smarts="[C:1]([C:2]([C:3]([H:11])([H:12])[H:13])([C:4]1([H:14])[C:5]([H:15])([H:16])[C:6]1([H:17])[H:18])[H:10])([H:7])([H:8])[H:9]>>[C:1]([C:2]([C:3]([H:11])([H:12])[H:13])([C:4][C:5]([C:6]([H:14])([H:17])[H:18])([H:15])[H:16])[H:10])([H:7])([H:8])[H:9]"
C       -1.62124681       0.84591932       0.64473199
C       -0.68501829      -0.04253370      -0.16488507
C       -1.29221760      -1.43935763      -0.36078282
C        0.63032071      -0.30052481       0.51523060
C        1.77739783      -0.46352833      -0.40072519
C        1.89176017       0.97721362       0.08259077
H       -1.19974781       1.84500562       0.77791413
H       -2.58902084       0.95282738       0.14879201
H       -1.78551294       0.41871524       1.63641583
H       -0.54064844       0.40213368      -1.16307663
H       -0.65670489      -2.07308667      -0.98228861
H       -1.43177878      -1.93549596       0.60216255
H       -2.26481952      -1.35895813      -0.85022775
H        1.22842708       0.88792024       1.18508723
H        2.57993120      -1.11305423      -0.06461032
H        1.56503566      -0.55068836      -1.46724297
H        1.51997257       1.72488005      -0.61193472
H        2.87387069       1.22261266       0.47284898
18
Frame=8 idx=001811 GeodesicLength=0.44759967305301857 rxn_smarts="[C:1]([C:2]([C:3]([H:11])([H:12])[H:13])([C:4]1([H:14])[C:5]([H:15])([H:16])[C:6]1([H:17])[H:18])[H:10])([H:7])([H:8])[H:9]>>[C:1]([C:2]([C:3]([H:11])([H:12])[H:13])([C:4][C:5]([C:6]([H:14])([H:17])[H:18])([H:15])[H:16])[H:10])([H:7])([H:8])[H:9]"
C       -1.62788245       0.84770100       0.63899197
C       -0.68932140      -0.04058116      -0.16819559
C       -1.29122953      -1.44099659      -0.35753259
C        0.62751150      -0.29000082       0.50804786
C        1.77675314      -0.46002218      -0.40465006
C        1.89770262       0.97780574       0.08630091
H       -1.20801697       1.84768361       0.76978476
H       -2.59580435       0.95095403       0.14256143
H       -1.79150707       0.42290939       1.63185839
H       -0.54663659       0.40093012      -1.16779644
H       -0.65531762      -2.07394950      -0.97938226
H       -1.42607674      -1.93453572       0.60745651
H       -2.26565220      -1.36593796      -0.84418127
H        1.24978916       0.86578585       1.21622754
H        2.57251957      -1.11593700      -0.06485834
H        1.56644243      -0.54288408      -1.47185752
H        1.51868127       1.73029694      -0.59939633
H        2.88804522       1.22077835       0.45662101
18
Frame=9 idx=001811 GeodesicLength=0.5030717286457713 rxn_smarts="[C:1]([C:2]([C:3]([H:11])([H:12])[H:13])([C:4]1([H:14])[C:5]([H:15])([H:16])[C:6]1([H:17])[H:18])[H:10])([H:7])([H:8])[H:9]>>[C:1]([C:2]([C:3]([H:11])([H:12])[H:13])([C:4][C:5]([C:6]([H:14])([H:17])[H:18])([H:15])[H:16])[H:10])([H:7])([H:8])[H:9]"
C       -1.63463277       0.84958141       0.63307392
C       -0.69366765      -0.03854667      -0.17157524
C       -1.29010244      -1.44260469      -0.35404678
C        0.62468840      -0.27907210       0.50080911
C        1.77601233      -0.45630977      -0.40870858
C        1.90372374       0.97843287       0.09020284
H       -1.21653231       1.85053172       0.76125049
H       -2.60274592       0.94894278       0.13622313
H       -1.79745766       0.42739301       1.62722084
H       -0.55273615       0.39967096      -1.17263919
H       -0.65375891      -2.07482555      -0.97615985
H       -1.42011318      -1.93334680       0.61306693
H       -2.26634910      -1.37308354      -0.83783657
H        1.27152878       0.84187990       1.24680792
H        2.56483783      -1.11876737      -0.06541045
H        1.56778350      -0.53464557      -1.47660313
H        1.51777971       1.73583751      -0.58652718
H        2.90174181       1.21893188       0.44085180
18
Frame=10 idx=001811 GeodesicLength=0.5585457452105914 rxn_smarts="[C:1]([C:2]([C:3]([H:11])([H:12])[H:13])([C:4]1([H:14])[C:5]([H:15])([H:16])[C:6]1([H:17])[H:18])[H:10])([H:7])([H:8])[H:9]>>[C:1]([C:2]([C:3]([H:11])([H:12])[H:13])([C:4][C:5]([C:6]([H:14])([H:17])[H:18])([H:15])[H:16])[H:10])([H:7])([H:8])[H:9]"
C       -1.64152811       0.85158500       0.62694364
C       -0.69805424      -0.03640425      -0.17502184
C       -1.28880182      -1.44416948      -0.35028117
C        0.62186026      -0.26764653       0.49352433
C        1.77516408      -0.45235511      -0.41290585
C        1.90985291       0.97913176       0.09424675
H       -1.22533635       1.85358085       0.75227533
H       -2.60986321       0.94679483       0.12971713
H       -1.80341565       0.43220353       1.62247040
H       -0.55895465       0.39836001      -1.17761379
H       -0.65198866      -2.07570814      -0.97256609
H       -1.41382778      -1.93188654       0.61905227
H       -2.26687705      -1.38041915      -0.83114168
H        1.29359348       0.81575204       1.27690075
H        2.55686027      -1.12151956      -0.06630621
H        1.56903854      -0.52595212      -1.48147989
H        1.51726919       1.74155145      -0.57334092
H        2.91500880       1.21710141       0.42552684
18
Frame=11 idx=001811 GeodesicLength=0.6140705267181649 rxn_smarts="[C:1]([C:2]([C:3]([H:11])([H:12])[H:13])([C:4]1([H:14])[C:5]([H:15])([H:16])[C:6]1([H:17])[H:18])[H:10])([H:7])([H:8])[H:9]>>[C:1]([C:2]([C:3]([H:11])([H:12])[H:13])([C:4][C:5]([C:6]([H:14])([H:17])[H:18])([H:15])[H:16])[H:10])([H:7])([H:8])[H:9]"
C       -1.64858730       0.85370888       0.62059832
C       -0.70247502      -0.03414352      -0.17852096
C       -1.28730683      -1.44568017      -0.34621557
C        0.61903276      -0.25569963       0.48620182
C        1.77420060      -0.44814786      -0.41724769
C        1.91611020       0.97989736       0.09843737
H       -1.23447633       1.85683866       0.74283830
H       -2.61717377       0.94448206       0.12304065
H       -1.80939264       0.43735060       1.61760779
H       -0.56529177       0.39700169      -1.18270660
H       -0.64998365      -2.07658550      -0.96857889
H       -1.40719567      -1.93013787       0.62543134
H       -2.26721226      -1.38794781      -0.82407621
H        1.31589994       0.78734981       1.30640996
H        2.54856359      -1.12420399      -0.06757081
H        1.57019869      -0.51678079      -1.48649204
H        1.51719916       1.74744141      -0.55984496
H        2.92789029       1.21525666       0.41068818
18
Frame=12 idx=001811 GeodesicLength=0.669624167170814 rxn_smarts="[C:1]([C:2]([C:3]([H:11])([H:12])[H:13])([C:4]1([H:14])[C:5]([H:15])([H:16])[C:6]1([H:17])[H:18])[H:10])([H:7])([H:8])[H:9]>>[C:1]([C:2]([C:3]([H:11])([H:12])[H:13])([C:4][C:5]([C:6]([H:14])([H:17])[H:18])([H:15])[H:16])[H:10])([H:7])([H:8])[H:9]"
C       -1.65582700       0.85595137       0.61403552
C       -0.70692292      -0.03175550      -0.18205706
C       -1.28559552      -1.44712694      -0.34182708
C        0.61621206      -0.24320676       0.47885049
C        1.77311500      -0.44367266      -0.42173906
C        1.92251386       0.98072250       0.10278353
H       -1.24399675       1.86031451       0.73291602
H       -2.62469287       0.94197629       0.11619095
H       -1.81539808       0.44284714       1.61263536
H       -0.57174716       0.39559742      -1.18790409
H       -0.64771829      -2.07744865      -0.96417115
H       -1.40019025      -1.92808029       0.63222754
H       -2.26732810      -1.39567314      -0.81661654
H        1.33835037       0.75661264       1.33520322
H        2.53992311      -1.12682825      -0.06923927
H        1.57125550      -0.50709980      -1.49164193
H        1.51762353       1.75350726      -0.54604278
H        2.94042351       1.21336285       0.39639635
18
Frame=13 idx=001811 GeodesicLength=0.7252303005983511 rxn_smarts="[C:1]([C:2]([C:3]([H:11])([H:12])[H:13])([C:4]1([H:14])[C:5]([H:15])([H:16])[C:6]1([H:17])[H:18])[H:10])([H:7])([H:8])[H:9]>>[C:1]([C:2]([C:3]([H:11])([H:12])[H:13])([C:4][C:5]([C:6]([H:14])([H:17])[H:18])([H:15])[H:16])[H:10])([H:7])([H:8])[H:9]"
C       -1.66326021       0.85830994       0.60725190
C       -0.71138974      -0.02923354      -0.18561557
C       -1.28364779      -1.44850030      -0.33709249
C        0.61340591      -0.23014963       0.47147590
C        1.77190037      -0.43891705      -0.42639117
C        1.92908207       0.98159918       0.10729523
H       -1.25393481       1.86401341       0.72248454
H       -2.63243148       0.93925166       0.10916499
H       -1.82144085       0.44870559       1.60755266
H       -0.57831994       0.39414560      -1.19319356
H       -0.64517052      -2.07828907      -0.95931647
H       -1.39278588      -1.92569505       0.63946495
H       -2.26720140      -1.40359918      -0.80873616
H        1.36083200       0.72349866       1.36316773
H        2.53091832      -1.12940125      -0.07134342
H        1.57220237      -0.49687740      -1.49693950
H        1.51859118       1.75975360      -0.53193381
H        2.95265041       1.21138483       0.38270424
18
Frame=14 idx=001811 GeodesicLength=0.7809058295571252 rxn_smarts="[C:1]([C:2]([C:3]([H:11])([H:12])[H:13])([C:4]1([H:14])[C:5]([H:15])([H:16])[C:6]1([H:17])[H:18])[H:10])([H:7])([H:8])[H:9]>>[C:1]([C:2]([C:3]([H:11])([H:12])[H:13])([C:4][C:5]([C:6]([H:14])([H:17])[H:18])([H:15])[H:16])[H:10])([H:7])([H:8])[H:9]"
C       -1.67089853       0.86078259       0.60024382
C       -0.71586591      -0.02657095      -0.18917997
C       -1.28144259      -1.44979139      -0.33198614
C        0.61062232      -0.21650893       0.46408488
C        1.77055207      -0.43386358      -0.43121050
C        1.93583333       0.98252053       0.11198114
H       -1.26432496       1.86793966       0.71152012
H       -2.64039732       0.93628377       0.10195775
H       -1.82753082       0.45493942       1.60235929
H       -0.58500685       0.39264201      -1.19856100
H       -0.64231626      -2.07909963      -0.95398441
H       -1.38496006      -1.92296050       0.64716854
H       -2.26680628      -1.41172841      -0.80040861
H        1.38321619       0.68795013       1.39017929
H        2.52153011      -1.13192618      -0.07392063
H        1.57303362      -0.48607952      -1.50238744
H        1.52014648       1.76618278      -0.51751444
H        2.96461545       1.20928820       0.36965829
18
Frame=15 idx=001811 GeodesicLength=0.8366522914727401 rxn_smarts="[C:1]([C:2]([C:3]([H:11])([H:12])[H:13])([C:4]1([H:14])[C:5]([H:15])([H:16])[C:6]1([H:17])[H:18])[H:10])([H:7])([H:8])[H:9]>>[C:1]([C:2]([C:3]([H:11])([H:12])[H:13])([C:4][C:5]([C:6]([H:14])([H:17])[H:18])([H:15])[H:16])[H:10])([H:7])([H:8])[H:9]"
C       -1.67874924       0.86336559       0.59300896
C       -0.72034088      -0.02376464      -0.19273389
C       -1.27896103      -1.45099221      -0.32648330
C        0.60787053      -0.20227401       0.45668217
C        1.76906631      -0.42849747      -0.43620781
C        1.94278361       0.98347535       0.11685416
H       -1.27519414       1.87209333       0.70000023
H       -2.64859354       0.93304936       0.09456702
H       -1.83367501       0.46156050       1.59705489
H       -0.59180385       0.39107922      -1.20399200
H       -0.63913394      -2.07987394      -0.94814539
H       -1.37669220      -1.91985757       0.65536322
H       -2.26611935      -1.42006227      -0.79160590
H        1.40535964       0.64994346       1.41611024
H        2.51174083      -1.13440863      -0.07700937
H        1.57374572      -0.47466972      -1.50799440
H        1.52233525       1.77279760      -0.50277920
H        2.97636129       1.20703604       0.35731037
18
Frame=16 idx=001811 GeodesicLength=0.8924540324338348 rxn_smarts="[C:1]([C:2]([C:3]([H:11])([H:12])[H:13])([C:4]1([H:14])[C:5]([H:15])([H:16])[C:6]1([H:17])[H:18])[H:10])([H:7])([H:8])[H:9]>>[C:1]([C:2]([C:3]([H:11])([H:12])[H:13])([C:4][C:5]([C:6]([H:14])([H:17])[H:18])([H:15])[H:16])[H:10])([H:7])([H:8])[H:9]"
C       -1.68681686       0.86605558       0.58554460
C       -0.72480296      -0.02081294      -0.19626063
C       -1.27618397      -1.45209606      -0.32055723
C        0.60516037      -0.18743592       0.44927171
C        1.76744055      -0.42280140      -0.44139451
C        1.94994901       0.98445000       0.12192948
H       -1.28656410       1.87647333       0.68790171
H       -2.65702003       0.92952636       0.08698988
H       -1.83987933       0.46858232       1.59163868
H       -0.59870589       0.38944664      -1.20947238
H       -0.63560150      -2.08060853      -0.94176661
H       -1.36796233      -1.91636608       0.66407598
H       -2.26511670      -1.42860284      -0.78229863
H        1.42710339       0.60945963       1.44082195
H        2.50153270      -1.13685262      -0.08065329
H        1.57433674      -0.46260596      -1.51376834
H        1.52519980       1.77959919      -0.48771377
H        2.98793110       1.20458927       0.34571139
