15
Frame=0 idx=001739 GeodesicLength=0.0 rxn_smarts="[C:1]([O:2][C:3]([C@@:4]1([H:12])[C:5]([H:13])([H:14])[N:6]1[H:15])([H:10])[H:11])([H:7])([H:8])[H:9]>>[C:1]([O:2][H:12])([H:7])([H:8])[H:9].[C:3](=[C:4]1[C:5]([H:13])([H:14])[N:6]1[H:15])([H:10])[H:11]"
C        2.28547147      -0.23237383      -0.76642652
O        1.20062577      -1.00438856      -0.29886818
C        0.11536394      -0.22711866       0.98773144
C       -0.91262600       0.01461428       0.05855447
C       -2.37004550       0.02088827       0.06863926
N       -1.60626085       1.22760463      -0.32583858
H        2.64645132      -0.64530760      -1.71059398
H        3.10318808      -0.26457813      -0.04373531
H        1.99045777       0.81264634      -0.93189770
H        0.78320536       0.56617851       1.31450007
H        0.08144342      -1.09893812       1.63024809
H        0.12947744      -0.66230145      -0.70668250
H       -2.89433945       0.05216647       1.01950564
H       -2.92241815      -0.45340001      -0.73499651
H       -1.62999466       1.89430782       0.43986037
15
Frame=1 idx=001739 GeodesicLength=0.09649036794916728 rxn_smarts="[C:1]([O:2][C:3]([C@@:4]1([H:12])[C:5]([H:13])([H:14])[N:6]1[H:15])([H:10])[H:11])([H:7])([H:8])[H:9]>>[C:1]([O:2][H:12])([H:7])([H:8])[H:9].[C:3](=[C:4]1[C:5]([H:13])([H:14])[N:6]1[H:15])([H:10])[H:11]"
C        2.28577014      -0.20743121      -0.77203736
O        1.20364249      -0.99584021      -0.33301845
C        0.11174754      -0.26652845       0.99111558
C       -0.92235430      -0.00987408       0.07398273
C       -2.37753746       0.03837628       0.08670029
N       -1.58030186       1.21207440      -0.33805397
H        2.72482180      -0.66705278      -1.66062036
H        3.06684793      -0.15604509      -0.01067167
H        1.97061935       0.81367623      -1.02372321
H        0.75998528       0.52326757       1.36216497
H        0.08274174      -1.15889443       1.60618343
H        0.09281963      -0.69803822      -0.72251920
H       -2.89467324       0.10867824       1.03932438
H       -2.94372006      -0.43741408      -0.70640048
H       -1.58040897       1.90104584       0.40757333
15
Frame=2 idx=001739 GeodesicLength=0.19317353965203266 rxn_smarts="[C:1]([O:2][C:3]([C@@:4]1([H:12])[C:5]([H:13])([H:14])[N:6]1[H:15])([H:10])[H:11])([H:7])([H:8])[H:9]>>[C:1]([O:2][H:12])([H:7])([H:8])[H:9].[C:3](=[C:4]1[C:5]([H:13])([H:14])[N:6]1[H:15])([H:10])[H:11]"
C        2.28526936      -0.18208263      -0.77790714
O        1.20445204      -0.98468831      -0.36914821
C        0.10845252      -0.30537348       0.99348351
C       -0.93201061      -0.03371614       0.08894155
C       -2.38382254       0.05607301       0.10542692
N       -1.55520676       1.19552473      -0.34952979
H        2.80316868      -0.68434849      -1.59915784
H        3.02083544      -0.04583310       0.01781670
H        1.95926731       0.80849956      -1.11951917
H        0.73612809       0.47828232       1.40958389
H        0.08476325      -1.21785087       1.57976318
H        0.05492452      -0.73385045      -0.73826684
H       -2.89144746       0.16480415       1.05947650
H       -2.96467234      -0.42059533      -0.67649499
H       -1.53010149       1.90515500       0.37553171
15
Frame=3 idx=001739 GeodesicLength=0.29012309728156727 rxn_smarts="[C:1]([O:2][C:3]([C@@:4]1([H:12])[C:5]([H:13])([H:14])[N:6]1[H:15])([H:10])[H:11])([H:7])([H:8])[H:9]>>[C:1]([O:2][H:12])([H:7])([H:8])[H:9].[C:3](=[C:4]1[C:5]([H:13])([H:14])[N:6]1[H:15])([H:10])[H:11]"
C        2.28411385      -0.15644335      -0.78407387
O        1.20296337      -0.97064842      -0.40717864
C        0.10551149      -0.34349176       0.99488376
C       -0.94157097      -0.05679519       0.10349860
C       -2.38891972       0.07380620       0.12473169
N       -1.53123482       1.17820198      -0.36000516
H        2.87935342      -0.69712111      -1.52546596
H        2.96570868       0.06580203       0.04007577
H        1.95843269       0.79663961      -1.21858942
H        0.71174162       0.43122234       1.45655222
H        0.08755849      -1.27556633       1.55101257
H        0.01595392      -0.76925315      -0.75389197
H       -2.88487934       0.21995424       1.07984206
H       -2.98505040      -0.40296380      -0.64558469
H       -1.47968227       1.90665671       0.34419306
15
Frame=4 idx=001739 GeodesicLength=0.38758090179802396 rxn_smarts="[C:1]([O:2][C:3]([C@@:4]1([H:12])[C:5]([H:13])([H:14])[N:6]1[H:15])([H:10])[H:11])([H:7])([H:8])[H:9]>>[C:1]([O:2][H:12])([H:7])([H:8])[H:9].[C:3](=[C:4]1[C:5]([H:13])([H:14])[N:6]1[H:15])([H:10])[H:11]"
C        2.28271188      -0.13081847      -0.79053279
O        1.19887337      -0.95327621      -0.44779318
C        0.10305379      -0.38055819       0.99481283
C       -0.95118175      -0.07889560       0.11750198
C       -2.39307120       0.09127458       0.14493612
N       -1.50919154       1.16042816      -0.36909286
H        2.95209139      -0.70554027      -1.43805060
H        2.90141393       0.17834023       0.05513393
H        1.97114284       0.77722437      -1.32030772
H        0.68704644       0.38231089       1.50220520
H        0.09150335      -1.33158764       1.51944077
H       -0.02411297      -0.80308941      -0.77003110
H       -2.87510699       0.27333879       1.10092281
H       -3.00506845      -0.38480572      -0.61331039
H       -1.43010408       1.90565448       0.31416500
15
Frame=5 idx=001739 GeodesicLength=0.48556653252620485 rxn_smarts="[C:1]([O:2][C:3]([C@@:4]1([H:12])[C:5]([H:13])([H:14])[N:6]1[H:15])([H:10])[H:11])([H:7])([H:8])[H:9]>>[C:1]([O:2][H:12])([H:7])([H:8])[H:9].[C:3](=[C:4]1[C:5]([H:13])([H:14])[N:6]1[H:15])([H:10])[H:11]"
C        2.28077618      -0.10492791      -0.79736968
O        1.19240869      -0.93261783      -0.49035120
C        0.10104237      -0.41699589       0.99368777
C       -0.96060774      -0.10025766       0.13113871
C       -2.39606129       0.10856517       0.16576875
N       -1.48845033       1.14233309      -0.37681710
H        3.01824768      -0.70860586      -1.33651743
H        2.82870318       0.29291653       0.06021829
H        1.99790830       0.74942057      -1.42317392
H        0.66231924       0.33083969       1.54676059
H        0.09635345      -1.38635706       1.48526207
H       -0.06501086      -0.83588872      -0.78620096
H       -2.86233233       0.32508156       1.12232814
H       -3.02429453      -0.36579473      -0.58023575
H       -1.38100201       1.90228904       0.28550172
15
Frame=6 idx=001739 GeodesicLength=0.5841315506824902 rxn_smarts="[C:1]([O:2][C:3]([C@@:4]1([H:12])[C:5]([H:13])([H:14])[N:6]1[H:15])([H:10])[H:11])([H:7])([H:8])[H:9]>>[C:1]([O:2][H:12])([H:7])([H:8])[H:9].[C:3](=[C:4]1[C:5]([H:13])([H:14])[N:6]1[H:15])([H:10])[H:11]"
C        2.27874350      -0.07913622      -0.80451535
O        1.18329047      -0.90811373      -0.53560787
C        0.09968029      -0.45225459       0.99085328
C       -0.97001446      -0.12068315       0.14416420
C       -2.39819689       0.12524858       0.18766753
N       -1.47000581       1.12408367      -0.38311198
H        3.07536219      -0.70575247      -1.22038284
H        2.74840817       0.40752093       0.05391389
H        2.04199094       0.71268100      -1.52407371
H        0.63808393       0.27746556       1.58883195
H        0.10272584      -1.43906604       1.44800213
H       -0.10684518      -0.86657386      -0.80307598
H       -2.84664308       0.37448920       1.14470038
H       -3.04308662      -0.34664240      -0.54563468
H       -1.33349328       1.89673351       0.25826906
15
Frame=7 idx=001739 GeodesicLength=0.6830865821907556 rxn_smarts="[C:1]([O:2][C:3]([C@@:4]1([H:12])[C:5]([H:13])([H:14])[N:6]1[H:15])([H:10])[H:11])([H:7])([H:8])[H:9]>>[C:1]([O:2][H:12])([H:7])([H:8])[H:9].[C:3](=[C:4]1[C:5]([H:13])([H:14])[N:6]1[H:15])([H:10])[H:11]"
C        2.27688191      -0.05357186      -0.81188558
O        1.17158805      -0.87933418      -0.58332930
C        0.09901498      -0.48597718       0.98634863
C       -0.97935925      -0.14008297       0.15656000
C       -2.39960188       0.14098769       0.21056635
N       -1.45418269       1.10588164      -0.38807964
H        3.11952400      -0.69639887      -1.09117726
H        2.66350313       0.52046889       0.03409226
H        2.10445703       0.66703332      -1.61877961
H        0.61495678       0.22268098       1.62780813
H        0.11080461      -1.48925372       1.40777004
H       -0.14944899      -0.89483887      -0.82066236
H       -2.82845145       0.42101592       1.16799723
H       -3.06132629      -0.32794049      -0.50962585
H       -1.28835994       1.88932970       0.23239696
15
Frame=8 idx=001739 GeodesicLength=0.782518491381159 rxn_smarts="[C:1]([O:2][C:3]([C@@:4]1([H:12])[C:5]([H:13])([H:14])[N:6]1[H:15])([H:10])[H:11])([H:7])([H:8])[H:9]>>[C:1]([O:2][H:12])([H:7])([H:8])[H:9].[C:3](=[C:4]1[C:5]([H:13])([H:14])[N:6]1[H:15])([H:10])[H:11]"
C        2.27582682      -0.02875106      -0.81939333
O        1.15712971      -0.84527680      -0.63432313
C        0.09919850      -0.51758684       0.97938535
C       -0.98875114      -0.15821644       0.16797158
C       -2.40059593       0.15530743       0.23499548
N       -1.44210210       1.08799625      -0.39152296
H        3.14775987      -0.68083044      -0.94905337
H        2.57628380       0.63044831      -0.00063447
H        2.18763059       0.61161117      -1.70346540
H        0.59352263       0.16732845       1.66225341
H        0.12120132      -1.53615839       1.36370427
H       -0.19282570      -0.91962562      -0.83970113
H       -2.80792054       0.46378705       1.19298521
H       -3.07935195      -0.31039242      -0.47131424
H       -1.24700587       1.88035934       0.20811273
15
Frame=9 idx=001739 GeodesicLength=0.8817953698801432 rxn_smarts="[C:1]([O:2][C:3]([C@@:4]1([H:12])[C:5]([H:13])([H:14])[N:6]1[H:15])([H:10])[H:11])([H:7])([H:8])[H:9]>>[C:1]([O:2][H:12])([H:7])([H:8])[H:9].[C:3](=[C:4]1[C:5]([H:13])([H:14])[N:6]1[H:15])([H:10])[H:11]"
C        2.27463239      -0.00415981      -0.82693948
O        1.14104159      -0.80726092      -0.68558250
C        0.09988115      -0.54793268       0.97160723
C       -0.99757197      -0.17548142       0.17881136
C       -2.40060007       0.16851960       0.25954213
N       -1.43169692       1.07070411      -0.39358410
H        3.15694583      -0.65531526      -0.79982538
H        2.49170310       0.73710399      -0.05287214
H        2.28423156       0.54589869      -1.77360174
H        0.57433335       0.11059039       1.69350172
H        0.13267522      -1.58064200       1.31742752
H       -0.23586536      -0.94216143      -0.85877036
H       -2.78579062       0.50316721       1.21784005
H       -3.09595681      -0.29322076      -0.43322855
H       -1.20796243       1.87019030       0.18567424
15
Frame=10 idx=001739 GeodesicLength=0.9808939631981406 rxn_smarts="[C:1]([O:2][C:3]([C@@:4]1([H:12])[C:5]([H:13])([H:14])[N:6]1[H:15])([H:10])[H:11])([H:7])([H:8])[H:9]>>[C:1]([O:2][H:12])([H:7])([H:8])[H:9].[C:3](=[C:4]1[C:5]([H:13])([H:14])[N:6]1[H:15])([H:10])[H:11]"
C        2.27470380       0.01905408      -0.83400871
O        1.12309202      -0.76356495      -0.73800057
C        0.10113571      -0.57532036       0.96205814
C       -1.00627224      -0.19156067       0.18848409
C       -2.40038644       0.17974246       0.28501852
N       -1.42525428       1.05346925      -0.39527586
H        3.14569285      -0.62265475      -0.65046031
H        2.41675873       0.83442734      -0.11877916
H        2.39378785       0.47391344      -1.82248569
H        0.55696383       0.05537547       1.71993654
H        0.14637427      -1.62051095       1.26857779
H       -0.27857449      -0.96149336      -0.87851782
H       -2.76219172       0.53874635       1.24352115
H       -3.11215441      -0.27860713      -0.39318509
H       -1.17367548       1.85898379       0.16311697
15
Frame=11 idx=001739 GeodesicLength=1.0794309347443014 rxn_smarts="[C:1]([O:2][C:3]([C@@:4]1([H:12])[C:5]([H:13])([H:14])[N:6]1[H:15])([H:10])[H:11])([H:7])([H:8])[H:9]>>[C:1]([O:2][H:12])([H:7])([H:8])[H:9].[C:3](=[C:4]1[C:5]([H:13])([H:14])[N:6]1[H:15])([H:10])[H:11]"
C        2.27601174       0.04079260      -0.84035484
O        1.10426287      -0.71472348      -0.78865381
C        0.10261783      -0.59954142       0.95241578
C       -1.01458335      -0.20642187       0.19747404
C       -2.40001467       0.18884841       0.30996283
N       -1.42181472       1.03656412      -0.39678111
H        3.11622619      -0.58399628      -0.51083856
H        2.35897502       0.92037125      -0.19469017
H        2.50588683       0.39858524      -1.84868774
H        0.54070826       0.00234679       1.74356373
H        0.16165593      -1.65551342       1.21921399
H       -0.31994833      -0.97816061      -0.89766767
H       -2.73868376       0.57037877       1.26814398
H       -3.12706393      -0.26685256      -0.35373304
H       -1.14423590       1.84732245       0.14063259
15
Frame=12 idx=001739 GeodesicLength=1.1782444872235598 rxn_smarts="[C:1]([O:2][C:3]([C@@:4]1([H:12])[C:5]([H:13])([H:14])[N:6]1[H:15])([H:10])[H:11])([H:7])([H:8])[H:9]>>[C:1]([O:2][H:12])([H:7])([H:8])[H:9].[C:3](=[C:4]1[C:5]([H:13])([H:14])[N:6]1[H:15])([H:10])[H:11]"
C        2.27764279       0.06153397      -0.84595363
O        1.08545840      -0.66255035      -0.83609476
C        0.10393722      -0.62220092       0.94324969
C       -1.02224983      -0.22078877       0.20570610
C       -2.39893076       0.19671161       0.33410827
N       -1.41967131       1.01968345      -0.39849931
H        3.07298671      -0.53716779      -0.38266131
H        2.31655632       0.99718346      -0.27896967
H        2.61407449       0.32051390      -1.85430323
H        0.52454779      -0.05054462       1.76588267
H        0.17722133      -1.68730390       1.16975888
H       -0.35937595      -0.99316075      -0.91611286
H       -2.71450355       0.59975519       1.29132527
H       -3.14059337      -0.25656800      -0.31505555
H       -1.11710028       1.83490352       0.11761944
15
Frame=13 idx=001739 GeodesicLength=1.2771012340365508 rxn_smarts="[C:1]([O:2][C:3]([C@@:4]1([H:12])[C:5]([H:13])([H:14])[N:6]1[H:15])([H:10])[H:11])([H:7])([H:8])[H:9]>>[C:1]([O:2][H:12])([H:7])([H:8])[H:9].[C:3](=[C:4]1[C:5]([H:13])([H:14])[N:6]1[H:15])([H:10])[H:11]"
C        2.27957294       0.08147333      -0.85084633
O        1.06733879      -0.60763571      -0.87863849
C        0.10489240      -0.64356784       0.93523634
C       -1.02910040      -0.23439359       0.21361132
C       -2.39725007       0.20333014       0.35660639
N       -1.41801549       1.00354713      -0.39930175
H        3.02030137      -0.48191302      -0.26751407
H        2.29114658       1.06578594      -0.37091619
H        2.71292296       0.23862558      -1.84279387
H        0.50783213      -0.10387824       1.78785262
H        0.19242266      -1.71604076       1.12092390
H       -0.39653059      -1.00610089      -0.93347033
H       -2.69113826       0.62586588       1.31223025
H       -3.15194725      -0.24719207      -0.27934505
H       -1.09244777       1.82209412       0.09636527
15
Frame=14 idx=001739 GeodesicLength=1.3765318177607797 rxn_smarts="[C:1]([O:2][C:3]([C@@:4]1([H:12])[C:5]([H:13])([H:14])[N:6]1[H:15])([H:10])[H:11])([H:7])([H:8])[H:9]>>[C:1]([O:2][H:12])([H:7])([H:8])[H:9].[C:3](=[C:4]1[C:5]([H:13])([H:14])[N:6]1[H:15])([H:10])[H:11]"
C        2.27994668       0.10180615      -0.85508998
O        1.05074020      -0.55446276      -0.91588484
C        0.10520092      -0.66653100       0.92867645
C       -1.03479288      -0.24850590       0.22103747
C       -2.39375435       0.21039680       0.37756639
N       -1.41403795       0.98742804      -0.40020575
H        2.96167767      -0.41216984      -0.16362388
H        2.27439505       1.12791775      -0.47089681
H        2.79996603       0.15574242      -1.81562330
H        0.49006270      -0.16126357       1.81045873
H        0.20511090      -1.74485065       1.07334787
H       -0.43188571      -1.01935399      -0.94996354
H       -2.66609753       0.65193969       1.33095014
H       -3.16122229      -0.23613546      -0.24593317
H       -1.06530944       1.80804232       0.07518422
15
Frame=15 idx=001739 GeodesicLength=1.4762717822994476 rxn_smarts="[C:1]([O:2][C:3]([C@@:4]1([H:12])[C:5]([H:13])([H:14])[N:6]1[H:15])([H:10])[H:11])([H:7])([H:8])[H:9]>>[C:1]([O:2][H:12])([H:7])([H:8])[H:9].[C:3](=[C:4]1[C:5]([H:13])([H:14])[N:6]1[H:15])([H:10])[H:11]"
C        2.28178371       0.12120782      -0.85845394
O        1.03440066      -0.49625154      -0.94920247
C        0.10535013      -0.68757667       0.92252396
C       -1.04015255      -0.26141308       0.22810866
C       -2.39061412       0.21553154       0.39760059
N       -1.41203452       0.97263996      -0.39947023
H        2.89839910      -0.33478598      -0.07133919
H        2.27697766       1.18078283      -0.57777657
H        2.87692353       0.06740714      -1.77403743
H        0.47104684      -0.21894269       1.83237259
H        0.21843620      -1.76998486       1.02522903
H       -0.46590182      -1.02932517      -0.96637693
H       -2.64295321       0.67340349       1.34869085
H       -3.16918718      -0.22708770      -0.21484595
H       -1.04247441       1.79439491       0.05697703
15
Frame=16 idx=001739 GeodesicLength=1.5759828283508004 rxn_smarts="[C:1]([O:2][C:3]([C@@:4]1([H:12])[C:5]([H:13])([H:14])[N:6]1[H:15])([H:10])[H:11])([H:7])([H:8])[H:9]>>[C:1]([O:2][H:12])([H:7])([H:8])[H:9].[C:3](=[C:4]1[C:5]([H:13])([H:14])[N:6]1[H:15])([H:10])[H:11]"
C        2.28190038       0.14144182      -0.86107332
O        1.01947624      -0.44041214      -0.97840208
C        0.10525751      -0.71076080       0.91704449
C       -1.04430395      -0.27477899       0.23471705
C       -2.38556801       0.22131282       0.41653329
N       -1.40738569       0.95823675      -0.39831024
H        2.83137525      -0.23998791       0.01122070
H        2.28609388       1.22513139      -0.69311180
H        2.94210937      -0.02117398      -1.71694126
H        0.45082567      -0.28202868       1.85423103
H        0.22937853      -1.79576110       0.97748888
H       -0.49941852      -1.03974536      -0.98254314
H       -2.61791045       0.69462138       1.36509787
H       -3.17515325      -0.21582991      -0.18574819
H       -1.01667696       1.77973470       0.03979672
