13
Frame=0 idx=010377 GeodesicLength=0.0 rxn_smarts="[N:1]#[C:2][C@@:3]1([H:8])[C:4]([H:9])([H:10])[C@@:5]2([H:11])[C:6]([H:12])([H:13])[N:7]12>>[N:1]1([H:12])[C:2][C@@:3]2([H:8])[C:4]([H:9])([H:10])[C@@:5]3([H:11])[C@:6]1([H:13])[N:7]23"
N        1.08254557      -1.52479452       0.67161084
C        1.57406110      -0.42854666       0.74527564
C        0.71699050       0.77225929       0.51029915
C        0.36513733       0.76685755      -0.99480202
C       -0.99498611       0.21380312      -0.59010186
C       -0.97700537      -0.84046012       0.41239370
N       -0.72192984       0.44237707       0.90810637
H        1.06838342       1.69598592       0.95484064
H        1.00029535       0.16970738      -1.64986107
H        0.27206835       1.77573057      -1.39131354
H       -1.91317887       0.57073021      -1.04660015
H        0.40568177      -2.27192516       0.72254990
H       -1.87806318      -1.34172468       0.74760239
13
Frame=1 idx=010377 GeodesicLength=0.09799004480837022 rxn_smarts="[N:1]#[C:2][C@@:3]1([H:8])[C:4]([H:9])([H:10])[C@@:5]2([H:11])[C:6]([H:12])([H:13])[N:7]12>>[N:1]1([H:12])[C:2][C@@:3]2([H:8])[C:4]([H:9])([H:10])[C@@:5]3([H:11])[C@:6]1([H:13])[N:7]23"
N        1.08840252      -1.52098115       0.69800152
C        1.57819902      -0.42207485       0.75335530
C        0.71755001       0.77383435       0.51070530
C        0.36527841       0.76415033      -0.99460238
C       -0.99319951       0.21075932      -0.58675883
C       -0.96566064      -0.84498816       0.41626622
N       -0.72111332       0.44541562       0.90813264
H        1.06822992       1.69976390       0.95138676
H        0.99879469       0.16484448      -1.64930933
H        0.27320089       1.77233802      -1.39304315
H       -1.91394516       0.56140091      -1.04267989
H        0.37228125      -2.26056194       0.67653214
H       -1.86801807      -1.34390083       0.75201371
13
Frame=2 idx=010377 GeodesicLength=0.19594509931899196 rxn_smarts="[N:1]#[C:2][C@@:3]1([H:8])[C:4]([H:9])([H:10])[C@@:5]2([H:11])[C:6]([H:12])([H:13])[N:7]12>>[N:1]1([H:12])[C:2][C@@:3]2([H:8])[C:4]([H:9])([H:10])[C@@:5]3([H:11])[C@:6]1([H:13])[N:7]23"
N        1.09278666      -1.51748988       0.72494715
C        1.58185079      -0.41652670       0.76096078
C        0.71804837       0.77482621       0.51105574
C        0.36527772       0.76135716      -0.99442758
C       -0.99169237       0.20803281      -0.58354450
C       -0.95489242      -0.84933553       0.41977996
N       -0.72045099       0.44831991       0.90803211
H        1.06836195       1.70267608       0.94805882
H        0.99688930       0.15982070      -1.64889413
H        0.27452601       1.76895324      -1.39458383
H       -1.91485232       0.55273944      -1.03877645
H        0.34255992      -2.24733743       0.63134763
H       -1.85841262      -1.34603600       0.75604430
13
Frame=3 idx=010377 GeodesicLength=0.2939740382546858 rxn_smarts="[N:1]#[C:2][C@@:3]1([H:8])[C:4]([H:9])([H:10])[C@@:5]2([H:11])[C:6]([H:12])([H:13])[N:7]12>>[N:1]1([H:12])[C:2][C@@:3]2([H:8])[C:4]([H:9])([H:10])[C@@:5]3([H:11])[C@:6]1([H:13])[N:7]23"
N        1.09602043      -1.51434782       0.75165946
C        1.58513185      -0.41186875       0.76799003
C        0.71853642       0.77529082       0.51131895
C        0.36515828       0.75863099      -0.99431365
C       -0.99044621       0.20560540      -0.58050759
C       -0.94461732      -0.85362144       0.42279221
N       -0.71992273       0.45101671       0.90778940
H        1.06879763       1.70480666       0.94491227
H        0.99466033       0.15488538      -1.64876242
H        0.27598727       1.76578861      -1.39585574
H       -1.91594300       0.54470443      -1.03488132
H        0.31583759      -2.23260210       0.58831809
H       -1.84920054      -1.34828889       0.75954030
13
Frame=4 idx=010377 GeodesicLength=0.39213470935842576 rxn_smarts="[N:1]#[C:2][C@@:3]1([H:8])[C:4]([H:9])([H:10])[C@@:5]2([H:11])[C:6]([H:12])([H:13])[N:7]12>>[N:1]1([H:12])[C:2][C@@:3]2([H:8])[C:4]([H:9])([H:10])[C@@:5]3([H:11])[C@:6]1([H:13])[N:7]23"
N        1.09840509      -1.51149828       0.77771861
C        1.58815519      -0.40795848       0.77447236
C        0.71905410       0.77534063       0.51149966
C        0.36495793       0.75604601      -0.99428423
C       -0.98944009       0.20343232      -0.57766021
C       -0.93476929      -0.85790245       0.42528175
N       -0.71951936       0.45351212       0.90743232
H        1.06953422       1.70632690       0.94198151
H        0.99220845       0.15015248      -1.64899026
H        0.27756221       1.76293408      -1.39685561
H       -1.91724768       0.53718899      -1.03099690
H        0.29146189      -2.21684699       0.54791926
H       -1.84036267      -1.35072733       0.76248173
13
Frame=5 idx=010377 GeodesicLength=0.49017635850620567 rxn_smarts="[N:1]#[C:2][C@@:3]1([H:8])[C:4]([H:9])([H:10])[C@@:5]2([H:11])[C:6]([H:12])([H:13])[N:7]12>>[N:1]1([H:12])[C:2][C@@:3]2([H:8])[C:4]([H:9])([H:10])[C@@:5]3([H:11])[C@:6]1([H:13])[N:7]23"
N        1.10014282      -1.50882473       0.80299937
C        1.59080312      -0.40475362       0.78050569
C        0.71951600       0.77490757       0.51154886
C        0.36457822       0.75364299      -0.99429679
C       -0.98851638       0.20155045      -0.57500967
C       -0.92508485      -0.86210206       0.42725739
N       -0.71907631       0.45572065       0.90684624
H        1.07037320       1.70705497       0.93913593
H        0.98937015       0.14579868      -1.64941945
H        0.27906342       1.76035689      -1.39758855
H       -1.91852587       0.53020602      -1.02717906
H        0.26885185      -2.20034327       0.51036625
H       -1.83149537      -1.35321452       0.76483378
13
Frame=6 idx=010377 GeodesicLength=0.5883371698901885 rxn_smarts="[N:1]#[C:2][C@@:3]1([H:8])[C:4]([H:9])([H:10])[C@@:5]2([H:11])[C:6]([H:12])([H:13])[N:7]12>>[N:1]1([H:12])[C:2][C@@:3]2([H:8])[C:4]([H:9])([H:10])[C@@:5]3([H:11])[C@:6]1([H:13])[N:7]23"
N        1.10137729      -1.50625327       0.82770392
C        1.59329219      -0.40200473       0.78619552
C        0.72001937       0.77424849       0.51154005
C        0.36415916       0.75137642      -0.99439431
C       -0.98776757       0.19984408      -0.57250009
C       -0.91569994      -0.86629013       0.42885820
N       -0.71872352       0.45781278       0.90620369
H        1.07143926       1.70745404       0.93644817
H        0.98641371       0.14163435      -1.65015626
H        0.28065449       1.75804131      -1.39815422
H       -1.91997921       0.52356138      -1.02336551
H        0.24771317      -2.18356469       0.47481613
H       -1.82289842      -1.35586003       0.76680470
13
Frame=7 idx=010377 GeodesicLength=0.6865176074086696 rxn_smarts="[N:1]#[C:2][C@@:3]1([H:8])[C:4]([H:9])([H:10])[C@@:5]2([H:11])[C:6]([H:12])([H:13])[N:7]12>>[N:1]1([H:12])[C:2][C@@:3]2([H:8])[C:4]([H:9])([H:10])[C@@:5]3([H:11])[C@:6]1([H:13])[N:7]23"
N        1.10219195      -1.50369614       0.85199757
C        1.59559474      -0.39965697       0.79161253
C        0.72053252       0.77336527       0.51146169
C        0.36366940       0.74923265      -0.99455172
C       -0.98713089       0.19831138      -0.57011060
C       -0.90650221      -0.87042506       0.43014250
N       -0.71839960       0.45978932       0.90547452
H        1.07265146       1.70750111       0.93384375
H        0.98328799       0.13767061      -1.65110346
H        0.28226882       1.75593239      -1.39858237
H       -1.92151672       0.51722823      -1.01956761
H        0.22776253      -2.16665934       0.44094339
H       -1.81440999      -1.35859343       0.76843981
13
Frame=8 idx=010377 GeodesicLength=0.7847120571256914 rxn_smarts="[N:1]#[C:2][C@@:3]1([H:8])[C:4]([H:9])([H:10])[C@@:5]2([H:11])[C:6]([H:12])([H:13])[N:7]12>>[N:1]1([H:12])[C:2][C@@:3]2([H:8])[C:4]([H:9])([H:10])[C@@:5]3([H:11])[C@:6]1([H:13])[N:7]23"
N        1.10264768      -1.50108203       0.87605731
C        1.59773618      -0.39764046       0.79679845
C        0.72105680       0.77230254       0.51132098
C        0.36311808       0.74718903      -0.99476136
C       -0.98658901       0.19692639      -0.56781454
C       -0.89745340      -0.87449777       0.43117051
N       -0.71809554       0.46168339       0.90467726
H        1.07399090       1.70726433       0.93129726
H        0.98001499       0.13386845      -1.65222754
H        0.28390112       1.75398915      -1.39890278
H       -1.92312563       0.51115115      -1.01577191
H        0.20879351      -2.14975732       0.40835323
H       -1.80599568      -1.36139685       0.76980313
13
Frame=9 idx=010377 GeodesicLength=0.8828992930778141 rxn_smarts="[N:1]#[C:2][C@@:3]1([H:8])[C:4]([H:9])([H:10])[C@@:5]2([H:11])[C:6]([H:12])([H:13])[N:7]12>>[N:1]1([H:12])[C:2][C@@:3]2([H:8])[C:4]([H:9])([H:10])[C@@:5]3([H:11])[C@:6]1([H:13])[N:7]23"
N        1.10277223      -1.49834958       0.90006339
C        1.59973156      -0.39591061       0.80177950
C        0.72159172       0.77108894       0.51111897
C        0.36250783       0.74522833      -0.99501541
C       -0.98612477       0.19567016      -0.56558906
C       -0.88851390      -0.87850443       0.43199041
N       -0.71779773       0.46351575       0.90382089
H        1.07544276       1.70678665       0.92877920
H        0.97660187       0.13019896      -1.65349508
H        0.28554268       1.75218096      -1.39913893
H       -1.92478876       0.50529202      -1.01196402
H        0.19064742      -2.13293751       0.37670504
H       -1.79761292      -1.36425966       0.77094510
13
Frame=10 idx=010377 GeodesicLength=0.9810997905627589 rxn_smarts="[N:1]#[C:2][C@@:3]1([H:8])[C:4]([H:9])([H:10])[C@@:5]2([H:11])[C:6]([H:12])([H:13])[N:7]12>>[N:1]1([H:12])[C:2][C@@:3]2([H:8])[C:4]([H:9])([H:10])[C@@:5]3([H:11])[C@:6]1([H:13])[N:7]23"
N        1.10260555      -1.49543723       0.92416788
C        1.60160839      -0.39443284       0.80656396
C        0.72214762       0.76974910       0.51086230
C        0.36184649       0.74333928      -0.99531485
C       -0.98573247       0.19452155      -0.56341923
C       -0.87965941      -0.88244992       0.43263697
N       -0.71750064       0.46529962       0.90292435
H        1.07701181       1.70610650       0.92628516
H        0.97306531       0.12664422      -1.65490133
H        0.28719174       1.75048822      -1.39930932
H       -1.92650999       0.49960942      -1.00813418
H        0.17317322      -2.11625208       0.34573813
H       -1.78924762      -1.36718583       0.77190016
13
Frame=11 idx=010377 GeodesicLength=1.0793023129742907 rxn_smarts="[N:1]#[C:2][C@@:3]1([H:8])[C:4]([H:9])([H:10])[C@@:5]2([H:11])[C:6]([H:12])([H:13])[N:7]12>>[N:1]1([H:12])[C:2][C@@:3]2([H:8])[C:4]([H:9])([H:10])[C@@:5]3([H:11])[C@:6]1([H:13])[N:7]23"
N        1.10216061      -1.49228719       0.94852537
C        1.60338093      -0.39318991       0.81115164
C        0.72272889       0.76829629       0.51055037
C        0.36113520       0.74151218      -0.99565623
C       -0.98540177       0.19346555      -0.56129018
C       -0.87085698      -0.88633938       0.43313606
N       -0.71719300       0.46704194       0.90199477
H        1.07869711       1.70524392       0.92379986
H        0.96940841       0.12318968      -1.65643230
H        0.28884004       1.74889451      -1.39942479
H       -1.92828198       0.49407550      -1.00426815
H        0.15624956      -2.09972549       0.31522047
H       -1.78086702      -1.37017760       0.77269310
13
Frame=12 idx=010377 GeodesicLength=1.1775046004524596 rxn_smarts="[N:1]#[C:2][C@@:3]1([H:8])[C:4]([H:9])([H:10])[C@@:5]2([H:11])[C:6]([H:12])([H:13])[N:7]12>>[N:1]1([H:12])[C:2][C@@:3]2([H:8])[C:4]([H:9])([H:10])[C@@:5]3([H:11])[C@:6]1([H:13])[N:7]23"
N        1.10144853      -1.48883867       0.97327914
C        1.60506324      -0.39217383       0.81553549
C        0.72334247       0.76673918       0.51018270
C        0.36037543       0.73974036      -0.99603834
C       -0.98512485       0.19248774      -0.55919015
C       -0.86207594      -0.89018157       0.43350598
N       -0.71686487       0.46874467       0.90103979
H        1.08050348       1.70421219       0.92131415
H        0.96563506       0.11982708      -1.65808211
H        0.29048000       1.74738852      -1.39949269
H       -1.93010169       0.48866339      -1.00035284
H        0.13976170      -2.08336722       0.28495670
H       -1.77244257      -1.37324183       0.77334219
13
Frame=13 idx=010377 GeodesicLength=1.2757058657068123 rxn_smarts="[N:1]#[C:2][C@@:3]1([H:8])[C:4]([H:9])([H:10])[C@@:5]2([H:11])[C:6]([H:12])([H:13])[N:7]12>>[N:1]1([H:12])[C:2][C@@:3]2([H:8])[C:4]([H:9])([H:10])[C@@:5]3([H:11])[C@:6]1([H:13])[N:7]23"
N        1.10047684      -1.48502645       0.99856755
C        1.60666716      -0.39138540       0.81970262
C        0.72399635       0.76508210       0.50975768
C        0.35956786       0.73801977      -0.99646083
C       -0.98489454       0.19157471      -0.55710959
C       -0.85328477      -0.89398798       0.43375864
N       -0.71650595       0.47040546       0.90006532
H        1.08243888       1.70301779       0.91882120
H        0.96174776       0.11655361      -1.65984880
H        0.29210312       1.74596352      -1.39951686
H       -1.93196709       0.48334815      -0.99637567
H        0.12359906      -2.06717724       0.25477864
H       -1.76394468      -1.37638803       0.77386009
13
Frame=14 idx=010377 GeodesicLength=1.3739056037469286 rxn_smarts="[N:1]#[C:2][C@@:3]1([H:8])[C:4]([H:9])([H:10])[C@@:5]2([H:11])[C:6]([H:12])([H:13])[N:7]12>>[N:1]1([H:12])[C:2][C@@:3]2([H:8])[C:4]([H:9])([H:10])[C@@:5]3([H:11])[C@:6]1([H:13])[N:7]23"
N        1.09924996      -1.48077833       1.02452665
C        1.60820232      -0.39083314       0.82363601
C        0.72469945       0.76332596       0.50927265
C        0.35871269       0.73634841      -0.99692394
C       -0.98470403       0.19071361      -0.55504051
C       -0.84445029      -0.89777263       0.43390060
N       -0.71610554       0.47201846       0.89907594
H        1.08451379       1.70166193       0.91631581
H        0.95774834       0.11337070      -1.66173348
H        0.29370019       1.74461621      -1.39949818
H       -1.93387665       0.47810594      -0.99232390
H        0.10765157      -2.05114917       0.22453676
H       -1.75534181      -1.37962797       0.77425559
13
Frame=15 idx=010377 GeodesicLength=1.4721037169875901 rxn_smarts="[N:1]#[C:2][C@@:3]1([H:8])[C:4]([H:9])([H:10])[C@@:5]2([H:11])[C:6]([H:12])([H:13])[N:7]12>>[N:1]1([H:12])[C:2][C@@:3]2([H:8])[C:4]([H:9])([H:10])[C@@:5]3([H:11])[C@:6]1([H:13])[N:7]23"
N        1.09777010      -1.47601273       1.05129342
C        1.60967583      -0.39053293       0.82731545
C        0.72546173       0.76146859       0.50872400
C        0.35780962       0.73472604      -0.99742851
C       -0.98454652       0.18989177      -0.55297632
C       -0.83553672      -0.90155199       0.43393379
N       -0.71565231       0.47357440       0.89807501
H        1.08674133       1.70014087       0.91379420
H        0.95363806       0.11028391      -1.66373982
H        0.29526116       1.74334638      -1.39943504
H       -1.93582917       0.47291313      -0.98818498
H        0.09180634      -2.03527224       0.19409398
H       -1.74659944      -1.38297521       0.77453482
13
Frame=16 idx=010377 GeodesicLength=1.570300685555021 rxn_smarts="[N:1]#[C:2][C@@:3]1([H:8])[C:4]([H:9])([H:10])[C@@:5]2([H:11])[C:6]([H:12])([H:13])[N:7]12>>[N:1]1([H:12])[C:2][C@@:3]2([H:8])[C:4]([H:9])([H:10])[C@@:5]3([H:11])[C@:6]1([H:13])[N:7]23"
N        1.09603739      -1.47063555       1.07900884
C        1.61109229      -0.39050818       0.83071775
C        0.72629450       0.75950508       0.50810716
C        0.35685813       0.73315404      -0.99797593
C       -0.98441512       0.18909619      -0.55091144
C       -0.82650514      -0.90534532       0.43385586
N       -0.71513424       0.47506088       0.89706498
H        1.08913746       1.69844665       0.91125396
H        0.94941826       0.10730254      -1.66587413
H        0.29677531       1.74215673      -1.39932322
H       -1.93782372       0.46774517      -0.98394611
H        0.07594446      -2.01953287       0.16331997
H       -1.73767961      -1.38644536       0.77470230
