16
Frame=0 idx=000480 GeodesicLength=0.0 rxn_smarts="[C:1]([C:2]1=[C:3]([H:10])[C:4]([H:11])([H:12])[C:5]([H:13])([H:14])[C:6]1([H:15])[H:16])([H:7])([H:8])[H:9]>>[C:1]([C:2]1=[C:3]=[C:4]([H:12])[C:5]([H:13])([H:14])[C:6]1([H:15])[H:16])([H:7])([H:8])[H:9].[H:10][H:11]"
C        2.17081670       0.09624061      -0.08393727
C        0.69049437       0.03531617      -0.02724529
C       -0.18959856       1.05817359      -0.26366737
C       -1.46795601       0.57344137      -0.31387921
C       -1.49697382      -0.91145017      -0.18087712
C       -0.06092432      -1.23392679       0.28267037
H        2.57438580      -0.73282896      -0.67235799
H        2.51352929       1.03842828      -0.50950769
H        2.60149102       0.00305997       0.91962565
H       -0.27094645       2.24357466       0.02677213
H       -1.06082973       2.79760870       0.68388422
H       -2.33780179       1.22118127      -0.36187886
H       -2.27383627      -1.20710163       0.52856248
H       -1.74000859      -1.40860067      -1.12620800
H        0.38300707      -2.07925050      -0.25039613
H       -0.03484868      -1.49386595       1.34844012
16
Frame=1 idx=000480 GeodesicLength=0.07040648309768834 rxn_smarts="[C:1]([C:2]1=[C:3]([H:10])[C:4]([H:11])([H:12])[C:5]([H:13])([H:14])[C:6]1([H:15])[H:16])([H:7])([H:8])[H:9]>>[C:1]([C:2]1=[C:3]=[C:4]([H:12])[C:5]([H:13])([H:14])[C:6]1([H:15])[H:16])([H:7])([H:8])[H:9].[H:10][H:11]"
C        2.17674762       0.09014994      -0.08596261
C        0.69587545       0.03557552      -0.02802932
C       -0.17746156       1.06325286      -0.26199147
C       -1.46312412       0.58516702      -0.29704891
C       -1.49774400      -0.90098463      -0.16509585
C       -0.05781683      -1.23272903       0.27974928
H        2.57619563      -0.73725507      -0.67956894
H        2.52298233       1.03330582      -0.50656431
H        2.60840881      -0.01070656       0.91636298
H       -0.27246802       2.26149513       0.04883916
H       -1.11863110       2.75918606       0.69047455
H       -2.32751468       1.22532526      -0.44274957
H       -2.26513752      -1.19095425       0.55688941
H       -1.75591430      -1.40258417      -1.10392127
H        0.37703722      -2.07612267      -0.26410803
H       -0.02143493      -1.50212125       1.34272490
16
Frame=2 idx=000480 GeodesicLength=0.14108659929787265 rxn_smarts="[C:1]([C:2]1=[C:3]([H:10])[C:4]([H:11])([H:12])[C:5]([H:13])([H:14])[C:6]1([H:15])[H:16])([H:7])([H:8])[H:9]>>[C:1]([C:2]1=[C:3]=[C:4]([H:12])[C:5]([H:13])([H:14])[C:6]1([H:15])[H:16])([H:7])([H:8])[H:9].[H:10][H:11]"
C        2.18202946       0.08445362      -0.08747640
C        0.70064283       0.03599548      -0.02831741
C       -0.16617096       1.06829231      -0.25954019
C       -1.45923013       0.59711366      -0.28060205
C       -1.49862908      -0.89058403      -0.15008334
C       -0.05522141      -1.23161778       0.27642968
H        2.57749352      -0.74080959      -0.68677423
H        2.53166832       1.02885203      -0.50250192
H        2.61461643      -0.02467302       0.91352195
H       -0.27509707       2.27995898       0.07028305
H       -1.17285024       2.72349755       0.69156143
H       -2.31310927       1.22501555      -0.51584597
H       -2.25644317      -1.17565384       0.58393251
H       -1.77145860      -1.39623827      -1.08250806
H        0.37078586      -2.07263067      -0.27842410
H       -0.00902651      -1.51097198       1.33634504
16
Frame=3 idx=000480 GeodesicLength=0.21177602372042753 rxn_smarts="[C:1]([C:2]1=[C:3]([H:10])[C:4]([H:11])([H:12])[C:5]([H:13])([H:14])[C:6]1([H:15])[H:16])([H:7])([H:8])[H:9]>>[C:1]([C:2]1=[C:3]=[C:4]([H:12])[C:5]([H:13])([H:14])[C:6]1([H:15])[H:16])([H:7])([H:8])[H:9].[H:10][H:11]"
C        2.18678275       0.07907983      -0.08873913
C        0.70493235       0.03659451      -0.02839802
C       -0.15545184       1.07332612      -0.25666562
C       -1.45582098       0.60899381      -0.26635220
C       -1.49949582      -0.88029930      -0.13608197
C       -0.05313055      -1.23037104       0.27293469
H        2.57831936      -0.74373504      -0.69398776
H        2.53979205       1.02484084      -0.49782056
H        2.62021216      -0.03867614       0.91083719
H       -0.27898233       2.29865390       0.09176774
H       -1.22379105       2.68957064       0.68897776
H       -2.29565070       1.22132961      -0.58135265
H       -2.24779631      -1.16050068       0.60954045
H       -1.78639076      -1.39038311      -1.06176774
H        0.36433133      -2.06883281      -0.29252144
H        0.00214033      -1.51959115       1.32962927
16
Frame=4 idx=000480 GeodesicLength=0.28233048375565073 rxn_smarts="[C:1]([C:2]1=[C:3]([H:10])[C:4]([H:11])([H:12])[C:5]([H:13])([H:14])[C:6]1([H:15])[H:16])([H:7])([H:8])[H:9]>>[C:1]([C:2]1=[C:3]=[C:4]([H:12])[C:5]([H:13])([H:14])[C:6]1([H:15])[H:16])([H:7])([H:8])[H:9].[H:10][H:11]"
C        2.19114116       0.07395574      -0.08988368
C        0.70887359       0.03734651      -0.02836487
C       -0.14511603       1.07835726      -0.25346823
C       -1.45268622       0.62065087      -0.25485143
C       -1.50028701      -0.87018122      -0.12304763
C       -0.05145899      -1.22893968       0.26937095
H        2.57875712      -0.74615787      -0.70127282
H        2.54751945       1.02113638      -0.49274852
H        2.62535091      -0.05271143       0.90815949
H       -0.28427610       2.31736219       0.11373877
H       -1.27177705       2.65688806       0.68369605
H       -2.27607741       1.21531116      -0.64032348
H       -2.23918421      -1.14517544       0.63386052
H       -1.80069322      -1.38532507      -1.04147699
H        0.35777407      -2.06477614      -0.30613269
H        0.01213996      -1.52774132       1.32274455
16
Frame=5 idx=000480 GeodesicLength=0.35323068199158864 rxn_smarts="[C:1]([C:2]1=[C:3]([H:10])[C:4]([H:11])([H:12])[C:5]([H:13])([H:14])[C:6]1([H:15])[H:16])([H:7])([H:8])[H:9]>>[C:1]([C:2]1=[C:3]=[C:4]([H:12])[C:5]([H:13])([H:14])[C:6]1([H:15])[H:16])([H:7])([H:8])[H:9].[H:10][H:11]"
C        2.19519558       0.06897756      -0.09090147
C        0.71257098       0.03820396      -0.02811253
C       -0.13503496       1.08343201      -0.24986331
C       -1.44961281       0.63201821      -0.24576539
C       -1.50094073      -0.86025293      -0.11079605
C       -0.05007618      -1.22741756       0.26575995
H        2.57884142      -0.74820214      -0.70867907
H        2.55492342       1.01764719      -0.48726955
H        2.63019056      -0.06691047       0.90547042
H       -0.29071153       2.33641234       0.13581500
H       -1.31755975       2.62506714       0.67622084
H       -2.25526901       1.20785927      -0.69385405
H       -2.23044894      -1.12964882       0.65713840
H       -1.81449295      -1.38099104      -1.02148783
H        0.35117100      -2.06057939      -0.31937192
H        0.02125388      -1.53561533       1.31569655
16
Frame=6 idx=000480 GeodesicLength=0.4239802438105313 rxn_smarts="[C:1]([C:2]1=[C:3]([H:10])[C:4]([H:11])([H:12])[C:5]([H:13])([H:14])[C:6]1([H:15])[H:16])([H:7])([H:8])[H:9]>>[C:1]([C:2]1=[C:3]=[C:4]([H:12])[C:5]([H:13])([H:14])[C:6]1([H:15])[H:16])([H:7])([H:8])[H:9].[H:10][H:11]"
C        2.19900392       0.06415545      -0.09182675
C        0.71605365       0.03913927      -0.02768291
C       -0.12520681       1.08848250      -0.24589791
C       -1.44670880       0.64307620      -0.23870334
C       -1.50151838      -0.85054260      -0.09917476
C       -0.04892892      -1.22583860       0.26209107
H        2.57867636      -0.74983283      -0.71621148
H        2.56206503       1.01436469      -0.48144207
H        2.63477355      -0.08123756       0.90274457
H       -0.29859344       2.35547536       0.15834913
H       -1.36083329       2.59434991       0.66672775
H       -2.23349033       1.19923623      -0.74304370
H       -2.22163522      -1.11398836       0.67959592
H       -1.82786189      -1.37730959      -1.00166884
H        0.34457848      -2.05620427      -0.33235270
H        0.02962609      -1.54332578       1.30849601
16
Frame=7 idx=000480 GeodesicLength=0.49468233377338516 rxn_smarts="[C:1]([C:2]1=[C:3]([H:10])[C:4]([H:11])([H:12])[C:5]([H:13])([H:14])[C:6]1([H:15])[H:16])([H:7])([H:8])[H:9]>>[C:1]([C:2]1=[C:3]=[C:4]([H:12])[C:5]([H:13])([H:14])[C:6]1([H:15])[H:16])([H:7])([H:8])[H:9].[H:10][H:11]"
C        2.20260081       0.05946564      -0.09263634
C        0.71935486       0.04012336      -0.02708078
C       -0.11560740       1.09348969      -0.24164597
C       -1.44395156       0.65381797      -0.23331370
C       -1.50202510      -0.84105655      -0.08807598
C       -0.04795998      -1.22425418       0.25833914
H        2.57832506      -0.75110545      -0.72380160
H        2.56896912       1.01125319      -0.47527644
H        2.63911767      -0.09565878       0.90002186
H       -0.30789340       2.37462971       0.18118074
H       -1.40168122       2.56468069       0.65546788
H       -2.21109018       1.18971285      -0.78850191
H       -2.21268938      -1.09823323       0.70137721
H       -1.84090097      -1.37418285      -0.98196693
H        0.33801505      -2.05169711      -0.34520221
H        0.03741660      -1.55098496       1.30111502
16
Frame=8 idx=000480 GeodesicLength=0.5652839592290202 rxn_smarts="[C:1]([C:2]1=[C:3]([H:10])[C:4]([H:11])([H:12])[C:5]([H:13])([H:14])[C:6]1([H:15])[H:16])([H:7])([H:8])[H:9]>>[C:1]([C:2]1=[C:3]=[C:4]([H:12])[C:5]([H:13])([H:14])[C:6]1([H:15])[H:16])([H:7])([H:8])[H:9].[H:10][H:11]"
C        2.20601387       0.05489572      -0.09330994
C        0.72249585       0.04113334      -0.02631481
C       -0.10622745       1.09841947      -0.23717840
C       -1.44134388       0.66425043      -0.22925626
C       -1.50247426      -0.83179538      -0.07740285
C       -0.04713164      -1.22270460       0.25447324
H        2.57784366      -0.75204572      -0.73138869
H        2.57566551       1.00828599      -0.46877640
H        2.64322657      -0.11014245       0.89733423
H       -0.31867052       2.39384252       0.20421212
H       -1.44012184       2.53610570       0.64251545
H       -2.18824933       1.17947359      -0.83064362
H       -2.20357883      -1.08246313       0.72261234
H       -1.85367176      -1.37148924      -0.96234293
H        0.33148493      -2.04706058      -0.35804714
H        0.04473911      -1.55870565       1.29351367
16
Frame=9 idx=000480 GeodesicLength=0.6362299977567492 rxn_smarts="[C:1]([C:2]1=[C:3]([H:10])[C:4]([H:11])([H:12])[C:5]([H:13])([H:14])[C:6]1([H:15])[H:16])([H:7])([H:8])[H:9]>>[C:1]([C:2]1=[C:3]=[C:4]([H:12])[C:5]([H:13])([H:14])[C:6]1([H:15])[H:16])([H:7])([H:8])[H:9].[H:10][H:11]"
C        2.20928552       0.05037872      -0.09377785
C        0.72551534       0.04212612      -0.02530808
C       -0.09703077       1.10328098      -0.23249045
C       -1.43882277       0.67436868      -0.22605891
C       -1.50284903      -0.82276763      -0.06707517
C       -0.04639229      -1.22125653       0.25046941
H        2.57727799      -0.75271990      -0.73890813
H        2.58219501       1.00539536      -0.46186237
H        2.64714387      -0.12475956       0.89474512
H       -0.33052080       2.41358266       0.22658867
H       -1.47675984       2.50844398       0.62813157
H       -2.16529790       1.16878040      -0.86955787
H       -2.19423854      -1.06685080       0.74336455
H       -1.86622122      -1.36900762      -0.94286736
H        0.32499632      -2.04233107      -0.37102254
H        0.05171913      -1.56666378       1.28562940
16
Frame=10 idx=000480 GeodesicLength=0.7070446138341699 rxn_smarts="[C:1]([C:2]1=[C:3]([H:10])[C:4]([H:11])([H:12])[C:5]([H:13])([H:14])[C:6]1([H:15])[H:16])([H:7])([H:8])[H:9]>>[C:1]([C:2]1=[C:3]=[C:4]([H:12])[C:5]([H:13])([H:14])[C:6]1([H:15])[H:16])([H:7])([H:8])[H:9].[H:10][H:11]"
C        2.21240522       0.04595304      -0.09411066
C        0.72841009       0.04311531      -0.02414509
C       -0.08800693       1.10802348      -0.22767382
C       -1.43642183       0.68418315      -0.22376990
C       -1.50316459      -0.81396145      -0.05704282
C       -0.04575851      -1.21986790       0.24633934
H        2.57662057      -0.75310598      -0.74637458
H        2.58855592       1.00259515      -0.45464540
H        2.65084363      -0.13941727       0.89218645
H       -0.34380252       2.43341860       0.24901076
H       -1.51116025       2.48185167       0.61241893
H       -2.14214934       1.15756268      -0.90592211
H       -2.18468078      -1.05130107       0.76369900
H       -1.87855563      -1.36682775      -0.92337101
H        0.31851682      -2.03746199      -0.38407727
H        0.05834814      -1.57475966       1.27747818
16
Frame=11 idx=000480 GeodesicLength=0.7778549162956488 rxn_smarts="[C:1]([C:2]1=[C:3]([H:10])[C:4]([H:11])([H:12])[C:5]([H:13])([H:14])[C:6]1([H:15])[H:16])([H:7])([H:8])[H:9]>>[C:1]([C:2]1=[C:3]=[C:4]([H:12])[C:5]([H:13])([H:14])[C:6]1([H:15])[H:16])([H:7])([H:8])[H:9].[H:10][H:11]"
C        2.21539706       0.04159339      -0.09430691
C        0.73120312       0.04409019      -0.02282219
C       -0.07912621       1.11263369      -0.22278349
C       -1.43410773       0.69371669      -0.22222427
C       -1.50341725      -0.80535384      -0.04725705
C       -0.04521097      -1.21854560       0.24208427
H        2.57589276      -0.75324196      -0.75377001
H        2.59477549       0.99985031      -0.44713568
H        2.65434797      -0.15412406       0.88965889
H       -0.35843384       2.45343823       0.27131726
H       -1.54355081       2.45620850       0.59563372
H       -2.11889223       1.14589204      -0.94005076
H       -2.17488199      -1.03580546       0.78366450
H       -1.89070823      -1.36487868      -0.90382429
H        0.31203638      -2.03246093      -0.39723762
H        0.06467648      -1.58301252       1.26905364
16
Frame=12 idx=000480 GeodesicLength=0.8486308110111895 rxn_smarts="[C:1]([C:2]1=[C:3]([H:10])[C:4]([H:11])([H:12])[C:5]([H:13])([H:14])[C:6]1([H:15])[H:16])([H:7])([H:8])[H:9]>>[C:1]([C:2]1=[C:3]=[C:4]([H:12])[C:5]([H:13])([H:14])[C:6]1([H:15])[H:16])([H:7])([H:8])[H:9].[H:10][H:11]"
C        2.21827830       0.03728339      -0.09435480
C        0.73390843       0.04503873      -0.02134623
C       -0.07038268       1.11710264      -0.21787691
C       -1.43186519       0.70298363      -0.22126967
C       -1.50360510      -0.79693297      -0.03768620
C       -0.04473781      -1.21729803       0.23769593
H        2.57512331      -0.75315720      -0.76105725
H        2.60087759       0.99713239      -0.43933654
H        2.65765903      -0.16887074       0.88718258
H       -0.37441667       2.47367585       0.29333305
H       -1.57399738       2.43147095       0.57791301
H       -2.09562027       1.13383297      -0.97205493
H       -2.16482962      -1.02039810       0.80329362
H       -1.90267890      -1.36308956      -0.88423854
H        0.30554996      -2.02732489      -0.41053795
H        0.07073698      -1.59144907       1.26034084
16
Frame=13 idx=000480 GeodesicLength=0.9194305559656517 rxn_smarts="[C:1]([C:2]1=[C:3]([H:10])[C:4]([H:11])([H:12])[C:5]([H:13])([H:14])[C:6]1([H:15])[H:16])([H:7])([H:8])[H:9]>>[C:1]([C:2]1=[C:3]=[C:4]([H:12])[C:5]([H:13])([H:14])[C:6]1([H:15])[H:16])([H:7])([H:8])[H:9].[H:10][H:11]"
C        2.22106964       0.03299936      -0.09426210
C        0.73654432       0.04595309      -0.01973304
C       -0.06174657       1.12142643      -0.21300975
C       -1.42967540       0.71200189      -0.22080402
C       -1.50372210      -0.78868512      -0.02830521
C       -0.04432718      -1.21612150       0.23318142
H        2.57433247      -0.75289506      -0.76822227
H        2.60688750       0.99440729      -0.43127468
H        2.66079212      -0.18365776       0.88475611
H       -0.39169591       2.49417978       0.31498691
H       -1.60268546       2.40755700       0.55944069
H       -2.07239195       1.12144153      -1.00212507
H       -2.15451621      -1.00508507       0.82259942
H       -1.91447138      -1.36140861      -0.86460652
H        0.29905209      -2.02205953      -0.42396889
H        0.07655402      -1.60005374       1.25134700
16
Frame=14 idx=000480 GeodesicLength=0.9902564998589239 rxn_smarts="[C:1]([C:2]1=[C:3]([H:10])[C:4]([H:11])([H:12])[C:5]([H:13])([H:14])[C:6]1([H:15])[H:16])([H:7])([H:8])[H:9]>>[C:1]([C:2]1=[C:3]=[C:4]([H:12])[C:5]([H:13])([H:14])[C:6]1([H:15])[H:16])([H:7])([H:8])[H:9].[H:10][H:11]"
C        2.22378742       0.02872294      -0.09402258
C        0.73912659       0.04682013      -0.01800265
C       -0.05320340       1.12559515      -0.20826001
C       -1.42752070       0.72078451      -0.22073167
C       -1.50376109      -0.78059960      -0.01910445
C       -0.04397176      -1.21501729       0.22853764
H        2.57354802      -0.75249726      -0.77521817
H        2.61283249       0.99163864      -0.42297174
H        2.66374226      -0.19846397       0.88239921
H       -0.41025363       2.51500323       0.33612520
H       -1.62970590       2.38439691       0.54038959
H       -2.04929790       1.10878235      -1.03030570
H       -2.14393400      -0.98989140       0.84158220
H       -1.92606831      -1.35978481      -0.84495361
H        0.29253955      -2.01666848      -0.43753205
H        0.08214035      -1.60882105       1.24206879
16
Frame=15 idx=000480 GeodesicLength=1.0611736686955473 rxn_smarts="[C:1]([C:2]1=[C:3]([H:10])[C:4]([H:11])([H:12])[C:5]([H:13])([H:14])[C:6]1([H:15])[H:16])([H:7])([H:8])[H:9]>>[C:1]([C:2]1=[C:3]=[C:4]([H:12])[C:5]([H:13])([H:14])[C:6]1([H:15])[H:16])([H:7])([H:8])[H:9].[H:10][H:11]"
C        2.22645012       0.02443119      -0.09364346
C        0.74167065       0.04763079      -0.01618711
C       -0.04472614       1.12960555      -0.20370101
C       -1.42538926       0.72934702      -0.22099664
C       -1.50371544      -0.77266943      -0.01008224
C       -0.04366186      -1.21397946       0.22377285
H        2.57279598      -0.75201612      -0.78201621
H        2.61873955       0.98878819      -0.41446572
H        2.66651349      -0.21327526       0.88011925
H       -0.43004444       2.53620583       0.35670608
H       -1.65520239       2.36191217       0.52090599
H       -2.02641578       1.09591766      -1.05666238
H       -2.13308469      -0.97483164       0.86022909
H       -1.93745164      -1.35818404      -0.82530314
H        0.28601366      -2.01116429      -0.45119877
H        0.08750820      -1.61771817       1.23252341
16
Frame=16 idx=000480 GeodesicLength=1.1322172608973058 rxn_smarts="[C:1]([C:2]1=[C:3]([H:10])[C:4]([H:11])([H:12])[C:5]([H:13])([H:14])[C:6]1([H:15])[H:16])([H:7])([H:8])[H:9]>>[C:1]([C:2]1=[C:3]=[C:4]([H:12])[C:5]([H:13])([H:14])[C:6]1([H:15])[H:16])([H:7])([H:8])[H:9].[H:10][H:11]"
C        2.22907509       0.02010301      -0.09312935
C        0.74419053       0.04837467      -0.01432439
C       -0.03629424       1.13345739      -0.19941141
C       -1.42327360       0.73770192      -0.22154612
C       -1.50357759      -0.76488945      -0.00124004
C       -0.04338889      -1.21300328       0.21889236
H        2.57210682      -0.75150756      -0.78857791
H        2.62463444       0.98581807      -0.40579746
H        2.66910425      -0.22806731       0.87793232
H       -0.45103807       2.55784531       0.37669068
H       -1.67927758       2.34003863       0.50113762
H       -2.00383517       1.08290358      -1.08124745
H       -2.12197043      -0.95992561       0.87852355
H       -1.94860099      -1.35657541      -0.80568424
H        0.27947822      -2.00556173      -0.46494358
H        0.09266720      -1.62671224       1.22272542
