12
Frame=0 idx=001137 GeodesicLength=0.0 rxn_smarts="[O:1]=[C:2]([C:3]([C@@:4]1([H:10])[C:5]([H:11])([H:12])[O:6]1)([H:8])[H:9])[H:7]>>[O:1]([C:2](=[C:3]([H:8])[H:9])[H:7])[C@@:4]1([H:10])[C:5]([H:11])([H:12])[O:6]1"
O        1.10444978       0.49885101       0.98298901
C        1.57681568       0.23711940      -0.15943563
C        1.06466285      -0.75263845      -0.96445771
C       -0.77028602      -0.35227709       0.53725684
C       -1.57107358       0.83140038       0.51400494
O       -1.74250564      -0.33552624      -0.36266690
H        2.42482517       0.84907938      -0.50172326
H        0.73712476      -1.67287665      -0.49528797
H        1.31320745      -0.81959239      -2.01653910
H       -0.59572687      -1.16864552       1.21815159
H       -2.37175481       0.97935570       1.22946008
H       -1.16973873       1.70575047       0.01824814
12
Frame=1 idx=001137 GeodesicLength=0.05098096466640749 rxn_smarts="[O:1]=[C:2]([C:3]([C@@:4]1([H:10])[C:5]([H:11])([H:12])[O:6]1)([H:8])[H:9])[H:7]>>[O:1]([C:2](=[C:3]([H:8])[H:9])[H:7])[C@@:4]1([H:10])[C:5]([H:11])([H:12])[O:6]1"
O        1.10508223       0.46722387       0.99774980
C        1.57785016       0.22385735      -0.14956340
C        1.06594738      -0.76437688      -0.95957900
C       -0.76226154      -0.34912919       0.53233911
C       -1.56299049       0.83720499       0.51169577
O       -1.74082956      -0.32289667      -0.36770043
H        2.36817344       0.88968921      -0.52647852
H        0.76856707      -1.69848250      -0.49739163
H        1.31945011      -0.81789742      -2.01151376
H       -0.61814212      -1.16573090       1.22106308
H       -2.36069595       0.98738841       1.23010805
H       -1.16015073       1.71314974       0.01927092
12
Frame=2 idx=001137 GeodesicLength=0.10221623682500663 rxn_smarts="[O:1]=[C:2]([C:3]([C@@:4]1([H:10])[C:5]([H:11])([H:12])[O:6]1)([H:8])[H:9])[H:7]>>[O:1]([C:2](=[C:3]([H:8])[H:9])[H:7])[C@@:4]1([H:10])[C:5]([H:11])([H:12])[O:6]1"
O        1.10546374       0.43685855       1.01104642
C        1.57822500       0.21267456      -0.14120834
C        1.06727954      -0.77564340      -0.95480166
C       -0.75399104      -0.34598406       0.52768633
C       -1.55501230       0.84277294       0.50929366
O       -1.73889336      -0.31075460      -0.37241132
H        2.31174697       0.92420799      -0.54745037
H        0.80251125      -1.72300831      -0.49951758
H        1.32318392      -0.81485009      -2.00701939
H       -0.63949232      -1.16166027       1.22402659
H       -2.34981652       0.99510945       1.23054076
H       -1.15120487       1.72027724       0.01981491
12
Frame=3 idx=001137 GeodesicLength=0.15376415827707487 rxn_smarts="[O:1]=[C:2]([C:3]([C@@:4]1([H:10])[C:5]([H:11])([H:12])[O:6]1)([H:8])[H:9])[H:7]>>[O:1]([C:2](=[C:3]([H:8])[H:9])[H:7])[C@@:4]1([H:10])[C:5]([H:11])([H:12])[O:6]1"
O        1.10562701       0.40717337       1.02338843
C        1.57787320       0.20314807      -0.13395416
C        1.06845774      -0.78648311      -0.95018762
C       -0.74568216      -0.34307974       0.52347276
C       -1.54691109       0.84817576       0.50666522
O       -1.73702995      -0.29933069      -0.37657055
H        2.25528369       0.95429210      -0.56502358
H        0.83868577      -1.74653112      -0.50213395
H        1.32487809      -0.81064887      -2.00300220
H       -0.66008189      -1.15681460       1.22724256
H       -2.33866739       1.00316149       1.23079156
H       -1.14243304       1.72693734       0.01931153
12
Frame=4 idx=001137 GeodesicLength=0.20560277676451838 rxn_smarts="[O:1]=[C:2]([C:3]([C@@:4]1([H:10])[C:5]([H:11])([H:12])[O:6]1)([H:8])[H:9])[H:7]>>[O:1]([C:2](=[C:3]([H:8])[H:9])[H:7])[C@@:4]1([H:10])[C:5]([H:11])([H:12])[O:6]1"
O        1.10550277       0.37808046       1.03487424
C        1.57672233       0.19503057      -0.12756117
C        1.06939531      -0.79688111      -0.94567055
C       -0.73742286      -0.34046677       0.51975494
C       -1.53871935       0.85338042       0.50374042
O       -1.73537216      -0.28874161      -0.38004358
H        2.19949478       0.98020720      -0.57942061
H        0.87711296      -1.76890613      -0.50548205
H        1.32432905      -0.80513117      -1.99935331
H       -0.67997654      -1.15121729       1.23082365
H       -2.32721847       1.01167665       1.23079005
H       -1.13384781       1.73296877       0.01754798
12
Frame=5 idx=001137 GeodesicLength=0.2576750349217558 rxn_smarts="[O:1]=[C:2]([C:3]([C@@:4]1([H:10])[C:5]([H:11])([H:12])[O:6]1)([H:8])[H:9])[H:7]>>[O:1]([C:2](=[C:3]([H:8])[H:9])[H:7])[C@@:4]1([H:10])[C:5]([H:11])([H:12])[O:6]1"
O        1.10505319       0.34975924       1.04552450
C        1.57496927       0.18799649      -0.12181014
C        1.07021557      -0.80709027      -0.94112411
C       -0.72926363      -0.33803562       0.51641577
C       -1.53061263       0.85843391       0.50066810
O       -1.73379782      -0.27866420      -0.38316441
H        2.14477910       1.00225881      -0.59138602
H        0.91783544      -1.79016568      -0.50951053
H        1.32158536      -0.79862820      -1.99594201
H       -0.69933744      -1.14487345       1.23464694
H       -2.31582793       1.02032715       1.23057212
H       -1.12559850       1.73868183       0.01510978
12
Frame=6 idx=001137 GeodesicLength=0.3099946753954443 rxn_smarts="[O:1]=[C:2]([C:3]([C@@:4]1([H:10])[C:5]([H:11])([H:12])[O:6]1)([H:8])[H:9])[H:7]>>[O:1]([C:2](=[C:3]([H:8])[H:9])[H:7])[C@@:4]1([H:10])[C:5]([H:11])([H:12])[O:6]1"
O        1.10427230       0.32208655       1.05543885
C        1.57271164       0.18176268      -0.11650874
C        1.07095826      -0.81725253      -0.93644664
C       -0.72124678      -0.33577112       0.51341551
C       -1.52259198       0.86337474       0.49747868
O       -1.73227413      -0.26894577      -0.38603996
H        2.09103491       1.02092465      -0.60135870
H        0.96091668      -1.81024875      -0.51431730
H        1.31668376      -0.79135324      -1.99259784
H       -0.71829962      -1.13783268       1.23864440
H       -2.30454359       1.02910355       1.23012054
H       -1.11762145       1.74415192       0.01217121
12
Frame=7 idx=001137 GeodesicLength=0.36254477323789197 rxn_smarts="[O:1]=[C:2]([C:3]([C@@:4]1([H:10])[C:5]([H:11])([H:12])[O:6]1)([H:8])[H:9])[H:7]>>[O:1]([C:2](=[C:3]([H:8])[H:9])[H:7])[C@@:4]1([H:10])[C:5]([H:11])([H:12])[O:6]1"
O        1.10314088       0.29497322       1.06477590
C        1.56995688       0.17618488      -0.11148112
C        1.07159898      -0.82740437      -0.93157323
C       -0.71342368      -0.33372672       0.51079930
C       -1.51464469       0.86819465       0.49410294
O       -1.73086689      -0.25968203      -0.38863550
H        2.03857922       1.03647027      -0.60947899
H        1.00642374      -1.82902354      -0.52011221
H        1.30934919      -0.78325098      -1.98924804
H       -0.73693881      -1.13015577       1.24291515
H       -2.29332591       1.03811374       1.22936933
H       -1.10984891       1.74930663       0.00856647
12
Frame=8 idx=001137 GeodesicLength=0.41532848234484765 rxn_smarts="[O:1]=[C:2]([C:3]([C@@:4]1([H:10])[C:5]([H:11])([H:12])[O:6]1)([H:8])[H:9])[H:7]>>[O:1]([C:2](=[C:3]([H:8])[H:9])[H:7])[C@@:4]1([H:10])[C:5]([H:11])([H:12])[O:6]1"
O        1.10163808       0.26819307       1.07375490
C        1.56668646       0.17110608      -0.10649856
C        1.07203593      -0.83745585      -0.92647375
C       -0.70584375      -0.33203324       0.50870599
C       -1.50666778       0.87284765       0.49035869
O       -1.72976122      -0.25120757      -0.39067809
H        1.98765345       1.04921180      -0.61561169
H        1.05431193      -1.84626073      -0.52739391
H        1.29930145      -0.77407419      -1.98578952
H       -0.75529801      -1.12187020       1.24773347
H       -2.28191654       1.04770168       1.22819796
H       -1.10213999       1.75384150       0.00369452
12
Frame=9 idx=001137 GeodesicLength=0.4682927048223676 rxn_smarts="[O:1]=[C:2]([C:3]([C@@:4]1([H:10])[C:5]([H:11])([H:12])[O:6]1)([H:8])[H:9])[H:7]>>[O:1]([C:2](=[C:3]([H:8])[H:9])[H:7])[C@@:4]1([H:10])[C:5]([H:11])([H:12])[O:6]1"
O        1.09974951       0.24201285       1.08212051
C        1.56306062       0.16635171      -0.10169574
C        1.07256679      -0.84788625      -0.92096200
C       -0.69849649      -0.33038268       0.50679895
C       -1.49891845       0.87746959       0.48666049
O       -1.72852891      -0.24260251      -0.39288936
H        1.93800861       1.05919817      -0.62079263
H        1.10488216      -1.86189191      -0.53562161
H        1.28688825      -0.76487724      -1.98192342
H       -0.77352394      -1.11296635       1.25243489
H       -2.27097773       1.05711688       1.22679451
H       -1.09471040       1.75845774      -0.00092460
12
Frame=10 idx=001137 GeodesicLength=0.5214629794658974 rxn_smarts="[O:1]=[C:2]([C:3]([C@@:4]1([H:10])[C:5]([H:11])([H:12])[O:6]1)([H:8])[H:9])[H:7]>>[O:1]([C:2](=[C:3]([H:8])[H:9])[H:7])[C@@:4]1([H:10])[C:5]([H:11])([H:12])[O:6]1"
O        1.09747326       0.21607021       1.09028679
C        1.55902291       0.16182534      -0.09672843
C        1.07296358      -0.85842193      -0.91506132
C       -0.69143899      -0.32905841       0.50539329
C       -1.49116996       0.88195422       0.48261322
O       -1.72754961      -0.23465663      -0.39468927
H        1.89002992       1.06677879      -0.62443459
H        1.15792254      -1.87558670      -0.54570023
H        1.27159908      -0.75500547      -1.97760411
H       -0.79160191      -1.10349841       1.25764136
H       -2.25995961       1.06705989       1.22491167
H       -1.08729121       1.76253910      -0.00662839
12
Frame=11 idx=001137 GeodesicLength=0.5748556650038793 rxn_smarts="[O:1]=[C:2]([C:3]([C@@:4]1([H:10])[C:5]([H:11])([H:12])[O:6]1)([H:8])[H:9])[H:7]>>[O:1]([C:2](=[C:3]([H:8])[H:9])[H:7])[C@@:4]1([H:10])[C:5]([H:11])([H:12])[O:6]1"
O        1.09480715       0.19039570       1.09825250
C        1.55463791       0.15742608      -0.09157289
C        1.07339318      -0.86930545      -0.90862694
C       -0.68466349      -0.32798130       0.50437344
C       -1.48347121       0.88634503       0.47831954
O       -1.72663545      -0.22706040      -0.39637701
H        1.84365747       1.07207823      -0.62694682
H        1.21359756      -1.88713192      -0.55757993
H        1.25324596      -0.74488314      -1.97260089
H       -0.80962676      -1.09348941       1.26313227
H       -2.24906679       1.07729091       1.22255196
H       -1.07987554       1.76631569      -0.01292522
12
Frame=12 idx=001137 GeodesicLength=0.6285132661430725 rxn_smarts="[O:1]=[C:2]([C:3]([C@@:4]1([H:10])[C:5]([H:11])([H:12])[O:6]1)([H:8])[H:9])[H:7]>>[O:1]([C:2](=[C:3]([H:8])[H:9])[H:7])[C@@:4]1([H:10])[C:5]([H:11])([H:12])[O:6]1"
O        1.09174956       0.16495431       1.10604691
C        1.54994605       0.15306079      -0.08618850
C        1.07397031      -0.88070541      -0.90153795
C       -0.67816654      -0.32711257       0.50367251
C       -1.47582317       0.89067028       0.47382548
O       -1.72566545      -0.21962499      -0.39813005
H        1.79878527       1.07522229      -0.62858823
H        1.27200296      -1.89622079      -0.57135850
H        1.23166728      -0.73488112      -1.96665529
H       -0.82766818      -1.08296565       1.26875788
H       -2.23838949       1.08769781       1.21969882
H       -1.07240860       1.76990504      -0.01954308
12
Frame=13 idx=001137 GeodesicLength=0.6825224968072185 rxn_smarts="[O:1]=[C:2]([C:3]([C@@:4]1([H:10])[C:5]([H:11])([H:12])[O:6]1)([H:8])[H:9])[H:7]>>[O:1]([C:2](=[C:3]([H:8])[H:9])[H:7])[C@@:4]1([H:10])[C:5]([H:11])([H:12])[O:6]1"
O        1.08830497       0.13954535       1.11388993
C        1.54497904       0.14862651      -0.08035439
C        1.07468606      -0.89256619      -0.89371502
C       -0.67194510      -0.32657065       0.50342214
C       -1.46809676       0.89486994       0.46893302
O       -1.72472339      -0.21267319      -0.39974902
H        1.75551265       1.07638548      -0.62915000
H        1.33297827      -1.90242948      -0.58766937
H        1.20647544      -0.72485675      -1.95948899
H       -0.84573798      -1.07191181       1.27477492
H       -2.22770195       1.09855896       1.21615750
H       -1.06473124       1.77302183      -0.02705072
12
Frame=14 idx=001137 GeodesicLength=0.7369662920293198 rxn_smarts="[O:1]=[C:2]([C:3]([C@@:4]1([H:10])[C:5]([H:11])([H:12])[O:6]1)([H:8])[H:9])[H:7]>>[O:1]([C:2](=[C:3]([H:8])[H:9])[H:7])[C@@:4]1([H:10])[C:5]([H:11])([H:12])[O:6]1"
O        1.08447231       0.11421056       1.12177719
C        1.53978441       0.14406866      -0.07407263
C        1.07571884      -0.90511200      -0.88501722
C       -0.66597938      -0.32628750       0.50350420
C       -1.46031609       0.89898385       0.46373119
O       -1.72361627      -0.20591752      -0.40152947
H        1.71376304       1.07562364      -0.62895942
H        1.39658506      -1.90534657      -0.60655085
H        1.17745531      -0.71537762      -1.95075881
H       -0.86389381      -1.06037847       1.28092726
H       -2.21716918       1.10964797       1.21193795
H       -1.05680424       1.77588501      -0.03498940
12
Frame=15 idx=001137 GeodesicLength=0.7920307213370918 rxn_smarts="[O:1]=[C:2]([C:3]([C@@:4]1([H:10])[C:5]([H:11])([H:12])[O:6]1)([H:8])[H:9])[H:7]>>[O:1]([C:2](=[C:3]([H:8])[H:9])[H:7])[C@@:4]1([H:10])[C:5]([H:11])([H:12])[O:6]1"
O        1.08025912       0.08881887       1.12988143
C        1.53442125       0.13930468      -0.06716160
C        1.07714971      -0.91836445      -0.87532303
C       -0.66024177      -0.32633697       0.50397798
C       -1.45237102       0.90296866       0.45807677
O       -1.72231608      -0.19952657      -0.40343084
H        1.67356809       1.07304281      -0.62791697
H        1.46264380      -1.90442578      -0.62857750
H        1.14417786      -0.70655231      -1.94003450
H       -0.88215144      -1.04836240       1.28731974
H       -2.20666168       1.12109908       1.20685934
H       -1.04847783       1.77833437      -0.04367082
12
Frame=16 idx=001137 GeodesicLength=0.8479406495058117 rxn_smarts="[O:1]=[C:2]([C:3]([C@@:4]1([H:10])[C:5]([H:11])([H:12])[O:6]1)([H:8])[H:9])[H:7]>>[O:1]([C:2](=[C:3]([H:8])[H:9])[H:7])[C@@:4]1([H:10])[C:5]([H:11])([H:12])[O:6]1"
O        1.07566449       0.06335597       1.13827475
C        1.52894582       0.13428315      -0.05954047
C        1.07914903      -0.93245288      -0.86448514
C       -0.65469467      -0.32671471       0.50479026
C       -1.44421562       0.90681790       0.45194448
O       -1.72067450      -0.19341740      -0.40562130
H        1.63494385       1.06867850      -0.62614378
H        1.53099279      -1.89904594      -0.65410658
H        1.10628052      -0.69885006      -1.92679295
H       -0.90053239      -1.03589473       1.29382293
H       -2.19621001       1.13282520       1.20083210
H       -1.03964932       1.78041501      -0.05297430
