11
Frame=0 idx=005911 GeodesicLength=0.0 rxn_smarts="[N:1](=[C:2]1[O:3][C:4]([H:8])([H:9])[C:5]([H:10])([H:11])[O:6]1)[H:7]>>[C:4](=[C:5]([H:10])[H:11])([H:8])[H:9].[N:1]1([H:7])[C:2](=[O:6])[O:3]1"
N        2.32179559       1.10386553       0.05245345
C        1.33757454       0.23415352      -0.25144978
O        0.33732613       1.06178584      -0.00367787
C       -1.33252919       0.14678429       0.20302091
C       -0.99801904      -1.11599977      -0.20882207
O        1.27872369      -0.85917153      -0.76699132
H        2.14555423       1.56515335       0.93887896
H       -1.85462977       0.80759657      -0.47555444
H       -1.43445122       0.35574641       1.25920191
H       -0.70444424      -1.88318812       0.49457652
H       -1.09690077      -1.41672612      -1.24163632
11
Frame=1 idx=005911 GeodesicLength=0.04405777758455061 rxn_smarts="[N:1](=[C:2]1[O:3][C:4]([H:8])([H:9])[C:5]([H:10])([H:11])[O:6]1)[H:7]>>[C:4](=[C:5]([H:10])[H:11])([H:8])[H:9].[N:1]1([H:7])[C:2](=[O:6])[O:3]1"
N        2.31193435       1.12150512       0.05221298
C        1.33591932       0.26393041      -0.29772481
O        0.33600411       1.08760307      -0.03580364
C       -1.32458421       0.14965607       0.20320982
C       -0.98051763      -1.11588369      -0.20246826
O        1.27701666      -0.85627731      -0.75894306
H        2.14792069       1.50260854       0.97870638
H       -1.86426502       0.79548949      -0.47677158
H       -1.43259620       0.36197754       1.25839246
H       -0.71498147      -1.88474160       0.51074369
H       -1.09185060      -1.42586764      -1.23155397
11
Frame=2 idx=005911 GeodesicLength=0.08798491681431124 rxn_smarts="[N:1](=[C:2]1[O:3][C:4]([H:8])([H:9])[C:5]([H:10])([H:11])[O:6]1)[H:7]>>[C:4](=[C:5]([H:10])[H:11])([H:8])[H:9].[N:1]1([H:7])[C:2](=[O:6])[O:3]1"
N        2.30092119       1.13740128       0.05497637
C        1.33436225       0.29280140      -0.34104956
O        0.33480308       1.11276395      -0.06519664
C       -1.31666987       0.15297724       0.20297573
C       -0.96221448      -1.11546649      -0.19514079
O        1.27447516      -0.84867713      -0.75547323
H        2.14900031       1.43635512       1.01362569
H       -1.87188958       0.78336364      -0.47972569
H       -1.43381622       0.36868300       1.25675013
H       -0.72174091      -1.88395074       0.52788856
H       -1.08723094      -1.43625127      -1.21963057
11
Frame=3 idx=005911 GeodesicLength=0.1315621327323328 rxn_smarts="[N:1](=[C:2]1[O:3][C:4]([H:8])([H:9])[C:5]([H:10])([H:11])[O:6]1)[H:7]>>[C:4](=[C:5]([H:10])[H:11])([H:8])[H:9].[N:1]1([H:7])[C:2](=[O:6])[O:3]1"
N        2.28978610       1.15228647       0.05849761
C        1.33288968       0.31971800      -0.37758173
O        0.33403502       1.13654858      -0.08811089
C       -1.30964177       0.15626133       0.20218391
C       -0.94388435      -1.11500037      -0.18758748
O        1.27076505      -0.83740425      -0.75617639
H        2.15287723       1.37076871       1.04131316
H       -1.87691282       0.77167193      -0.48500835
H       -1.44068272       0.37437342       1.25409348
H       -0.72592027      -1.88160231       0.54513081
H       -1.08331115      -1.44762151      -1.20675415
11
Frame=4 idx=005911 GeodesicLength=0.17509900827121977 rxn_smarts="[N:1](=[C:2]1[O:3][C:4]([H:8])([H:9])[C:5]([H:10])([H:11])[O:6]1)[H:7]>>[C:4](=[C:5]([H:10])[H:11])([H:8])[H:9].[N:1]1([H:7])[C:2](=[O:6])[O:3]1"
N        2.27832770       1.16573740       0.06422008
C        1.33169142       0.34497789      -0.40924537
O        0.33353270       1.15966650      -0.10894624
C       -1.30280612       0.15967393       0.20124592
C       -0.92543461      -1.11430600      -0.17988191
O        1.26640948      -0.82419465      -0.76002393
H        2.15684777       1.30605082       1.06369022
H       -1.88064897       0.76016639      -0.49107338
H       -1.44976306       0.37954385       1.25095952
H       -0.72840285      -1.87815243       0.56222382
H       -1.07975346      -1.45916368      -1.19316873
11
Frame=5 idx=005911 GeodesicLength=0.21910008281878454 rxn_smarts="[N:1](=[C:2]1[O:3][C:4]([H:8])([H:9])[C:5]([H:10])([H:11])[O:6]1)[H:7]>>[C:4](=[C:5]([H:10])[H:11])([H:8])[H:9].[N:1]1([H:7])[C:2](=[O:6])[O:3]1"
N        2.26563131       1.17666653       0.07449022
C        1.33134591       0.36859380      -0.43847457
O        0.33324055       1.18281929      -0.13394379
C       -1.29487254       0.16364024       0.20068646
C       -0.90649413      -1.11308504      -0.17199385
O        1.26199810      -0.81044871      -0.76669006
H        2.15539682       1.24173999       1.08342538
H       -1.88448474       0.74861635      -0.49574304
H       -1.45594083       0.38531158       1.24823832
H       -0.72945486      -1.87381857       0.57895939
H       -1.07636560      -1.47003548      -1.17895447
11
Frame=6 idx=005911 GeodesicLength=0.26393444196532767 rxn_smarts="[N:1](=[C:2]1[O:3][C:4]([H:8])([H:9])[C:5]([H:10])([H:11])[O:6]1)[H:7]>>[C:4](=[C:5]([H:10])[H:11])([H:8])[H:9].[N:1]1([H:7])[C:2](=[O:6])[O:3]1"
N        2.25148986       1.18472087       0.08951026
C        1.33151590       0.39184813      -0.46652854
O        0.33312863       1.20638571      -0.16069825
C       -1.28617065       0.16834995       0.19993625
C       -0.88645235      -1.11124729      -0.16318609
O        1.25662374      -0.79461413      -0.77954918
H        2.14926056       1.17466751       1.10180403
H       -1.88748593       0.73678834      -0.50093829
H       -1.46181467       0.39222927       1.24497385
H       -0.72627597      -1.86711630       0.59709440
H       -1.07381911      -1.48201208      -1.16241843
11
Frame=7 idx=005911 GeodesicLength=0.30849686949006966 rxn_smarts="[N:1](=[C:2]1[O:3][C:4]([H:8])([H:9])[C:5]([H:10])([H:11])[O:6]1)[H:7]>>[C:4](=[C:5]([H:10])[H:11])([H:8])[H:9].[N:1]1([H:7])[C:2](=[O:6])[O:3]1"
N        2.23809662       1.19241103       0.10353726
C        1.33109297       0.41523502      -0.49038788
O        0.33331843       1.22930908      -0.17836801
C       -1.27913816       0.17279888       0.19839456
C       -0.86649742      -1.10935954      -0.15402860
O        1.24973474      -0.77662136      -0.79505188
H        2.14981755       1.10797039       1.11413867
H       -1.88778309       0.72522271      -0.50971074
H       -1.47594764       0.39737482       1.23982561
H       -0.72130341      -1.85898447       0.61608939
H       -1.07139058      -1.49535655      -1.14443838
11
Frame=8 idx=005911 GeodesicLength=0.354395897734039 rxn_smarts="[N:1](=[C:2]1[O:3][C:4]([H:8])([H:9])[C:5]([H:10])([H:11])[O:6]1)[H:7]>>[C:4](=[C:5]([H:10])[H:11])([H:8])[H:9].[N:1]1([H:7])[C:2](=[O:6])[O:3]1"
N        2.22312812       1.19650983       0.12255303
C        1.33067464       0.43963719      -0.51413222
O        0.33354399       1.25339519      -0.19613321
C       -1.27174259       0.17806626       0.19630394
C       -0.84492455      -1.10658906      -0.14351152
O        1.24103476      -0.75548179      -0.81819033
H        2.14636412       1.03578877       1.12529149
H       -1.88680921       0.71309971      -0.52034442
H       -1.49160186       0.40367181       1.23321914
H       -0.71014028      -1.84734469       0.63772752
H       -1.06952714      -1.51075324      -1.12278342
11
Frame=9 idx=005911 GeodesicLength=0.4021676546421633 rxn_smarts="[N:1](=[C:2]1[O:3][C:4]([H:8])([H:9])[C:5]([H:10])([H:11])[O:6]1)[H:7]>>[C:4](=[C:5]([H:10])[H:11])([H:8])[H:9].[N:1]1([H:7])[C:2](=[O:6])[O:3]1"
N        2.20628922       1.19671250       0.14608470
C        1.33022631       0.46514339      -0.53756622
O        0.33381327       1.27872242      -0.21352937
C       -1.26408296       0.18412599       0.19370353
C       -0.82168839      -1.10278254      -0.13175613
O        1.23036807      -0.73128745      -0.84803033
H        2.13901966       0.95808509       1.13440826
H       -1.88446169       0.70045799      -0.53281752
H       -1.50905590       0.41077432       1.22510454
H       -0.69294919      -1.83213211       0.66187610
H       -1.06747840      -1.52781959      -1.09747755
11
Frame=10 idx=005911 GeodesicLength=0.45160286512588127 rxn_smarts="[N:1](=[C:2]1[O:3][C:4]([H:8])([H:9])[C:5]([H:10])([H:11])[O:6]1)[H:7]>>[C:4](=[C:5]([H:10])[H:11])([H:8])[H:9].[N:1]1([H:7])[C:2](=[O:6])[O:3]1"
N        2.18893704       1.19357134       0.17160602
C        1.32872197       0.49260848      -0.55919196
O        0.33414257       1.30502309      -0.22360058
C       -1.25789449       0.19052292       0.18997342
C       -0.79723012      -1.09802325      -0.11853642
O        1.21654363      -0.70283090      -0.88368698
H        2.13461486       0.87459928       1.13827120
H       -1.87926200       0.68741254      -0.54993322
H       -1.53435998       0.41719168       1.21372926
H       -0.66969256      -1.81269410       0.68925710
H       -1.06452093      -1.54738108      -1.06788785
11
Frame=11 idx=005911 GeodesicLength=0.50402960299589 rxn_smarts="[N:1](=[C:2]1[O:3][C:4]([H:8])([H:9])[C:5]([H:10])([H:11])[O:6]1)[H:7]>>[C:4](=[C:5]([H:10])[H:11])([H:8])[H:9].[N:1]1([H:7])[C:2](=[O:6])[O:3]1"
N        2.16809779       1.18582882       0.20156703
C        1.32801652       0.51993031      -0.58051162
O        0.33463211       1.33230667      -0.23785486
C       -1.25032122       0.19775090       0.18664712
C       -0.77116598      -1.09195716      -0.10490358
O        1.20164420      -0.67330668      -0.92194511
H        2.12197414       0.78834263       1.13963798
H       -1.87368060       0.67411293      -0.56577663
H       -1.55658358       0.42398961       1.20235752
H       -0.64288238      -1.79093972       0.71711411
H       -1.05973100      -1.56605831      -1.03633196
11
Frame=12 idx=005911 GeodesicLength=0.5583329956133833 rxn_smarts="[N:1](=[C:2]1[O:3][C:4]([H:8])([H:9])[C:5]([H:10])([H:11])[O:6]1)[H:7]>>[C:4](=[C:5]([H:10])[H:11])([H:8])[H:9].[N:1]1([H:7])[C:2](=[O:6])[O:3]1"
N        2.14547963       1.17513528       0.23251752
C        1.32750416       0.54689700      -0.59966078
O        0.33543584       1.35970829      -0.25064947
C       -1.24284760       0.20520663       0.18343741
C       -0.74461398      -1.08503553      -0.09114191
O        1.18550684      -0.64310516      -0.95980518
H        2.10840220       0.70225071       1.13588460
H       -1.86680070       0.66097109      -0.58193882
H       -1.58015459       0.42950430       1.19008696
H       -0.61501761      -1.76773000       0.74497830
H       -1.05289420      -1.58380260      -1.00370862
11
Frame=13 idx=005911 GeodesicLength=0.6140793102530133 rxn_smarts="[N:1](=[C:2]1[O:3][C:4]([H:8])([H:9])[C:5]([H:10])([H:11])[O:6]1)[H:7]>>[C:4](=[C:5]([H:10])[H:11])([H:8])[H:9].[N:1]1([H:7])[C:2](=[O:6])[O:3]1"
N        2.12144601       1.16219336       0.26349133
C        1.32717570       0.57312202      -0.61627045
O        0.33660354       1.38686049      -0.26148035
C       -1.23571037       0.21270382       0.18042875
C       -0.71806949      -1.07746844      -0.07744312
O        1.16841671      -0.61285845      -0.99578303
H        2.09569973       0.61801207       1.12676617
H       -1.85867035       0.64814895      -0.59826880
H       -1.60526200       0.43328792       1.17692594
H       -0.58756277      -1.74376146       0.77239452
H       -1.04406671      -1.60024027      -0.97076097
11
Frame=14 idx=005911 GeodesicLength=0.6713000846118142 rxn_smarts="[N:1](=[C:2]1[O:3][C:4]([H:8])([H:9])[C:5]([H:10])([H:11])[O:6]1)[H:7]>>[C:4](=[C:5]([H:10])[H:11])([H:8])[H:9].[N:1]1([H:7])[C:2](=[O:6])[O:3]1"
N        2.09562954       1.14732732       0.29443380
C        1.32729692       0.59816711      -0.63054677
O        0.33818600       1.41357653      -0.27169269
C       -1.22860246       0.22023622       0.17784369
C       -0.69170656      -1.06937966      -0.06400011
O        1.15087872      -0.58325811      -1.02919429
H        2.08336517       0.53679227       1.11303824
H       -1.84966485       0.63574181      -0.61395422
H       -1.63051906       0.43540769       1.16335094
H       -0.56138653      -1.71968870       0.79888991
H       -1.03347690      -1.61492248      -0.93816851
11
Frame=15 idx=005911 GeodesicLength=0.7296056215528791 rxn_smarts="[N:1](=[C:2]1[O:3][C:4]([H:8])([H:9])[C:5]([H:10])([H:11])[O:6]1)[H:7]>>[C:4](=[C:5]([H:10])[H:11])([H:8])[H:9].[N:1]1([H:7])[C:2](=[O:6])[O:3]1"
N        2.06820402       1.13107604       0.32491255
C        1.32787742       0.62180061      -0.64245827
O        0.34020807       1.43963666      -0.28121566
C       -1.22162717       0.22771716       0.17571967
C       -0.66585420      -1.06096171      -0.05090300
O        1.13315964      -0.55472052      -1.05949917
H        2.07261866       0.45962870       1.09506896
H       -1.83990268       0.62384950      -0.62888851
H       -1.65588277       0.43576433       1.14940047
H       -0.53730279      -1.69602792       0.82426447
H       -1.02149821      -1.62776285      -0.90640149
11
Frame=16 idx=005911 GeodesicLength=0.7886261534360628 rxn_smarts="[N:1](=[C:2]1[O:3][C:4]([H:8])([H:9])[C:5]([H:10])([H:11])[O:6]1)[H:7]>>[C:4](=[C:5]([H:10])[H:11])([H:8])[H:9].[N:1]1([H:7])[C:2](=[O:6])[O:3]1"
N        2.03922332       1.11389441       0.35472488
C        1.32894183       0.64383981      -0.65208365
O        0.34267144       1.46487665      -0.29023998
C       -1.21482194       0.23509575       0.17409488
C       -0.64077828      -1.05239161      -0.03822766
O        1.11553692      -0.52761201      -1.08639943
H        2.06440569       0.38733770       1.07339020
H       -1.82956427       0.61254824      -0.64291357
H       -1.68112228       0.43438228       1.13516323
H       -0.51593391      -1.67324905       0.84835051
H       -1.00855853      -1.63872217      -0.87585940
