19
Frame=0 idx=011013 GeodesicLength=0.0 rxn_smarts="[C:1]([C@@:2]1([H:11])[C:3]([H:12])([H:13])[O:4][C@:5]([C:6]([H:15])([H:16])[H:17])([H:14])[C:7]1([H:18])[H:19])([H:8])([H:9])[H:10]>>[C:1]([C:2]1([C:6]([H:15])([H:16])[H:17])[C:3]([H:12])([H:13])[O:4][C:5]([H:14])=[C:7]1[H:18])([H:8])([H:9])[H:10].[H:11][H:19]"
C       -1.61047334       0.93719872      -0.16062567
C       -0.45738428      -0.01720598       0.11100894
C       -0.21464595      -1.34337676      -0.60865892
O        1.05307917      -1.79859637      -0.01911879
C        1.48619370      -0.90741529       0.81029108
C        0.88706545       0.90429060      -1.03825173
C        0.49427983       0.02493699       1.28452535
H       -2.47045734       0.39515792      -0.55286730
H       -1.35012167       1.72330266      -0.87464026
H       -1.93505827       1.40264076       0.76877456
H       -1.42304172      -0.74403814       1.19846985
H       -0.93768126      -2.12761444      -0.41565910
H       -0.03453147      -1.24653531      -1.68197417
H        2.44533847      -1.14271109       1.26138919
H        1.88837479       0.52818343      -1.25763253
H        0.96750992       1.89683557      -0.59369153
H        0.33109407       0.96059353      -1.97350731
H        0.86993852       1.00723087       1.55928707
H        0.01052131      -0.45287766       2.18288134
19
Frame=1 idx=011013 GeodesicLength=0.12837277533324631 rxn_smarts="[C:1]([C@@:2]1([H:11])[C:3]([H:12])([H:13])[O:4][C@:5]([C:6]([H:15])([H:16])[H:17])([H:14])[C:7]1([H:18])[H:19])([H:8])([H:9])[H:10]>>[C:1]([C:2]1([C:6]([H:15])([H:16])[H:17])[C:3]([H:12])([H:13])[O:4][C:5]([H:14])=[C:7]1[H:18])([H:8])([H:9])[H:10].[H:11][H:19]"
C       -1.62100684       0.92896906      -0.15926760
C       -0.46488592      -0.01891921       0.11172311
C       -0.22267279      -1.34570245      -0.60567988
O        1.05188549      -1.79199495      -0.03081042
C        1.49323819      -0.88581902       0.78793598
C        0.91551185       0.90048024      -1.03553422
C        0.49670783       0.03097760       1.27730575
H       -2.47374228       0.38968396      -0.57103170
H       -1.35442545       1.72956162      -0.85444255
H       -1.96130497       1.37944963       0.77203474
H       -1.41442984      -0.74861081       1.23822778
H       -0.94534581      -2.12841508      -0.40275178
H       -0.06222004      -1.25138426      -1.68233592
H        2.44144859      -1.13240196       1.25566534
H        1.91094696       0.52154350      -1.27559874
H        1.01077478       1.89465995      -0.59695505
H        0.35894637       0.97213760      -1.96980385
H        0.84998733       1.01958523       1.55818385
H       -0.00941344      -0.46380065       2.18313515
19
Frame=2 idx=011013 GeodesicLength=0.25667115603640567 rxn_smarts="[C:1]([C@@:2]1([H:11])[C:3]([H:12])([H:13])[O:4][C@:5]([C:6]([H:15])([H:16])[H:17])([H:14])[C:7]1([H:18])[H:19])([H:8])([H:9])[H:10]>>[C:1]([C:2]1([C:6]([H:15])([H:16])[H:17])[C:3]([H:12])([H:13])[O:4][C:5]([H:14])=[C:7]1[H:18])([H:8])([H:9])[H:10].[H:11][H:19]"
C       -1.63193905       0.92052294      -0.15776181
C       -0.47245750      -0.02051785       0.11244912
C       -0.23059687      -1.34781875      -0.60279160
O        1.05030325      -1.78545578      -0.04234263
C        1.49946110      -0.86477342       0.76617212
C        0.94430739       0.89660955      -1.03301381
C        0.49910342       0.03743165       1.26978111
H       -2.47677554       0.38449899      -0.58992362
H       -1.35954474       1.73596103      -0.83299094
H       -1.98827400       1.35489653       0.77534107
H       -1.40536071      -0.75326394       1.27766564
H       -0.95295072      -2.12894421      -0.39029036
H       -0.08948698      -1.25600173      -1.68237839
H        2.43706559      -1.12170541       1.24941512
H        1.93341334       0.51461895      -1.29352158
H        1.05526868       1.89202652      -0.60026940
H        0.38685285       0.98377971      -1.96584479
H        0.83048977       1.03190004       1.55590586
H       -0.02887929      -0.47376480       2.18439889
19
Frame=3 idx=011013 GeodesicLength=0.3849226731988298 rxn_smarts="[C:1]([C@@:2]1([H:11])[C:3]([H:12])([H:13])[O:4][C@:5]([C:6]([H:15])([H:16])[H:17])([H:14])[C:7]1([H:18])[H:19])([H:8])([H:9])[H:10]>>[C:1]([C:2]1([C:6]([H:15])([H:16])[H:17])[C:3]([H:12])([H:13])[O:4][C:5]([H:14])=[C:7]1[H:18])([H:8])([H:9])[H:10].[H:11][H:19]"
C       -1.64328034       0.91185638      -0.15611353
C       -0.48010932      -0.02199656       0.11317708
C       -0.23843376      -1.34971644      -0.60000925
O        1.04834730      -1.77896648      -0.05374817
C        1.50492012      -0.84424522       0.74496496
C        0.97347070       0.89269861      -1.03069776
C        0.50145653       0.04433455       1.26191210
H       -2.47954990       0.37964890      -0.60947808
H       -1.36557881       1.74243246      -0.81028889
H       -2.01592009       1.32896624       0.77864207
H       -1.39588428      -0.75801501       1.31675575
H       -0.96050707      -2.12920383      -0.37827085
H       -0.11636805      -1.26039133      -1.68213778
H        2.43223880      -1.11070627       1.24272122
H        1.95577604       0.50738475      -1.31139068
H        1.10101665       1.88891179      -0.60364090
H        0.41485367       0.99556039      -1.96163529
H        0.81140851       1.04425272       1.55246626
H       -0.04785670      -0.48280564       2.18677175
19
Frame=4 idx=011013 GeodesicLength=0.5131439527726596 rxn_smarts="[C:1]([C@@:2]1([H:11])[C:3]([H:12])([H:13])[O:4][C@:5]([C:6]([H:15])([H:16])[H:17])([H:14])[C:7]1([H:18])[H:19])([H:8])([H:9])[H:10]>>[C:1]([C:2]1([C:6]([H:15])([H:16])[H:17])[C:3]([H:12])([H:13])[O:4][C:5]([H:14])=[C:7]1[H:18])([H:8])([H:9])[H:10].[H:11][H:19]"
C       -1.65504071       0.90296427      -0.15433153
C       -0.48785118      -0.02334851       0.11389224
C       -0.24619707      -1.35138613      -0.59734953
O        1.04603283      -1.77251129      -0.06506092
C        1.50966894      -0.82419921       0.72427902
C        1.00302542       0.88876783      -1.02859317
C        0.50375605       0.05172365       1.25365731
H       -2.48206687       0.37517632      -0.62961290
H       -1.37263720       1.74890050      -0.78633995
H       -2.04419043       1.30164270       0.78188652
H       -1.38604007      -0.76287370       1.35547562
H       -0.96802299      -2.12919599      -0.36669092
H       -0.14289579      -1.26455485      -1.68165142
H        2.42699013      -1.09948800       1.23567837
H        1.97803927       0.49981682      -1.32920126
H        1.14804801       1.88528866      -0.60707261
H        0.44299422       1.00752195      -1.95717791
H        0.79270617       1.05671674       1.54786930
H       -0.06631871      -0.49096177       2.19034375
19
Frame=5 idx=011013 GeodesicLength=0.6413574961059139 rxn_smarts="[C:1]([C@@:2]1([H:11])[C:3]([H:12])([H:13])[O:4][C@:5]([C:6]([H:15])([H:16])[H:17])([H:14])[C:7]1([H:18])[H:19])([H:8])([H:9])[H:10]>>[C:1]([C:2]1([C:6]([H:15])([H:16])[H:17])[C:3]([H:12])([H:13])[O:4][C:5]([H:14])=[C:7]1[H:18])([H:8])([H:9])[H:10].[H:11][H:19]"
C       -1.66722895       0.89384190      -0.15242178
C       -0.49569131      -0.02456684       0.11458187
C       -0.25389900      -1.35281755      -0.59482937
O        1.04337597      -1.76607121      -0.07631726
C        1.51375938      -0.80460081       0.70407810
C        1.03299731       0.88483541      -1.02670503
C        0.50599550       0.05963719       1.24497165
H       -2.48433655       0.37111717      -0.65022809
H       -1.38082821       1.75528388      -0.76116231
H       -2.07302623       1.27291721       0.78502447
H       -1.37586086      -0.76784545       1.39380724
H       -0.97550165      -2.12892208      -0.35554700
H       -0.16910098      -1.26848955      -1.68095461
H        2.42132121      -1.08813096       1.22838603
H        2.00021191       0.49189477      -1.34695173
H        1.19638884       1.88112814      -0.61056979
H        0.47132172       1.01970712      -1.95246986
H        0.77434794       1.06936332       1.54211607
H       -0.08424604      -0.49828165       2.19519140
19
Frame=6 idx=011013 GeodesicLength=0.7695809203962861 rxn_smarts="[C:1]([C@@:2]1([H:11])[C:3]([H:12])([H:13])[O:4][C@:5]([C:6]([H:15])([H:16])[H:17])([H:14])[C:7]1([H:18])[H:19])([H:8])([H:9])[H:10]>>[C:1]([C:2]1([C:6]([H:15])([H:16])[H:17])[C:3]([H:12])([H:13])[O:4][C:5]([H:14])=[C:7]1[H:18])([H:8])([H:9])[H:10].[H:11][H:19]"
C       -1.67985738       0.88448207      -0.15038243
C       -0.50363710      -0.02564099       0.11522929
C       -0.26155118      -1.35399821      -0.59246715
O        1.04039145      -1.75962490      -0.08755477
C        1.51723860      -0.78541583       0.68432700
C        1.06341996       0.88091675      -1.02503644
C        0.50816677       0.06811453       1.23581024
H       -2.48637948       0.36750095      -0.67121164
H       -1.39026867       1.76150089      -0.73479336
H       -2.10235852       1.24278447       0.78801003
H       -1.36537415      -0.77293364       1.43173345
H       -0.98294628      -2.12838201      -0.34483759
H       -0.19501500      -1.27219004      -1.68008138
H        2.41521811      -1.07670772       1.22093829
H        2.02230279       0.48360611      -1.36463611
H        1.24606241       1.87639575      -0.61412803
H        0.49989812       1.03215015      -1.94750982
H        0.75630293       1.08225617       1.53519924
H       -0.10161339      -0.50481450       2.20139118
19
Frame=7 idx=011013 GeodesicLength=0.8978184739778945 rxn_smarts="[C:1]([C@@:2]1([H:11])[C:3]([H:12])([H:13])[O:4][C@:5]([C:6]([H:15])([H:16])[H:17])([H:14])[C:7]1([H:18])[H:19])([H:8])([H:9])[H:10]>>[C:1]([C:2]1([C:6]([H:15])([H:16])[H:17])[C:3]([H:12])([H:13])[O:4][C:5]([H:14])=[C:7]1[H:18])([H:8])([H:9])[H:10].[H:11][H:19]"
C       -1.69294075       0.87487858      -0.14821132
C       -0.51169778      -0.02655982       0.11581790
C       -0.26916505      -1.35491390      -0.59028384
O        1.03709080      -1.75314765      -0.09881208
C        1.52015009      -0.76660707       0.66499061
C        1.09433351       0.87702002      -1.02358709
C        0.51025924       0.07719391       1.22612297
H       -2.48822821       0.36434815      -0.69243990
H       -1.40108560       1.76746539      -0.70727032
H       -2.13211782       1.21123423       0.79080113
H       -1.35459460      -0.77813345       1.46924258
H       -0.99035778      -2.12757390      -0.33456385
H       -0.22066678      -1.27564603      -1.67906710
H        2.40865175      -1.06528065       1.21343038
H        2.04433313       0.47492806      -1.38225915
H        1.29710598       1.87104480      -0.61773408
H        0.52878896       1.04489289      -1.94228556
H        0.73853524       1.09545907       1.52710435
H       -0.11839431      -0.51060264       2.20900435
19
Frame=8 idx=011013 GeodesicLength=1.026085191656419 rxn_smarts="[C:1]([C@@:2]1([H:11])[C:3]([H:12])([H:13])[O:4][C@:5]([C:6]([H:15])([H:16])[H:17])([H:14])[C:7]1([H:18])[H:19])([H:8])([H:9])[H:10]>>[C:1]([C:2]1([C:6]([H:15])([H:16])[H:17])[C:3]([H:12])([H:13])[O:4][C:5]([H:14])=[C:7]1[H:18])([H:8])([H:9])[H:10].[H:11][H:19]"
C       -1.70649592       0.86501871      -0.14590366
C       -0.51988427      -0.02731304       0.11632942
C       -0.27675175      -1.35555222      -0.58830008
O        1.03348641      -1.74661360      -0.11012750
C        1.52252810      -0.74813956       0.64603903
C        1.12578233       0.87314850      -1.02235327
C        0.51226154       0.08691546       1.21585738
H       -2.48991934       0.36168679      -0.71379379
H       -1.41340352       1.77309518      -0.67862493
H       -2.16223307       1.17825717       0.79336375
H       -1.34352977      -0.78343827       1.50632613
H       -0.99773362      -2.12649945      -0.32472851
H       -0.24608477      -1.27884850      -1.67794503
H        2.40158905      -1.05389136       1.20593889
H        2.06632065       0.46584266      -1.39981891
H        1.34955877       1.86501974      -0.62137418
H        0.55806834       1.05796880      -1.93678265
H        0.72101394       1.10903140       1.51780740
H       -0.13457310      -0.51568842       2.21809050
19
Frame=9 idx=011013 GeodesicLength=1.1543484958971784 rxn_smarts="[C:1]([C@@:2]1([H:11])[C:3]([H:12])([H:13])[O:4][C@:5]([C:6]([H:15])([H:16])[H:17])([H:14])[C:7]1([H:18])[H:19])([H:8])([H:9])[H:10]>>[C:1]([C:2]1([C:6]([H:15])([H:16])[H:17])[C:3]([H:12])([H:13])[O:4][C:5]([H:14])=[C:7]1[H:18])([H:8])([H:9])[H:10].[H:11][H:19]"
C       -1.72058784       0.85487005      -0.14343640
C       -0.52822080      -0.02784816       0.11669320
C       -0.28432542      -1.35586696      -0.58657486
O        1.02957599      -1.73996114      -0.12154987
C        1.52432959      -0.72996438       0.62746867
C        1.15787683       0.86927300      -1.02132904
C        0.51412857       0.09731564       1.20493056
H       -2.49159321       0.35945382      -0.73505363
H       -1.42738234       1.77824862      -0.64888519
H       -2.19262664       1.14378575       0.79570872
H       -1.33208604      -0.78878090       1.54300482
H       -1.00508931      -2.12511679      -0.31538800
H       -0.27127462      -1.28174160      -1.67679689
H        2.39394294      -1.04252610       1.19854963
H        2.08834574       0.45624359      -1.41736479
H        1.40353596       1.85818495      -0.62495044
H        0.58789025       1.07143606      -1.93097075
H        0.70364991       1.12302347       1.50725842
H       -0.15008955      -0.52002893       2.22868585
19
Frame=10 idx=011013 GeodesicLength=1.2826582127714465 rxn_smarts="[C:1]([C@@:2]1([H:11])[C:3]([H:12])([H:13])[O:4][C@:5]([C:6]([H:15])([H:16])[H:17])([H:14])[C:7]1([H:18])[H:19])([H:8])([H:9])[H:10]>>[C:1]([C:2]1([C:6]([H:15])([H:16])[H:17])[C:3]([H:12])([H:13])[O:4][C:5]([H:14])=[C:7]1[H:18])([H:8])([H:9])[H:10].[H:11][H:19]"
C       -1.73519034       0.84443550      -0.14081242
C       -0.53670166      -0.02818697       0.11693132
C       -0.29189213      -1.35587306      -0.58509594
O        1.02538247      -1.73319583      -0.13310997
C        1.52566376      -0.71206086       0.60922034
C        1.19061010       0.86541822      -1.02050411
C        0.51588048       0.10844405       1.19331415
H       -2.49323151       0.35771390      -0.75617617
H       -1.44309335       1.78289123      -0.61808410
H       -2.22321491       1.10787187       0.79778302
H       -1.32034176      -0.79418745       1.57924696
H       -1.01240639      -2.12346155      -0.30649393
H       -0.29628650      -1.28435710      -1.67560909
H        2.38570822      -1.03127352       1.19133385
H        2.11037659       0.44620417      -1.43485401
H        1.45899662       1.85054346      -0.62851254
H        0.61827179       1.08530583      -1.92482829
H        0.68647294       1.13750895       1.49542625
H       -0.16500442      -0.52374085       2.24082469
19
Frame=11 idx=011013 GeodesicLength=1.411019568830277 rxn_smarts="[C:1]([C@@:2]1([H:11])[C:3]([H:12])([H:13])[O:4][C@:5]([C:6]([H:15])([H:16])[H:17])([H:14])[C:7]1([H:18])[H:19])([H:8])([H:9])[H:10]>>[C:1]([C:2]1([C:6]([H:15])([H:16])[H:17])[C:3]([H:12])([H:13])[O:4][C:5]([H:14])=[C:7]1[H:18])([H:8])([H:9])[H:10].[H:11][H:19]"
C       -1.75032559       0.83369750      -0.13801238
C       -0.54533567      -0.02831035       0.11702062
C       -0.29946282      -1.35555150      -0.58388579
O        1.02091263      -1.72628743      -0.14484553
C        1.52655804      -0.69439667       0.59126682
C        1.22404229       0.86157166      -1.01986799
C        0.51750478       0.12035083       1.18094948
H       -2.49491195       0.35645349      -0.77701966
H       -1.46063448       1.78694241      -0.58623655
H       -2.25392157       1.07050642       0.79958168
H       -1.30829126      -0.79964353       1.61504418
H       -1.01968033      -2.12152583      -0.29805219
H       -0.32114650      -1.28667641      -1.67441341
H        2.37683488      -1.02014693       1.18434937
H        2.13245467       0.43570768      -1.45227830
H        1.51597578       1.84202557      -0.63205422
H        0.64931215       1.09959518      -1.91832740
H        0.66945581       1.15255137       1.48226239
H       -0.17934087      -0.52686347       2.25451887
19
Frame=12 idx=011013 GeodesicLength=1.5394327327745445 rxn_smarts="[C:1]([C@@:2]1([H:11])[C:3]([H:12])([H:13])[O:4][C@:5]([C:6]([H:15])([H:16])[H:17])([H:14])[C:7]1([H:18])[H:19])([H:8])([H:9])[H:10]>>[C:1]([C:2]1([C:6]([H:15])([H:16])[H:17])[C:3]([H:12])([H:13])[O:4][C:5]([H:14])=[C:7]1[H:18])([H:8])([H:9])[H:10].[H:11][H:19]"
C       -1.76602001       0.82263362      -0.13501719
C       -0.55413316      -0.02819813       0.11692968
C       -0.30704713      -1.35488380      -0.58297169
O        1.01617285      -1.71920462      -0.15679605
C        1.52703536      -0.67693694       0.57358031
C        1.25824013       0.85771543      -1.01940485
C        0.51898422       0.13308369       1.16777223
H       -2.49672434       0.35565287      -0.79744975
H       -1.48010341       1.79032626      -0.55335537
H       -2.28466628       1.03167967       0.80110692
H       -1.29590755      -0.80512151       1.65039549
H       -1.02690736      -2.11930505      -0.29007182
H       -0.34588130      -1.28868389      -1.67324378
H        2.36726649      -1.00914993       1.17764810
H        2.15461473       0.42473570      -1.46963440
H        1.57450904       1.83254447      -0.63554287
H        0.68111921       1.11432411      -1.91143133
H        0.65256524       1.16821280       1.46770454
H       -0.19311672      -0.52942474       2.26978183
19
Frame=13 idx=011013 GeodesicLength=1.6678951983650476 rxn_smarts="[C:1]([C@@:2]1([H:11])[C:3]([H:12])([H:13])[O:4][C@:5]([C:6]([H:15])([H:16])[H:17])([H:14])[C:7]1([H:18])[H:19])([H:8])([H:9])[H:10]>>[C:1]([C:2]1([C:6]([H:15])([H:16])[H:17])[C:3]([H:12])([H:13])[O:4][C:5]([H:14])=[C:7]1[H:18])([H:8])([H:9])[H:10].[H:11][H:19]"
C       -1.78230054       0.81122311      -0.13180355
C       -0.56310629      -0.02782964       0.11662906
C       -0.31465668      -1.35385020      -0.58238022
O        1.01116726      -1.71191410      -0.16900232
C        1.52711632      -0.65964742       0.55613348
C        1.29326827       0.85382714      -1.01909516
C        0.52030082       0.14669396       1.15371567
H       -2.49876383       0.35528865      -0.81734051
H       -1.50158932       1.79296335      -0.51942918
H       -2.31537603       0.99136451       0.80235511
H       -1.28315097      -0.81058946       1.68530556
H       -1.03408214      -2.11679247      -0.28256017
H       -0.37052037      -1.29036081      -1.67213346
H        2.35694363      -0.99828107       1.17127914
H        2.17689493       0.41327110      -1.48692061
H        1.63464253       1.82200485      -0.63895034
H        0.71380318       1.12951385      -1.90409563
H        0.63577170       1.18455851       1.45167967
H       -0.20636246      -0.53144384       2.28661348
19
Frame=14 idx=011013 GeodesicLength=1.7963943795995916 rxn_smarts="[C:1]([C@@:2]1([H:11])[C:3]([H:12])([H:13])[O:4][C@:5]([C:6]([H:15])([H:16])[H:17])([H:14])[C:7]1([H:18])[H:19])([H:8])([H:9])[H:10]>>[C:1]([C:2]1([C:6]([H:15])([H:16])[H:17])[C:3]([H:12])([H:13])[O:4][C:5]([H:14])=[C:7]1[H:18])([H:8])([H:9])[H:10].[H:11][H:19]"
C       -1.79919679       0.79943890      -0.12833619
C       -0.57226999      -0.02718279       0.11608686
C       -0.32230322      -1.35242769      -0.58214481
O        1.00589875      -1.70437913      -0.18150977
C        1.52681641      -0.64249019       0.53889635
C        1.32920074       0.84987258      -1.01891741
C        0.52143388       0.16123441       1.13870003
H       -2.50113211       0.35535033      -0.83656646
H       -1.52518121       1.79476073      -0.48444509
H       -2.34597455       0.94952872       0.80335186
H       -1.26997807      -0.81601789       1.71977089
H       -1.04120060      -2.11398112      -0.27553496
H       -0.39509156      -1.29168344      -1.67111891
H        2.34579370      -0.98752736       1.16528607
H        2.19934500       0.40129706      -1.50412608
H        1.69639780       1.81030442      -0.64222602
H        0.74749639       1.14516250      -1.89627853
H        0.61904319       1.20165649       1.43409265
H       -0.21909775      -0.53291652       2.30501952
19
Frame=15 idx=011013 GeodesicLength=1.9249232562184515 rxn_smarts="[C:1]([C@@:2]1([H:11])[C:3]([H:12])([H:13])[O:4][C@:5]([C:6]([H:15])([H:16])[H:17])([H:14])[C:7]1([H:18])[H:19])([H:8])([H:9])[H:10]>>[C:1]([C:2]1([C:6]([H:15])([H:16])[H:17])[C:3]([H:12])([H:13])[O:4][C:5]([H:14])=[C:7]1[H:18])([H:8])([H:9])[H:10].[H:11][H:19]"
C       -1.81674046       0.78725026      -0.12457845
C       -0.58164191      -0.02623558       0.11526794
C       -0.32999992      -1.35059391      -0.58229936
O        1.00036857      -1.69656011      -0.19436679
C        1.52614684      -0.62542626       0.52183902
C        1.36610709       0.84581168      -1.01884258
C        0.52235853       0.17675939       1.12264180
H       -2.50393932       0.35582714      -0.85500564
H       -1.55096162       1.79562264      -0.44837478
H       -2.37637984       0.90613316       0.80412087
H       -1.25632507      -0.82136756       1.75379716
H       -1.04825741      -2.11086431      -0.26901416
H       -0.41962526      -1.29262887      -1.67023722
H        2.33373864      -0.97686845       1.15971111
H        2.22202190       0.38880277      -1.52124401
H        1.75979976       1.79733000      -0.64531098
H        0.78233587       1.16126732      -1.88793182
H        0.60234540       1.21957858       1.41483186
H       -0.23135181      -0.53383787       2.32499601
19
Frame=16 idx=011013 GeodesicLength=2.0534765678120865 rxn_smarts="[C:1]([C@@:2]1([H:11])[C:3]([H:12])([H:13])[O:4][C@:5]([C:6]([H:15])([H:16])[H:17])([H:14])[C:7]1([H:18])[H:19])([H:8])([H:9])[H:10]>>[C:1]([C:2]1([C:6]([H:15])([H:16])[H:17])[C:3]([H:12])([H:13])[O:4][C:5]([H:14])=[C:7]1[H:18])([H:8])([H:9])[H:10].[H:11][H:19]"
C       -1.83496358       0.77462440      -0.12048868
C       -0.59124202      -0.02496496       0.11413712
C       -0.33776085      -1.34832588      -0.58287802
O        0.99457642      -1.68841620      -0.20762034
C        1.52511542      -0.60841377       0.50492942
C        1.40405818       0.84159761      -1.01884187
C        0.52304911       0.19333075       1.10544711
H       -2.50728969       0.35672293      -0.87255799
H       -1.57900392       1.79544083      -0.41115383
H       -2.40651701       0.86111653       0.80468242
H       -1.24212017      -0.82659182       1.78738449
H       -1.05524629      -2.10743398      -0.26301286
H       -0.44415404      -1.29317403      -1.66952483
H        2.32069586      -0.96627049       1.15458904
H        2.24497103       0.37577646      -1.53826779
H        1.82487491       1.78294765      -0.64812858
H        0.81846370       1.17782405      -1.87899947
H        0.58564260       1.23840528       1.39376126
H       -0.24314967      -0.53419536       2.34654338
