13
Frame=0 idx=008468 GeodesicLength=0.0 rxn_smarts="[N:1]([c:2]1[c:3]([O:4][H:10])[c:5]([H:11])[c:6]([H:12])[n:7]1[H:13])([H:8])[H:9]>>[N:1]([C@:2]1([H:13])[C:3]([O:4][H:10])=[C:5]([H:11])[C:6]([H:12])=[N:7]1)([H:8])[H:9]"
N        1.87319185       0.96129652      -0.21501456
C        0.55140899       0.53857152       0.01011889
C        0.03046614      -0.75464994       0.18734533
O        0.82865497      -1.81389309       0.46527835
C       -1.34141504      -0.68852320      -0.00011078
C       -1.63703225       0.63990963      -0.29853941
N       -0.54467081       1.42121055      -0.34119703
H        2.10452285       0.95624515      -1.19902301
H        2.53180357       0.38561308       0.28800627
H        0.28901017      -2.58942791       0.62722571
H       -2.05110388      -1.49836124       0.09797901
H       -2.61481926       1.08113025      -0.42766267
H       -0.02001729       1.36087871       0.80559393
13
Frame=1 idx=008468 GeodesicLength=0.041235550155856726 rxn_smarts="[N:1]([c:2]1[c:3]([O:4][H:10])[c:5]([H:11])[c:6]([H:12])[n:7]1[H:13])([H:8])[H:9]>>[N:1]([C@:2]1([H:13])[C:3]([O:4][H:10])=[C:5]([H:11])[C:6]([H:12])=[N:7]1)([H:8])[H:9]"
N        1.87168384       0.96058510      -0.22114246
C        0.55052130       0.54208037       0.02030176
C        0.02975257      -0.75375561       0.19352364
O        0.82886811      -1.81204955       0.47140571
C       -1.34047947      -0.69107458      -0.00322969
C       -1.63650896       0.63917302      -0.30044406
N       -0.54501626       1.41904669      -0.33530326
H        2.09740454       0.93236642      -1.20607532
H        2.53264537       0.39529200       0.29076158
H        0.29095773      -2.59247144       0.61477903
H       -2.04972130      -1.50205359       0.08753861
H       -2.61458953       1.08047268      -0.42791614
H       -0.01551794       1.38238848       0.81580062
13
Frame=2 idx=008468 GeodesicLength=0.08248544873853647 rxn_smarts="[N:1]([c:2]1[c:3]([O:4][H:10])[c:5]([H:11])[c:6]([H:12])[n:7]1[H:13])([H:8])[H:9]>>[N:1]([C@:2]1([H:13])[C:3]([O:4][H:10])=[C:5]([H:11])[C:6]([H:12])=[N:7]1)([H:8])[H:9]"
N        1.87001921       0.95962101      -0.22732925
C        0.54961571       0.54552882       0.03050868
C        0.02897533      -0.75291173       0.19975553
O        0.82891491      -1.81015768       0.47825767
C       -1.33948149      -0.69370549      -0.00665397
C       -1.63596809       0.63842868      -0.30229284
N       -0.54538690       1.41686967      -0.32920360
H        2.08998438       0.90850310      -1.21265466
H        2.53348965       0.40482064       0.29299466
H        0.29307899      -2.59533501       0.60238683
H       -2.04817033      -1.50590358       0.07627045
H       -2.61437947       1.07985725      -0.42763741
H       -0.01069189       1.40438433       0.82559789
13
Frame=3 idx=008468 GeodesicLength=0.12374878473134551 rxn_smarts="[N:1]([c:2]1[c:3]([O:4][H:10])[c:5]([H:11])[c:6]([H:12])[n:7]1[H:13])([H:8])[H:9]>>[N:1]([C@:2]1([H:13])[C:3]([O:4][H:10])=[C:5]([H:11])[C:6]([H:12])=[N:7]1)([H:8])[H:9]"
N        1.86819666       0.95841665      -0.23351414
C        0.54868870       0.54891100       0.04073854
C        0.02813237      -0.75213422       0.20597368
O        0.82878984      -1.80825823       0.48567842
C       -1.33840580      -0.69643744      -0.01051263
C       -1.63540318       0.63766423      -0.30416234
N       -0.54578602       1.41467888      -0.32289363
H        2.08229889       0.88471949      -1.21871286
H        2.53432019       0.41418270       0.29476945
H        0.29540116      -2.59802022       0.59001580
H       -2.04649210      -1.50982199       0.06455428
H       -2.61418476       1.07926060      -0.42690261
H       -0.00555595       1.42683855       0.83496806
13
Frame=4 idx=008468 GeodesicLength=0.16501989208168438 rxn_smarts="[N:1]([c:2]1[c:3]([O:4][H:10])[c:5]([H:11])[c:6]([H:12])[n:7]1[H:13])([H:8])[H:9]>>[N:1]([C@:2]1([H:13])[C:3]([O:4][H:10])=[C:5]([H:11])[C:6]([H:12])=[N:7]1)([H:8])[H:9]"
N        1.86622188       0.95700890      -0.23959488
C        0.54773992       0.55220930       0.05097840
C        0.02723409      -0.75146595       0.21199178
O        0.82850298      -1.80643326       0.49332626
C       -1.33722026      -0.69931279      -0.01506768
C       -1.63479624       0.63686182      -0.30618003
N       -0.54621436       1.41247819      -0.31633927
H        2.07440859       0.86118219      -1.22416797
H        2.53512182       0.42334985       0.29616255
H        0.29792163      -2.60051226       0.57776952
H       -2.04478477      -1.51366232       0.05304990
H       -2.61398816       1.07864803      -0.42586537
H       -0.00014713       1.44964831       0.84393680
13
Frame=5 idx=008468 GeodesicLength=0.2063108562901303 rxn_smarts="[N:1]([c:2]1[c:3]([O:4][H:10])[c:5]([H:11])[c:6]([H:12])[n:7]1[H:13])([H:8])[H:9]>>[N:1]([C@:2]1([H:13])[C:3]([O:4][H:10])=[C:5]([H:11])[C:6]([H:12])=[N:7]1)([H:8])[H:9]"
N        1.86408985       0.95539724      -0.24558333
C        0.54676692       0.55542621       0.06124511
C        0.02627272      -0.75090054       0.21785942
O        0.82804903      -1.80469301       0.50118055
C       -1.33591615      -0.70232331      -0.02029374
C       -1.63414965       0.63602831      -0.30831776
N       -0.54667950       1.41027134      -0.30951889
H        2.06630168       0.83787192      -1.22906264
H        2.53589019       0.43231673       0.29717631
H        0.30063857      -2.60279770       0.56572045
H       -2.04303158      -1.51745859       0.04159098
H       -2.61379568       1.07801386      -0.42448280
H        0.00556361       1.47284755       0.85248636
13
Frame=6 idx=008468 GeodesicLength=0.2476542944331665 rxn_smarts="[N:1]([c:2]1[c:3]([O:4][H:10])[c:5]([H:11])[c:6]([H:12])[n:7]1[H:13])([H:8])[H:9]>>[N:1]([C@:2]1([H:13])[C:3]([O:4][H:10])=[C:5]([H:11])[C:6]([H:12])=[N:7]1)([H:8])[H:9]"
N        1.86179917       0.95356248      -0.25144906
C        0.54575469       0.55858873       0.07158706
C        0.02521373      -0.75039161       0.22381741
O        0.82738206      -1.80295035       0.50967289
C       -1.33450133      -0.70545308      -0.02604204
C       -1.63345954       0.63513959      -0.31065154
N       -0.54717992       1.40803625      -0.30256204
H        2.05801191       0.81461923      -1.23337046
H        2.53660028       0.44113631       0.29796021
H        0.30371682      -2.60506998       0.55282426
H       -2.04129870      -1.52113987       0.03068075
H       -2.61359890       1.07730929      -0.42293237
H        0.01155974       1.49661301       0.86046492
13
Frame=7 idx=008468 GeodesicLength=0.2889541790284555 rxn_smarts="[N:1]([c:2]1[c:3]([O:4][H:10])[c:5]([H:11])[c:6]([H:12])[n:7]1[H:13])([H:8])[H:9]>>[N:1]([C@:2]1([H:13])[C:3]([O:4][H:10])=[C:5]([H:11])[C:6]([H:12])=[N:7]1)([H:8])[H:9]"
N        1.85932768       0.95128899      -0.25719017
C        0.54464196       0.56175688       0.08212777
C        0.02392759      -0.74974078       0.23065652
O        0.82626060      -1.80091109       0.52019755
C       -1.33307357      -0.70856507      -0.03158974
C       -1.63275472       0.63415614      -0.31320775
N       -0.54772499       1.40567211      -0.29581641
H        2.04954238       0.79080488      -1.23700706
H        2.53717706       0.44978550       0.29873768
H        0.30790162      -2.60748246       0.53640927
H       -2.03962207      -1.52466835       0.02074824
H       -2.61340749       1.07646870      -0.42146928
H        0.01780396       1.52143455       0.86740338
13
Frame=8 idx=008468 GeodesicLength=0.3302638169012214 rxn_smarts="[N:1]([c:2]1[c:3]([O:4][H:10])[c:5]([H:11])[c:6]([H:12])[n:7]1[H:13])([H:8])[H:9]>>[N:1]([C@:2]1([H:13])[C:3]([O:4][H:10])=[C:5]([H:11])[C:6]([H:12])=[N:7]1)([H:8])[H:9]"
N        1.85663504       0.94881469      -0.26313836
C        0.54353822       0.56481832       0.09270743
C        0.02259165      -0.74921855       0.23719004
O        0.82508022      -1.79918269       0.52970877
C       -1.33147385      -0.71176066      -0.03789699
C       -1.63206767       0.63329327      -0.31528912
N       -0.54836625       1.40341302      -0.28821401
H        2.04051079       0.76736576      -1.24049972
H        2.53779048       0.45809384       0.29856176
H        0.31173521      -2.60907673       0.52396332
H       -2.03736298      -1.52875282       0.00736148
H       -2.61331319       1.07574256      -0.41865996
H        0.02470233       1.54644999       0.87420534
13
Frame=9 idx=008468 GeodesicLength=0.37164188314710006 rxn_smarts="[N:1]([c:2]1[c:3]([O:4][H:10])[c:5]([H:11])[c:6]([H:12])[n:7]1[H:13])([H:8])[H:9]>>[N:1]([C@:2]1([H:13])[C:3]([O:4][H:10])=[C:5]([H:11])[C:6]([H:12])=[N:7]1)([H:8])[H:9]"
N        1.85372057       0.94605107      -0.26917778
C        0.54240094       0.56784411       0.10343553
C        0.02111188      -0.74870498       0.24404462
O        0.82367231      -1.79748580       0.53968842
C       -1.32975213      -0.71499884      -0.04451119
C       -1.63138756       0.63246618      -0.31716207
N       -0.54908850       1.40118701      -0.28017549
H        2.03103059       0.74385854      -1.24368054
H        2.53836813       0.46616380       0.29783813
H        0.31577589      -2.61038270       0.51209872
H       -2.03471908      -1.53310927      -0.00769337
H       -2.61328160       1.07499355      -0.41513796
H        0.03214857       1.57211732       0.88043299
13
Frame=10 idx=008468 GeodesicLength=0.41305090923479554 rxn_smarts="[N:1]([c:2]1[c:3]([O:4][H:10])[c:5]([H:11])[c:6]([H:12])[n:7]1[H:13])([H:8])[H:9]>>[N:1]([C@:2]1([H:13])[C:3]([O:4][H:10])=[C:5]([H:11])[C:6]([H:12])=[N:7]1)([H:8])[H:9]"
N        1.85057859       0.94310233      -0.27528552
C        0.54126117       0.57078907       0.11426383
C        0.01955926      -0.74829257       0.25078704
O        0.82215380      -1.79595470       0.54940828
C       -1.32782093      -0.71831718      -0.05184028
C       -1.63069057       0.63168869      -0.31882554
N       -0.54990647       1.39902705      -0.27144916
H        2.02107099       0.72069884      -1.24660124
H        2.53894069       0.47394175       0.29641533
H        0.31960087      -2.61132856       0.50226049
H       -2.03162574      -1.53770171      -0.02462283
H       -2.61330428       1.07420225      -0.41080396
H        0.04018263       1.59814474       0.88629354
13
Frame=11 idx=008468 GeodesicLength=0.4544812476093704 rxn_smarts="[N:1]([c:2]1[c:3]([O:4][H:10])[c:5]([H:11])[c:6]([H:12])[n:7]1[H:13])([H:8])[H:9]>>[N:1]([C@:2]1([H:13])[C:3]([O:4][H:10])=[C:5]([H:11])[C:6]([H:12])=[N:7]1)([H:8])[H:9]"
N        1.84722371       0.93989356      -0.28123781
C        0.54006746       0.57367809       0.12526210
C        0.01785009      -0.74791368       0.25772445
O        0.82036198      -1.79447088       0.55955262
C       -1.32572266      -0.72169773      -0.05967876
C       -1.62994868       0.63087528      -0.32063440
N       -0.55081018       1.39685101      -0.26236734
H        2.01082460       0.69760082      -1.24897603
H        2.53941307       0.48146003       0.29474807
H        0.32387601      -2.61214166       0.49177550
H       -2.02844638      -1.54215376      -0.04124001
H       -2.61332792       1.07324607      -0.40636533
H        0.04863889       1.62477286       0.89143693
13
Frame=12 idx=008468 GeodesicLength=0.4959361957330605 rxn_smarts="[N:1]([c:2]1[c:3]([O:4][H:10])[c:5]([H:11])[c:6]([H:12])[n:7]1[H:13])([H:8])[H:9]>>[N:1]([C@:2]1([H:13])[C:3]([O:4][H:10])=[C:5]([H:11])[C:6]([H:12])=[N:7]1)([H:8])[H:9]"
N        1.84364155       0.93649161      -0.28710424
C        0.53884925       0.57648814       0.13640955
C        0.01603199      -0.74762353       0.26463151
O        0.81837718      -1.79311285       0.56973229
C       -1.32340471      -0.72513899      -0.06816551
C       -1.62915694       0.63006281      -0.32246430
N       -0.55181857       1.39469944      -0.25269137
H        2.00019057       0.67482766      -1.25095819
H        2.53982599       0.48866886       0.29261921
H        0.32822592      -2.61274805       0.48197984
H       -2.02501886      -1.54659453      -0.05843030
H       -2.61336411       1.07213833      -0.40157473
H        0.05762075       1.65184110       0.89601624
13
Frame=13 idx=008468 GeodesicLength=0.5374186358341523 rxn_smarts="[N:1]([c:2]1[c:3]([O:4][H:10])[c:5]([H:11])[c:6]([H:12])[n:7]1[H:13])([H:8])[H:9]>>[N:1]([C@:2]1([H:13])[C:3]([O:4][H:10])=[C:5]([H:11])[C:6]([H:12])=[N:7]1)([H:8])[H:9]"
N        1.83981850       0.93290229      -0.29288604
C        0.53760817       0.57922006       0.14773326
C        0.01409993      -0.74741844       0.27154146
O        0.81619654      -1.79187759       0.57996773
C       -1.32085546      -0.72861842      -0.07724027
C       -1.62830728       0.62925414      -0.32430944
N       -0.55294380       1.39257159      -0.24236489
H        1.98913623       0.65238800      -1.25257674
H        2.54017394       0.49555844       0.29001895
H        0.33263267      -2.61317276       0.47284913
H       -2.02131240      -1.55102019      -0.07625266
H       -2.61340689       1.07085135      -0.39647979
H        0.06715985       1.67936153       0.89999929
13
Frame=14 idx=008468 GeodesicLength=0.5789411069837271 rxn_smarts="[N:1]([c:2]1[c:3]([O:4][H:10])[c:5]([H:11])[c:6]([H:12])[n:7]1[H:13])([H:8])[H:9]>>[N:1]([C@:2]1([H:13])[C:3]([O:4][H:10])=[C:5]([H:11])[C:6]([H:12])=[N:7]1)([H:8])[H:9]"
N        1.83574796       0.92916092      -0.29854230
C        0.53634845       0.58186566       0.15925881
C        0.01206425      -0.74731986       0.27840905
O        0.81384110      -1.79080162       0.59014443
C       -1.31805875      -0.73212689      -0.08688470
C       -1.62737462       0.62844321      -0.32622611
N       -0.55419605       1.39046619      -0.23131902
H        1.97766086       0.63036763      -1.25383253
H        2.54045056       0.50212685       0.28697577
H        0.33706548      -2.61346130       0.46431411
H       -2.01737824      -1.55536748      -0.09439748
H       -2.61342908       1.06934680      -0.39129033
H        0.07725809       1.70729990       0.90339032
13
Frame=15 idx=008468 GeodesicLength=0.620470398904061 rxn_smarts="[N:1]([c:2]1[c:3]([O:4][H:10])[c:5]([H:11])[c:6]([H:12])[n:7]1[H:13])([H:8])[H:9]>>[N:1]([C@:2]1([H:13])[C:3]([O:4][H:10])=[C:5]([H:11])[C:6]([H:12])=[N:7]1)([H:8])[H:9]"
N        1.83140318       0.92519482      -0.30406832
C        0.53505430       0.58443883       0.17105656
C        0.00987440      -0.74726744       0.28548259
O        0.81123372      -1.78980752       0.60060727
C       -1.31505176      -0.73560439      -0.09682088
C       -1.62635806       0.62762778      -0.32820165
N       -0.55559141       1.38835649      -0.21955039
H        1.96569986       0.60859537      -1.25470420
H        2.54063086       0.50833494       0.28351923
H        0.34178443      -2.61361539       0.45564514
H       -2.01320405      -1.55962230      -0.11280234
H       -2.61342180       1.06760143      -0.38619789
H        0.08794636       1.73576737       0.90603489
13
Frame=16 idx=008468 GeodesicLength=0.6620041094618617 rxn_smarts="[N:1]([c:2]1[c:3]([O:4][H:10])[c:5]([H:11])[c:6]([H:12])[n:7]1[H:13])([H:8])[H:9]>>[N:1]([C@:2]1([H:13])[C:3]([O:4][H:10])=[C:5]([H:11])[C:6]([H:12])=[N:7]1)([H:8])[H:9]"
N        1.82682065       0.92131633      -0.30936110
C        0.53379862       0.58684528       0.18303585
C        0.00772728      -0.74747795       0.29192521
O        0.80866590      -1.78917666       0.61008510
C       -1.31171248      -0.73912754      -0.10755489
C       -1.62515317       0.62679538      -0.33040882
N       -0.55713602       1.38626312      -0.20670083
H        1.95333432       0.58794453      -1.25531219
H        2.54078194       0.51421750       0.27953783
H        0.34595292      -2.61375849       0.44874551
H       -2.00897107      -1.56364052      -0.13084757
H       -2.61329183       1.06555867      -0.38154899
H        0.09918294       1.76424036       0.90840489
