13
Frame=0 idx=008758 GeodesicLength=0.0 rxn_smarts="[O:1]=[C:2]([C@@:3]1([H:9])[O:4][C@@:5]2([H:10])[C:6]([H:11])([H:12])[C@@:7]12[H:13])[H:8]>>[O:1](/[C:2](=[C:3]1/[O:4][C@@:5]2([H:10])[C:6]([H:11])([H:12])[C@@:7]12[H:13])[H:8])[H:9]"
O        2.07078221       0.93510905      -1.49702986
C        1.69898353       0.80824365      -0.28405204
C        0.82389290      -0.30541528      -0.21704927
O        0.57609051      -1.04410767       0.96813436
C       -0.81991552      -1.05374668       0.68096965
C       -1.38841459       0.31999900       0.69619863
C       -0.66187456      -0.18425874      -0.53168163
H        2.08628971       1.47941068       0.48204390
H        1.50829378      -0.17846913      -1.56059027
H       -1.36344038      -1.97314972       0.84753397
H       -2.46468501       0.37841720       0.58636042
H       -0.94414609       1.07528151       1.33412467
H       -1.12185649      -0.25731381      -1.50496248
13
Frame=1 idx=008758 GeodesicLength=0.036056547520896244 rxn_smarts="[O:1]=[C:2]([C@@:3]1([H:9])[O:4][C@@:5]2([H:10])[C:6]([H:11])([H:12])[C@@:7]12[H:13])[H:8]>>[O:1](/[C:2](=[C:3]1/[O:4][C@@:5]2([H:10])[C:6]([H:11])([H:12])[C@@:7]12[H:13])[H:8])[H:9]"
O        2.08202859       0.93626422      -1.49616967
C        1.69357963       0.81989655      -0.28635096
C        0.81957989      -0.29476720      -0.21931707
O        0.57855879      -1.03122623       0.96856173
C       -0.81778347      -1.05134803       0.68263819
C       -1.39517809       0.31840910       0.69490937
C       -0.66599747      -0.18355264      -0.53232003
H        2.11383411       1.45403478       0.49368681
H        1.49980306      -0.17821986      -1.56899155
H       -1.35483522      -1.97384339       0.85303333
H       -2.47182127       0.36936638       0.58506027
H       -0.95549225       1.07848950       1.33024145
H       -1.12627630      -0.26350318      -1.50498187
13
Frame=2 idx=008758 GeodesicLength=0.07199448902866362 rxn_smarts="[O:1]=[C:2]([C@@:3]1([H:9])[O:4][C@@:5]2([H:10])[C:6]([H:11])([H:12])[C@@:7]12[H:13])[H:8]>>[O:1](/[C:2](=[C:3]1/[O:4][C@@:5]2([H:10])[C:6]([H:11])([H:12])[C@@:7]12[H:13])[H:8])[H:9]"
O        2.09342306       0.93709139      -1.49493269
C        1.68862595       0.83154377      -0.28836312
C        0.81538220      -0.28400484      -0.22148580
O        0.58105082      -1.01853256       0.96884326
C       -0.81557718      -1.04890231       0.68422031
C       -1.40170780       0.31686121       0.69378034
C       -0.66995368      -0.18267943      -0.53290047
H        2.13912928       1.42849281       0.50408451
H        1.49156828      -0.17821533      -1.57716674
H       -1.34624837      -1.97440479       0.85826709
H       -2.47868214       0.36048490       0.58393892
H       -0.96657849       1.08153613       1.32668387
H       -1.13043193      -0.26927094      -1.50496949
13
Frame=3 idx=008758 GeodesicLength=0.10765766944338186 rxn_smarts="[O:1]=[C:2]([C@@:3]1([H:9])[O:4][C@@:5]2([H:10])[C:6]([H:11])([H:12])[C@@:7]12[H:13])[H:8]>>[O:1](/[C:2](=[C:3]1/[O:4][C@@:5]2([H:10])[C:6]([H:11])([H:12])[C@@:7]12[H:13])[H:8])[H:9]"
O        2.10498741       0.93741914      -1.49324200
C        1.68438112       0.84263094      -0.29000954
C        0.81134273      -0.27347521      -0.22364430
O        0.58353480      -1.00642652       0.96884802
C       -0.81330738      -1.04648172       0.68566122
C       -1.40769552       0.31541680       0.69284457
C       -0.67364822      -0.18165100      -0.53342588
H        2.16082856       1.40396581       0.51334385
H        1.48354399      -0.17858808      -1.58520627
H       -1.33786875      -1.97480302       0.86316649
H       -2.48491890       0.35209755       0.58308057
H       -0.97689800       1.08433961       1.32348130
H       -1.13428185      -0.27444431      -1.50489804
13
Frame=4 idx=008758 GeodesicLength=0.14316924541006784 rxn_smarts="[O:1]=[C:2]([C@@:3]1([H:9])[O:4][C@@:5]2([H:10])[C:6]([H:11])([H:12])[C@@:7]12[H:13])[H:8]>>[O:1](/[C:2](=[C:3]1/[O:4][C@@:5]2([H:10])[C:6]([H:11])([H:12])[C@@:7]12[H:13])[H:8])[H:9]"
O        2.11670133       0.93726337      -1.49118919
C        1.68085315       0.85314434      -0.29133757
C        0.80747332      -0.26318067      -0.22581448
O        0.58603180      -0.99484349       0.96859132
C       -0.81100712      -1.04408791       0.68696215
C       -1.41324910       0.31405572       0.69211324
C       -0.67712912      -0.18049628      -0.53390421
H        2.17945260       1.38060327       0.52167511
H        1.47573860      -0.17935707      -1.59317670
H       -1.32971434      -1.97505844       0.86772102
H       -2.49068513       0.34414054       0.58249255
H       -0.98657044       1.08691839       1.32065334
H       -1.13789554      -0.27910177      -1.50478659
13
Frame=5 idx=008758 GeodesicLength=0.17859985796516198 rxn_smarts="[O:1]=[C:2]([C@@:3]1([H:9])[O:4][C@@:5]2([H:10])[C:6]([H:11])([H:12])[C@@:7]12[H:13])[H:8]>>[O:1](/[C:2](=[C:3]1/[O:4][C@@:5]2([H:10])[C:6]([H:11])([H:12])[C@@:7]12[H:13])[H:8])[H:9]"
O        2.12852271       0.93666086      -1.48882444
C        1.67795266       0.86313992      -0.29239703
C        0.80374008      -0.25310733      -0.22800978
O        0.58853947      -0.98374909       0.96810391
C       -0.80867702      -1.04173495       0.68813676
C       -1.41840358       0.31277415       0.69155116
C       -0.68042931      -0.17922988      -0.53435669
H        2.19541572       1.35838553       0.52930167
H        1.46808249      -0.18049603      -1.60111216
H       -1.32175806      -1.97521306       0.87199089
H       -2.49601586       0.33657068       0.58212914
H       -0.99564538       1.08931191       1.31814720
H       -1.14132392      -0.28331272      -1.50466063
13
Frame=6 idx=008758 GeodesicLength=0.21388946689268026 rxn_smarts="[O:1]=[C:2]([C@@:3]1([H:9])[O:4][C@@:5]2([H:10])[C:6]([H:11])([H:12])[C@@:7]12[H:13])[H:8]>>[O:1](/[C:2](=[C:3]1/[O:4][C@@:5]2([H:10])[C:6]([H:11])([H:12])[C@@:7]12[H:13])[H:8])[H:9]"
O        2.14051289       0.93553441      -1.48615257
C        1.67564083       0.87253052      -0.29324375
C        0.80013910      -0.24333233      -0.23027257
O        0.59104251      -0.97321559       0.96733614
C       -0.80633264      -1.03944329       0.68917513
C       -1.42310748       0.31156233       0.69116831
C       -0.68354619      -0.17787539      -0.53478211
H        2.20861418       1.33766360       0.53638970
H        1.46055433      -0.18203227      -1.60905446
H       -1.31405877      -1.97526047       0.87596306
H       -2.50085301       0.32943795       0.58202627
H       -1.00401914       1.09148603       1.31594473
H       -1.14458662      -0.28705552      -1.50449787
13
Frame=7 idx=008758 GeodesicLength=0.24910536804479722 rxn_smarts="[O:1]=[C:2]([C@@:3]1([H:9])[O:4][C@@:5]2([H:10])[C:6]([H:11])([H:12])[C@@:7]12[H:13])[H:8]>>[O:1](/[C:2](=[C:3]1/[O:4][C@@:5]2([H:10])[C:6]([H:11])([H:12])[C@@:7]12[H:13])[H:8])[H:9]"
O        2.15260966       0.93394488      -1.48322406
C        1.67381381       0.88144702      -0.29391750
C        0.79664932      -0.23378873      -0.23259297
O        0.59356357      -0.96314370       0.96633314
C       -0.80396710      -1.03720774       0.69009185
C       -1.42745523       0.31041251       0.69093781
C       -0.68652482      -0.17644433      -0.53519379
H        2.21961290       1.31821802       0.54307446
H        1.45312764      -0.18394453      -1.61700464
H       -1.30655248      -1.97523635       0.87966711
H       -2.50530902       0.32266481       0.58213882
H       -1.01183327       1.09349258       1.31401352
H       -1.14773500      -0.29041444      -1.50432375
13
Frame=8 idx=008758 GeodesicLength=0.2842559389783733 rxn_smarts="[O:1]=[C:2]([C@@:3]1([H:9])[O:4][C@@:5]2([H:10])[C:6]([H:11])([H:12])[C@@:7]12[H:13])[H:8]>>[O:1](/[C:2](=[C:3]1/[O:4][C@@:5]2([H:10])[C:6]([H:11])([H:12])[C@@:7]12[H:13])[H:8])[H:9]"
O        2.16478307       0.93192898      -1.48006802
C        1.67239073       0.88997837      -0.29446172
C        0.79324302      -0.22441365      -0.23496282
O        0.59609197      -0.95344670       0.96511942
C       -0.80158217      -1.03501562       0.69089587
C       -1.43150570       0.30930584       0.69083792
C       -0.68938794      -0.17493409      -0.53559142
H        2.22880044       1.29987941       0.54942817
H        1.44577770      -0.18620988      -1.62494802
H       -1.29919822      -1.97515066       0.88312791
H       -2.50944111       0.31617527       0.58243433
H       -1.01918908       1.09533938       1.31232158
H       -1.15078270      -0.29343664      -1.50413319
13
Frame=9 idx=008758 GeodesicLength=0.31935487462325945 rxn_smarts="[O:1]=[C:2]([C@@:3]1([H:9])[O:4][C@@:5]2([H:10])[C:6]([H:11])([H:12])[C@@:7]12[H:13])[H:8]>>[O:1](/[C:2](=[C:3]1/[O:4][C@@:5]2([H:10])[C:6]([H:11])([H:12])[C@@:7]12[H:13])[H:8])[H:9]"
O        2.17700996       0.92952069      -1.47670251
C        1.67131419       0.89818860      -0.29490337
C        0.78990353      -0.21516549      -0.23738031
O        0.59862922      -0.94406365       0.96371152
C       -0.79917622      -1.03285707       0.69159406
C       -1.43530441       0.30823313       0.69085149
C       -0.69215561      -0.17334728      -0.53597919
H        2.23646154       1.28251543       0.55551641
H        1.43848544      -0.18880959      -1.63288079
H       -1.29196114      -1.97501071       0.88636747
H       -2.51329863       0.30991698       0.58289381
H       -1.02615922       1.09704371       1.31084017
H       -1.15374864      -0.29616476      -1.50392875
13
Frame=10 idx=008758 GeodesicLength=0.35442406559252615 rxn_smarts="[O:1]=[C:2]([C@@:3]1([H:9])[O:4][C@@:5]2([H:10])[C:6]([H:11])([H:12])[C@@:7]12[H:13])[H:8]>>[O:1](/[C:2](=[C:3]1/[O:4][C@@:5]2([H:10])[C:6]([H:11])([H:12])[C@@:7]12[H:13])[H:8])[H:9]"
O        2.18927281       0.92673675      -1.47314902
C        1.67054424       0.90613099      -0.29526666
C        0.78661730      -0.20600690      -0.23983772
O        0.60117611      -0.93494243       0.96213369
C       -0.79674734      -1.03072809       0.69219085
C       -1.43889214       0.30718792       0.69096810
C       -0.69484422      -0.17167846      -0.53636007
H        2.24283160       1.26603296       0.56138314
H        1.43123465      -0.19174850      -1.64079540
H       -1.28480668      -1.97483536       0.88939096
H       -2.51692551       0.30384447       0.58349964
H       -1.03281290       1.09862082       1.30956126
H       -1.15664791      -0.29861417      -1.50371878
13
Frame=11 idx=008758 GeodesicLength=0.38946747944802335 rxn_smarts="[O:1]=[C:2]([C@@:3]1([H:9])[O:4][C@@:5]2([H:10])[C:6]([H:11])([H:12])[C@@:7]12[H:13])[H:8]>>[O:1](/[C:2](=[C:3]1/[O:4][C@@:5]2([H:10])[C:6]([H:11])([H:12])[C@@:7]12[H:13])[H:8])[H:9]"
O        2.20155236       0.92360666      -1.46941814
C        1.67004671       0.91384806      -0.29556618
C        0.78337331      -0.19690622      -0.24233134
O        0.60373115      -0.92604101       0.96039614
C       -0.79429535      -1.02862005       0.69269015
C       -1.44229860       0.30616380       0.69117601
C       -0.69746528      -0.16992639      -0.53673515
H        2.24809594       1.25033396       0.56705681
H        1.42401460      -0.19501775      -1.64868146
H       -1.27771335      -1.97462706       0.89220781
H       -2.52035293       0.29792222       0.58424076
H       -1.03920077       1.10007991       1.30846684
H       -1.15948779      -0.30081614      -1.50350224
13
Frame=12 idx=008758 GeodesicLength=0.4244959976761958 rxn_smarts="[O:1]=[C:2]([C@@:3]1([H:9])[O:4][C@@:5]2([H:10])[C:6]([H:11])([H:12])[C@@:7]12[H:13])[H:8]>>[O:1](/[C:2](=[C:3]1/[O:4][C@@:5]2([H:10])[C:6]([H:11])([H:12])[C@@:7]12[H:13])[H:8])[H:9]"
O        2.21380911       0.92017057      -1.46552964
C        1.66979743       0.92137935      -0.29581136
C        0.78016174      -0.18783066      -0.24485038
O        0.60629127      -0.91731320       0.95852027
C       -0.79181963      -1.02652600       0.69309635
C       -1.44555610       0.30515459       0.69146432
C       -0.70002798      -0.16808653      -0.53710462
H        2.25244388       1.23531204       0.57255171
H        1.41682043      -0.19862520      -1.65651974
H       -1.27065561      -1.97439418       0.89482347
H       -2.52361374       0.29211160       0.58509800
H       -1.04537970       1.10143203       1.30754412
H       -1.16227111      -0.30278439      -1.50328251
13
Frame=13 idx=008758 GeodesicLength=0.4595166577861967 rxn_smarts="[O:1]=[C:2]([C@@:3]1([H:9])[O:4][C@@:5]2([H:10])[C:6]([H:11])([H:12])[C@@:7]12[H:13])[H:8]>>[O:1](/[C:2](=[C:3]1/[O:4][C@@:5]2([H:10])[C:6]([H:11])([H:12])[C@@:7]12[H:13])[H:8])[H:9]"
O        2.22599661       0.91648076      -1.46150289
C        1.66977910       0.92875219      -0.29600404
C        0.77697558      -0.17875651      -0.24738680
O        0.60885416      -0.90872496       0.95652213
C       -0.78932008      -1.02444023       0.69341360
C       -1.44868997       0.30415549       0.69182196
C       -0.70253914      -0.16615880      -0.53746989
H        2.25603230       1.22086971       0.57788248
H        1.40965141      -0.20257870      -1.66429211
H       -1.26361388      -1.97414061       0.89725066
H       -2.52673392       0.28638381       0.58605498
H       -1.05139372       1.10269002       1.30677415
H       -1.16499844      -0.30453217      -1.50306423
13
Frame=14 idx=008758 GeodesicLength=0.49456752316037034 rxn_smarts="[O:1]=[C:2]([C@@:3]1([H:9])[O:4][C@@:5]2([H:10])[C:6]([H:11])([H:12])[C@@:7]12[H:13])[H:8]>>[O:1](/[C:2](=[C:3]1/[O:4][C@@:5]2([H:10])[C:6]([H:11])([H:12])[C@@:7]12[H:13])[H:8])[H:9]"
O        2.23810255       0.91256680      -1.45735097
C        1.66998764       0.93600310      -0.29614765
C        0.77381130      -0.16965885      -0.24993295
O        0.61143149      -0.90024852       0.95441934
C       -0.78679490      -1.02236401       0.69364282
C       -1.45173039       0.30316953       0.69224123
C       -0.70501588      -0.16413673      -0.53783498
H        2.25900469       1.20694092       0.58306035
H        1.40250147      -0.20690122      -1.67198338
H       -1.25656566      -1.97388964       0.89948810
H       -2.52975347       0.28071298       0.58710026
H       -1.05728633       1.10387595       1.30615707
H       -1.16769251      -0.30607033      -1.50285925
13
Frame=15 idx=008758 GeodesicLength=0.5295863627041206 rxn_smarts="[O:1]=[C:2]([C@@:3]1([H:9])[O:4][C@@:5]2([H:10])[C:6]([H:11])([H:12])[C@@:7]12[H:13])[H:8]>>[O:1](/[C:2](=[C:3]1/[O:4][C@@:5]2([H:10])[C:6]([H:11])([H:12])[C@@:7]12[H:13])[H:8])[H:9]"
O        2.25022436       0.90832299      -1.45304745
C        1.67039278       0.94311287      -0.29628102
C        0.77065418      -0.16052880      -0.25250961
O        0.61399911      -0.89186605       0.95218226
C       -0.78424244      -1.02028128       0.69377373
C       -1.45466126       0.30217784       0.69273481
C       -0.70744596      -0.16200418      -0.53819158
H        2.26125920       1.19360342       0.58809886
H        1.39534184      -0.21157989      -1.67960935
H       -1.24950215      -1.97360833       0.90152111
H       -2.53263719       0.27507760       0.58826532
H       -1.06304982       1.10493905       1.30570411
H       -1.17033264      -0.30736525      -1.50264119
13
Frame=16 idx=008758 GeodesicLength=0.5645709073795634 rxn_smarts="[O:1]=[C:2]([C@@:3]1([H:9])[O:4][C@@:5]2([H:10])[C:6]([H:11])([H:12])[C@@:7]12[H:13])[H:8]>>[O:1](/[C:2](=[C:3]1/[O:4][C@@:5]2([H:10])[C:6]([H:11])([H:12])[C@@:7]12[H:13])[H:8])[H:9]"
O        2.26214093       0.90399256      -1.44864565
C        1.67096152       0.95009727      -0.29635467
C        0.76751740      -0.15139452      -0.25510126
O        0.61655900      -0.88360929       0.94982599
C       -0.78167036      -1.01819768       0.69382623
C       -1.45747376       0.30119302       0.69327559
C       -0.70982122      -0.15980699      -0.53854940
H        2.26295500       1.18070186       0.59301746
H        1.38823709      -0.21664283      -1.68712016
H       -1.24246742      -1.97328383       0.90339714
H       -2.53537886       0.26952347       0.58949655
H       -1.06865727       1.10591543       1.30535933
H       -1.17290205      -0.30848848      -1.50242714
