14
Frame=0 idx=005229 GeodesicLength=0.0 rxn_smarts="[C:1]([N:2]([C@@:3]([C:4]([H:12])([H:13])[H:14])([C:5]#[N:6])[H:11])[H:10])([H:7])([H:8])[H:9]>>[C:1]1([H:7])([H:8])[N:2]([H:10])[C@:3]([C:4]([H:12])([H:13])[H:14])([H:11])[C:5][N:6]1[H:9]"
C        1.77884928      -0.08712708       0.37008945
N        0.55762035      -0.67186464       0.30031078
C       -0.43412595      -0.09991862      -0.50772816
C       -1.79364276      -0.74336648      -0.38243891
C       -0.45833872       1.50819174      -0.13627008
N        0.56798966       1.94434797       0.33027841
H        2.28213723       0.10177583      -0.57102682
H        2.39906380      -0.37008580       1.21111964
H        1.42768879       2.14934100       0.79225865
H        0.20613679      -1.00041983       1.18858027
H       -0.09922238      -0.04889521      -1.54642237
H       -2.51963309      -0.16069885      -0.94729658
H       -1.79062409      -1.76634787      -0.76110236
H       -2.12389890      -0.75493222       0.65964805
14
Frame=1 idx=005229 GeodesicLength=0.11189600057173063 rxn_smarts="[C:1]([N:2]([C@@:3]([C:4]([H:12])([H:13])[H:14])([C:5]#[N:6])[H:11])[H:10])([H:7])([H:8])[H:9]>>[C:1]1([H:7])([H:8])[N:2]([H:10])[C@:3]([C:4]([H:12])([H:13])[H:14])([H:11])[C:5][N:6]1[H:9]"
C        1.77275849      -0.06051770       0.37686452
N        0.55973509      -0.67387201       0.29619403
C       -0.43583812      -0.09599330      -0.50969305
C       -1.79467690      -0.74180963      -0.38271539
C       -0.46346830       1.50228341      -0.13916692
N        0.55237334       1.94456008       0.34522115
H        2.28403637       0.10826813      -0.56468461
H        2.39547840      -0.35540342       1.21267102
H        1.46018248       2.10263886       0.77807000
H        0.20691142      -0.99963803       1.18509243
H       -0.10271109      -0.04943092      -1.54947391
H       -2.52244186      -0.16461529      -0.95098111
H       -1.78688841      -1.76648998      -0.75659676
H       -2.12545091      -0.74998021       0.65919860
14
Frame=2 idx=005229 GeodesicLength=0.2238311000293294 rxn_smarts="[C:1]([N:2]([C@@:3]([C:4]([H:12])([H:13])[H:14])([C:5]#[N:6])[H:11])[H:10])([H:7])([H:8])[H:9]>>[C:1]1([H:7])([H:8])[N:2]([H:10])[C@:3]([C:4]([H:12])([H:13])[H:14])([H:11])[C:5][N:6]1[H:9]"
C        1.76690881      -0.03571899       0.38300549
N        0.56208354      -0.67632428       0.29193089
C       -0.43724160      -0.09225856      -0.51170047
C       -1.79561623      -0.73993732      -0.38287174
C       -0.46753898       1.49628945      -0.14206180
N        0.53747635       1.94368423       0.36102696
H        2.28621864       0.11419236      -0.55826464
H        2.39184213      -0.34099225       1.21417572
H        1.48919709       2.05947474       0.76342326
H        0.20789682      -0.99941688       1.18139402
H       -0.10600960      -0.05018383      -1.55258037
H       -2.52498395      -0.16793316      -0.95439988
H       -1.78346888      -1.76627104      -0.75197928
H       -2.12676415      -0.74460449       0.65890184
14
Frame=3 idx=005229 GeodesicLength=0.33581740743778593 rxn_smarts="[C:1]([N:2]([C@@:3]([C:4]([H:12])([H:13])[H:14])([C:5]#[N:6])[H:11])[H:10])([H:7])([H:8])[H:9]>>[C:1]1([H:7])([H:8])[N:2]([H:10])[C@:3]([C:4]([H:12])([H:13])[H:14])([H:11])[C:5][N:6]1[H:9]"
C        1.76128201      -0.01246952       0.38851603
N        0.56462059      -0.67910317       0.28753982
C       -0.43840331      -0.08870318      -0.51378213
C       -1.79649023      -0.73782594      -0.38291148
C       -0.47074281       1.49022813      -0.14500849
N        0.52327384       1.94193793       0.37701394
H        2.28865021       0.11959079      -0.55187587
H        2.38816109      -0.32680010       1.21561019
H        1.51531548       2.01933968       0.74917942
H        0.20906505      -0.99955463       1.17754473
H       -0.10919659      -0.05119047      -1.55578089
H       -2.52733672      -0.17079401      -0.95757707
H       -1.78032748      -1.76578321      -0.74722365
H       -2.12787112      -0.73887229       0.65875546
14
Frame=4 idx=005229 GeodesicLength=0.4478260278981281 rxn_smarts="[C:1]([N:2]([C@@:3]([C:4]([H:12])([H:13])[H:14])([C:5]#[N:6])[H:11])[H:10])([H:7])([H:8])[H:9]>>[C:1]1([H:7])([H:8])[N:2]([H:10])[C@:3]([C:4]([H:12])([H:13])[H:14])([H:11])[C:5][N:6]1[H:9]"
C        1.75583989       0.00944941       0.39342606
N        0.56729855      -0.68211974       0.28304525
C       -0.43937711      -0.08531792      -0.51595350
C       -1.79731588      -0.73553954      -0.38284731
C       -0.47324425       1.48410785      -0.14804584
N        0.50965475       1.93948268       0.39284054
H        2.29126897       0.12455493      -0.54557084
H        2.38443127      -0.31282915       1.21693968
H        1.53915621       1.98184974       0.73578929
H        0.21037641      -0.99991207       1.17358936
H       -0.11232162      -0.05246594      -1.55908782
H       -2.52954632      -0.17332007      -0.96054970
H       -1.77741672      -1.76510109      -0.74231538
H       -2.12880416      -0.73283911       0.65874018
14
Frame=5 idx=005229 GeodesicLength=0.5598755628232708 rxn_smarts="[C:1]([N:2]([C@@:3]([C:4]([H:12])([H:13])[H:14])([C:5]#[N:6])[H:11])[H:10])([H:7])([H:8])[H:9]>>[C:1]1([H:7])([H:8])[N:2]([H:10])[C@:3]([C:4]([H:12])([H:13])[H:14])([H:11])[C:5][N:6]1[H:9]"
C        1.75053993       0.03021921       0.39780439
N        0.57007379      -0.68531894       0.27848147
C       -0.44020788      -0.08209289      -0.51821201
C       -1.79811208      -0.73313474      -0.38270754
C       -0.47518006       1.47793713      -0.15117802
N        0.49643418       1.93641102       0.40849793
H        2.29400904       0.12918238      -0.53934652
H        2.38064471      -0.29909611       1.21816632
H        1.56137726       1.94677055       0.72324611
H        0.21178679      -1.00042763       1.16956394
H       -0.11541061      -0.05398942      -1.56248954
H       -2.53165032      -0.17560074      -0.96336302
H       -1.77469919      -1.76428396      -0.73728184
H       -2.12960558      -0.72657586       0.65881834
14
Frame=6 idx=005229 GeodesicLength=0.671925446350769 rxn_smarts="[C:1]([N:2]([C@@:3]([C:4]([H:12])([H:13])[H:14])([C:5]#[N:6])[H:11])[H:10])([H:7])([H:8])[H:9]>>[C:1]1([H:7])([H:8])[N:2]([H:10])[C@:3]([C:4]([H:12])([H:13])[H:14])([H:11])[C:5][N:6]1[H:9]"
C        1.74534528       0.04999123       0.40171282
N        0.57291692      -0.68865950       0.27387109
C       -0.44092406      -0.07902187      -0.52055968
C       -1.79888808      -0.73064539      -0.38251120
C       -0.47664108       1.47172200      -0.15443119
N        0.48343254       1.93277875       0.42404224
H        2.29681698       0.13355865      -0.53319767
H        2.37679602      -0.28561754       1.21928653
H        1.58247210       1.91388913       0.71149714
H        0.21326459      -1.00105896       1.16549003
H       -0.11847528      -0.05575642      -1.56598163
H       -2.53366962      -0.17769769      -0.96605135
H       -1.77214574      -1.76336899      -0.73213247
H       -2.13030057      -0.72011340       0.65896535
14
Frame=7 idx=005229 GeodesicLength=0.7839796778409244 rxn_smarts="[C:1]([N:2]([C@@:3]([C:4]([H:12])([H:13])[H:14])([C:5]#[N:6])[H:11])[H:10])([H:7])([H:8])[H:9]>>[C:1]1([H:7])([H:8])[N:2]([H:10])[C@:3]([C:4]([H:12])([H:13])[H:14])([H:11])[C:5][N:6]1[H:9]"
C        1.74022178       0.06889457       0.40522137
N        0.57580502      -0.69211445       0.26923647
C       -0.44154789      -0.07609541      -0.52298994
C       -1.79965236      -0.72809800      -0.38228031
C       -0.47769810       1.46547054      -0.15780323
N        0.47047126       1.92860648       0.43961546
H        2.29965085       0.13773803      -0.52709935
H        2.37287258      -0.27239406       1.22032124
H        1.60287992       1.88305141       0.70033193
H        0.21478273      -1.00179580       1.16138177
H       -0.12151919      -0.05774228      -1.56954932
H       -2.53562021      -0.17965018      -0.96864404
H       -1.76973284      -1.76238121      -0.72689481
H       -2.13091357      -0.71348965       0.65915276
14
Frame=8 idx=005229 GeodesicLength=0.8960341692626894 rxn_smarts="[C:1]([N:2]([C@@:3]([C:4]([H:12])([H:13])[H:14])([C:5]#[N:6])[H:11])[H:10])([H:7])([H:8])[H:9]>>[C:1]1([H:7])([H:8])[N:2]([H:10])[C@:3]([C:4]([H:12])([H:13])[H:14])([H:11])[C:5][N:6]1[H:9]"
C        1.73513990       0.08704138       0.40839310
N        0.57872269      -0.69566203       0.26459433
C       -0.44209554      -0.07330151      -0.52549467
C       -1.80040928      -0.72551001      -0.38203275
C       -0.47840396       1.45919181      -0.16127936
N        0.45739703       1.92389877       0.45535095
H        2.30248324       0.14174616      -0.52102338
H        2.36885631      -0.25941228       1.22129822
H        1.62294236       1.85411478       0.68952478
H        0.21632266      -1.00263681       1.15724720
H       -0.12454346      -0.05991674      -1.57317828
H       -2.53751206      -0.18148243      -0.97116183
H       -1.76743906      -1.76133492      -0.72159640
H       -2.13146083      -0.70673617       0.65935809
14
Frame=9 idx=005229 GeodesicLength=1.0081036573082574 rxn_smarts="[C:1]([N:2]([C@@:3]([C:4]([H:12])([H:13])[H:14])([C:5]#[N:6])[H:11])[H:10])([H:7])([H:8])[H:9]>>[C:1]1([H:7])([H:8])[N:2]([H:10])[C@:3]([C:4]([H:12])([H:13])[H:14])([H:11])[C:5][N:6]1[H:9]"
C        1.73007267       0.10453175       0.41127969
N        0.58165900      -0.69928230       0.25995624
C       -0.44257941      -0.07062727      -0.52806527
C       -1.80116082      -0.72289355      -0.38178257
C       -0.47880077       1.45289229      -0.16483708
N        0.44407972       1.91865060       0.47135475
H        2.30529511       0.14558364      -0.51494392
H        2.36472621      -0.24664720       1.22224569
H        1.64293443       1.82694953       0.67887447
H        0.21787073      -1.00358171       1.15308934
H       -0.12754714      -0.06224764      -1.57685379
H       -2.53935100      -0.18321095      -0.97361823
H       -1.76524359      -1.76023712      -0.71626181
H       -2.13195514      -0.69988005       0.65956250
14
Frame=10 idx=005229 GeodesicLength=1.1201758057174809 rxn_smarts="[C:1]([N:2]([C@@:3]([C:4]([H:12])([H:13])[H:14])([C:5]#[N:6])[H:11])[H:10])([H:7])([H:8])[H:9]>>[C:1]1([H:7])([H:8])[N:2]([H:10])[C@:3]([C:4]([H:12])([H:13])[H:14])([H:11])[C:5][N:6]1[H:9]"
C        1.72499862       0.12145677       0.41392726
N        0.58460823      -0.70295642       0.25533137
C       -0.44301102      -0.06805566      -0.53069188
C       -1.80190780      -0.72025824      -0.38154209
C       -0.47892644       1.44658440      -0.16843912
N        0.43041682       1.91285650       0.48770674
H        2.30808255       0.14922811      -0.50882870
H        2.36045481      -0.23406119       1.22320064
H        1.66307004       1.80142205       0.66817853
H        0.21942208      -1.00463359       1.14891073
H       -0.13053406      -0.06469324      -1.58056336
H       -2.54114449      -0.18484384      -0.97602068
H       -1.76312702      -1.75909232      -0.71092185
H       -2.13240233      -0.69295332       0.65975242
14
Frame=11 idx=005229 GeodesicLength=1.2322555875263752 rxn_smarts="[C:1]([N:2]([C@@:3]([C:4]([H:12])([H:13])[H:14])([C:5]#[N:6])[H:11])[H:10])([H:7])([H:8])[H:9]>>[C:1]1([H:7])([H:8])[N:2]([H:10])[C@:3]([C:4]([H:12])([H:13])[H:14])([H:11])[C:5][N:6]1[H:9]"
C        1.71989758       0.13790128       0.41637022
N        0.58756665      -0.70666430       0.25072545
C       -0.44340071      -0.06556930      -0.53336502
C       -1.80264977      -0.71761185      -0.38132088
C       -0.47881581       1.44027793      -0.17204588
N        0.41632176       1.90650872       0.50445851
H        2.31084579       0.15264131      -0.50264803
H        2.35601169      -0.22161002       1.22419668
H        1.68352984       1.77740491       0.65727177
H        0.22097482      -1.00579107       1.14471140
H       -0.13350791      -0.06721189      -1.58429483
H       -2.54289834      -0.18638754      -0.97837200
H       -1.76106894      -1.75790203      -0.70560396
H       -2.13280665      -0.68598614       0.65991656
14
Frame=12 idx=005229 GeodesicLength=1.3443439385202862 rxn_smarts="[C:1]([N:2]([C@@:3]([C:4]([H:12])([H:13])[H:14])([C:5]#[N:6])[H:11])[H:10])([H:7])([H:8])[H:9]>>[C:1]1([H:7])([H:8])[N:2]([H:10])[C@:3]([C:4]([H:12])([H:13])[H:14])([H:11])[C:5][N:6]1[H:9]"
C        1.71475212       0.15394604       0.41863564
N        0.59053254      -0.71038468       0.24614238
C       -0.44375869      -0.06314870      -0.53607503
C       -1.80338609      -0.71496178      -0.38112727
C       -0.47850182       1.43398474      -0.17561177
N        0.40172160       1.89959897       0.52164541
H        2.31359242       0.15577167      -0.49636932
H        2.35136266      -0.20924225       1.22526935
H        1.70446771       1.75476998       0.64599977
H        0.22253079      -1.00705142       1.14049118
H       -0.13647432      -0.06975740      -1.58803759
H       -2.54461887      -0.18784687      -0.98067263
H       -1.75904932      -1.75666760      -0.70033657
H       -2.13317073      -0.67901070       0.66004644
14
Frame=13 idx=005229 GeodesicLength=1.456444837301595 rxn_smarts="[C:1]([N:2]([C@@:3]([C:4]([H:12])([H:13])[H:14])([C:5]#[N:6])[H:11])[H:10])([H:7])([H:8])[H:9]>>[C:1]1([H:7])([H:8])[N:2]([H:10])[C@:3]([C:4]([H:12])([H:13])[H:14])([H:11])[C:5][N:6]1[H:9]"
C        1.70954549       0.16966920       0.42074041
N        0.59350541      -0.71409353       0.24158471
C       -0.44409512      -0.06077390      -0.53881260
C       -1.80411470      -0.71231494      -0.38096796
C       -0.47801836       1.42771554      -0.17909184
N        0.38655193       1.89211972       0.53928377
H        2.31633081       0.15855760      -0.48996111
H        2.34647010      -0.19690353       1.22644861
H        1.72602214       1.73338805       0.63423903
H        0.22409467      -1.00840525       1.13624955
H       -0.13943983      -0.07228419      -1.59178105
H       -2.54631153      -0.18922727      -0.98292077
H       -1.75704541      -1.75538953      -0.69514528
H       -2.13349560      -0.67205797       0.66013452
14
Frame=14 idx=005229 GeodesicLength=1.5685580006591584 rxn_smarts="[C:1]([N:2]([C@@:3]([C:4]([H:12])([H:13])[H:14])([C:5]#[N:6])[H:11])[H:10])([H:7])([H:8])[H:9]>>[C:1]1([H:7])([H:8])[N:2]([H:10])[C@:3]([C:4]([H:12])([H:13])[H:14])([H:11])[C:5][N:6]1[H:9]"
C        1.70426378       0.18514883       0.42269580
N        0.59648617      -0.71776495       0.23705381
C       -0.44442060      -0.05842213      -0.54156834
C       -1.80483424      -0.70967889      -0.38084962
C       -0.47739820       1.42148463      -0.18243602
N        0.37075275       1.88406036       0.55739200
H        2.31907751       0.16092535      -0.48338582
H        2.34129110      -0.18453021       1.22776971
H        1.74832061       1.71312626       0.62185583
H        0.22567425      -1.00984349       1.13198635
H       -0.14241254      -0.07474016      -1.59551692
H       -2.54798307      -0.19053387      -0.98511450
H       -1.75503532      -1.75406962      -0.69005784
H       -2.13378220      -0.66516212       0.66017555
14
Frame=15 idx=005229 GeodesicLength=1.6806858810663141 rxn_smarts="[C:1]([N:2]([C@@:3]([C:4]([H:12])([H:13])[H:14])([C:5]#[N:6])[H:11])[H:10])([H:7])([H:8])[H:9]>>[C:1]1([H:7])([H:8])[N:2]([H:10])[C@:3]([C:4]([H:12])([H:13])[H:14])([H:11])[C:5][N:6]1[H:9]"
C        1.69889352       0.20046390       0.42450304
N        0.59947639      -0.72136914       0.23255054
C       -0.44474605      -0.05606977      -0.54433324
C       -1.80554202      -0.70706133      -0.38077801
C       -0.47667605       1.41530585      -0.18559611
N        0.35426469       1.87540942       0.57598068
H        2.32184855       0.16279174      -0.47660541
H        2.33577814      -0.17205474       1.22926247
H        1.77148787       1.69384671       0.60873720
H        0.22727975      -1.01134970       1.12770183
H       -0.14540110      -0.07707334      -1.59923677
H       -2.54963944      -0.19177343      -0.98725068
H       -1.75299373      -1.75270947      -0.68509995
H       -2.13403052      -0.65835669       0.66016441
14
Frame=16 idx=005229 GeodesicLength=1.7928305701183609 rxn_smarts="[C:1]([N:2]([C@@:3]([C:4]([H:12])([H:13])[H:14])([C:5]#[N:6])[H:11])[H:10])([H:7])([H:8])[H:9]>>[C:1]1([H:7])([H:8])[N:2]([H:10])[C@:3]([C:4]([H:12])([H:13])[H:14])([H:11])[C:5][N:6]1[H:9]"
C        1.69342294       0.21569661       0.42615486
N        0.60247854      -0.72487234       0.22807536
C       -0.44508301      -0.05369100      -0.54709865
C       -1.80623509      -0.70447068      -0.38075883
C       -0.47588729       1.40919532      -0.18852348
N        0.33702577       1.86615155       0.59506404
H        2.32466342       0.16406218      -0.46957704
H        2.32987758      -0.15940134       1.23095656
H        1.79564886       1.67540332       0.59477030
H        0.22892423      -1.01290311       1.12339709
H       -0.14841508      -0.07922829      -1.60293349
H       -2.55128708      -0.19295389      -0.98932590
H       -1.75089365      -1.75131154      -0.68029772
H       -2.13424012      -0.65167680       0.66009689
