15
Frame=0 idx=011673 GeodesicLength=0.0 rxn_smarts="[O:1]([C:2]([C@@:3]1([H:11])[C:4]([H:12])([H:13])[C@:5]1([C:6]#[C:7][H:15])[H:14])([H:9])[H:10])[H:8]>>[O:1]([C@:2]1([H:10])[C@@:3]2([H:11])[C:4]([H:12])([H:13])[C@@:5]2([H:14])[C:6]1=[C:7]([H:9])[H:15])[H:8]"
O       -1.57421336      -0.44693330       1.51201024
C       -1.03400507       0.24857071       0.50031656
C       -0.68610522      -0.44073184      -0.79013802
C        0.14741961       0.39447142      -1.71432271
C        0.81545202      -0.46963641      -0.69652212
C        0.95907740       0.19210343       0.64663432
C        1.73511790      -0.05486935       1.70479671
H       -1.14560618      -1.30695068       1.58050903
H        0.45406708       1.20516382       0.65336367
H       -1.52096313       1.22304754       0.45265944
H       -1.33326170      -1.22676833      -1.16242458
H        0.17476973       0.06212171      -2.74351159
H        0.16703372       1.47225146      -1.59017105
H        1.44693937      -1.30302971      -0.97056011
H        1.39427787       0.45118952       2.61736027
15
Frame=1 idx=011673 GeodesicLength=0.13302231073638585 rxn_smarts="[O:1]([C:2]([C@@:3]1([H:11])[C:4]([H:12])([H:13])[C@:5]1([C:6]#[C:7][H:15])[H:14])([H:9])[H:10])[H:8]>>[O:1]([C@:2]1([H:10])[C@@:3]2([H:11])[C:4]([H:12])([H:13])[C@@:5]2([H:14])[C:6]1=[C:7]([H:9])[H:15])[H:8]"
O       -1.59475979      -0.46015533       1.49760589
C       -1.03443094       0.24599207       0.49943433
C       -0.69058140      -0.43713642      -0.79642211
C        0.15233138       0.39415113      -1.71440530
C        0.81124080      -0.48120904      -0.69923983
C        0.96273669       0.17379657       0.64144986
C        1.72765694      -0.05048230       1.70469293
H       -1.15315763      -1.31268271       1.57476911
H        0.43953705       1.20857415       0.72435859
H       -1.53569327       1.21319581       0.44302741
H       -1.33942193      -1.21805345      -1.17611928
H        0.18290399       0.06575170      -2.74488465
H        0.18130790       1.47106373      -1.58552857
H        1.43250881      -1.32113325      -0.97665680
H        1.45782139       0.50832735       2.60791841
15
Frame=2 idx=011673 GeodesicLength=0.26577817687145666 rxn_smarts="[O:1]([C:2]([C@@:3]1([H:11])[C:4]([H:12])([H:13])[C@:5]1([C:6]#[C:7][H:15])[H:14])([H:9])[H:10])[H:8]>>[O:1]([C@:2]1([H:10])[C@@:3]2([H:11])[C:4]([H:12])([H:13])[C@@:5]2([H:14])[C:6]1=[C:7]([H:9])[H:15])[H:8]"
O       -1.61614887      -0.47257106       1.48219647
C       -1.03547160       0.24408546       0.49811009
C       -0.69464597      -0.43354124      -0.80255543
C        0.15737514       0.39345650      -1.71481348
C        0.80728953      -0.49178669      -0.70131255
C        0.96582474       0.15864101       0.63630240
C        1.71898007      -0.04542512       1.70442078
H       -1.16082127      -1.31668532       1.56993616
H        0.42176721       1.20981696       0.79972877
H       -1.55070026       1.20384849       0.43224892
H       -1.34443525      -1.21003372      -1.18932755
H        0.19177505       0.06809317      -2.74625744
H        0.19485100       1.46954772      -1.58199294
H        1.41886097      -1.33792441      -0.98138241
H        1.52549951       0.56047823       2.59469820
15
Frame=3 idx=011673 GeodesicLength=0.39826399869013457 rxn_smarts="[O:1]([C:2]([C@@:3]1([H:11])[C:4]([H:12])([H:13])[C@:5]1([C:6]#[C:7][H:15])[H:14])([H:9])[H:10])[H:8]>>[O:1]([C@:2]1([H:10])[C@@:3]2([H:11])[C:4]([H:12])([H:13])[C@@:5]2([H:14])[C:6]1=[C:7]([H:9])[H:15])[H:8]"
O       -1.63860946      -0.48436530       1.46547403
C       -1.03723202       0.24276589       0.49629394
C       -0.69832513      -0.42990591      -0.80858838
C        0.16261028       0.39243716      -1.71542029
C        0.80357551      -0.50133019      -0.70257242
C        0.96819730       0.14652506       0.63138737
C        1.70881446      -0.03958297       1.70439800
H       -1.16907515      -1.31911189       1.56568173
H        0.40027662       1.20800376       0.87993663
H       -1.56588848       1.19498129       0.42038291
H       -1.34830634      -1.20260456      -1.20224761
H        0.20153126       0.06924004      -2.74747903
H        0.20767237       1.46773675      -1.57942117
H        1.40601122      -1.35335834      -0.98445710
H        1.59874755       0.60856921       2.57663139
15
Frame=4 idx=011673 GeodesicLength=0.5305995835184689 rxn_smarts="[O:1]([C:2]([C@@:3]1([H:11])[C:4]([H:12])([H:13])[C@:5]1([C:6]#[C:7][H:15])[H:14])([H:9])[H:10])[H:8]>>[O:1]([C@:2]1([H:10])[C@@:3]2([H:11])[C:4]([H:12])([H:13])[C@@:5]2([H:14])[C:6]1=[C:7]([H:9])[H:15])[H:8]"
O       -1.66240340      -0.49570103       1.44726083
C       -1.03983043       0.24197717       0.49403130
C       -0.70163179      -0.42618675      -0.81451689
C        0.16816837       0.39116451      -1.71608636
C        0.80012563      -0.50983069      -0.70284348
C        0.96972731       0.13733575       0.62693193
C        1.69707246      -0.03250683       1.70498640
H       -1.17852638      -1.32020984       1.56170485
H        0.37456601       1.20212554       0.96545113
H       -1.58117549       1.18666805       0.40760368
H       -1.35104518      -1.19568316      -1.21501171
H        0.21241448       0.06928645      -2.74840293
H        0.21987416       1.46573804      -1.57765338
H        1.39404089      -1.36746575      -0.98560811
H        1.67862337       0.65328852       2.55215274
15
Frame=5 idx=011673 GeodesicLength=0.6625294194659 rxn_smarts="[O:1]([C:2]([C@@:3]1([H:11])[C:4]([H:12])([H:13])[C@:5]1([C:6]#[C:7][H:15])[H:14])([H:9])[H:10])[H:8]>>[O:1]([C@:2]1([H:10])[C@@:3]2([H:11])[C:4]([H:12])([H:13])[C@@:5]2([H:14])[C:6]1=[C:7]([H:9])[H:15])[H:8]"
O       -1.68661280      -0.50618468       1.42802500
C       -1.04276595       0.24203994       0.49147363
C       -0.70444306      -0.42233066      -0.82026402
C        0.17380771       0.38952850      -1.71723474
C        0.79703817      -0.51713923      -0.70238909
C        0.97077922       0.13143285       0.62261578
C        1.68497441      -0.02258941       1.70555836
H       -1.18839052      -1.31956671       1.55854789
H        0.34478810       1.19153362       1.05605535
H       -1.59598528       1.17932462       0.39409839
H       -1.35254754      -1.18934595      -1.22723951
H        0.22392189       0.06786891      -2.74944912
H        0.23114650       1.46351360      -1.57741463
H        1.38304326      -1.38017228      -0.98500021
H        1.76124588       0.69208686       2.52261692
15
Frame=6 idx=011673 GeodesicLength=0.7942278016669081 rxn_smarts="[O:1]([C:2]([C@@:3]1([H:11])[C:4]([H:12])([H:13])[C@:5]1([C:6]#[C:7][H:15])[H:14])([H:9])[H:10])[H:8]>>[O:1]([C@:2]1([H:10])[C@@:3]2([H:11])[C:4]([H:12])([H:13])[C@@:5]2([H:14])[C:6]1=[C:7]([H:9])[H:15])[H:8]"
O       -1.71106170      -0.51583385       1.40789838
C       -1.04577390       0.24293755       0.48888133
C       -0.70679359      -0.41821731      -0.82564529
C        0.17964372       0.38754940      -1.71868592
C        0.79440726      -0.52336447      -0.70126249
C        0.97167315       0.12852138       0.61829994
C        1.67350429      -0.00895995       1.70561788
H       -1.19913682      -1.31752863       1.55572095
H        0.31118371       1.17487419       1.15167059
H       -1.60976621       1.17310946       0.38048213
H       -1.35311804      -1.18332265      -1.23871838
H        0.23600305       0.06503283      -2.75037207
H        0.24181526       1.46109373      -1.57849849
H        1.37297614      -1.39167511      -0.98273399
H        1.84444368       0.72578342       2.48734541
15
Frame=7 idx=011673 GeodesicLength=0.9256152051170885 rxn_smarts="[O:1]([C:2]([C@@:3]1([H:11])[C:4]([H:12])([H:13])[C@:5]1([C:6]#[C:7][H:15])[H:14])([H:9])[H:10])[H:8]>>[O:1]([C@:2]1([H:10])[C@@:3]2([H:11])[C:4]([H:12])([H:13])[C@@:5]2([H:14])[C:6]1=[C:7]([H:9])[H:15])[H:8]"
O       -1.73457992      -0.52429475       1.38749988
C       -1.04797788       0.24494663       0.48657972
C       -0.70864891      -0.41370380      -0.83056077
C        0.18536609       0.38511359      -1.72092714
C        0.79228762      -0.52861390      -0.70008264
C        0.97317082       0.12848675       0.61326627
C        1.66433996       0.00942894       1.70396001
H       -1.20982189      -1.31389499       1.55360295
H        0.27485668       1.15097717       1.25146650
H       -1.62149593       1.16848946       0.36736905
H       -1.35303134      -1.17741104      -1.24898895
H        0.24778964       0.06052396      -2.75167138
H        0.25179591       1.45840127      -1.58158877
H        1.36362337      -1.40223894      -0.97954856
H        1.92232579       0.75378967       2.44962384
15
Frame=8 idx=011673 GeodesicLength=1.0568922442825452 rxn_smarts="[O:1]([C:2]([C@@:3]1([H:11])[C:4]([H:12])([H:13])[C@:5]1([C:6]#[C:7][H:15])[H:14])([H:9])[H:10])[H:8]>>[O:1]([C@:2]1([H:10])[C@@:3]2([H:11])[C:4]([H:12])([H:13])[C@@:5]2([H:14])[C:6]1=[C:7]([H:9])[H:15])[H:8]"
O       -1.75701925      -0.53165016       1.36692191
C       -1.04895096       0.24801898       0.48488491
C       -0.71013629      -0.40859591      -0.83499073
C        0.19100592       0.38226536      -1.72396465
C        0.79062286      -0.53330596      -0.69912755
C        0.97567497       0.13049398       0.60728707
C        1.65804373       0.03281921       1.70026808
H       -1.22082287      -1.30923439       1.55169007
H        0.23680613       1.11796718       1.35501616
H       -1.63050268       1.16573948       0.35546600
H       -1.35281575      -1.17110018      -1.25811527
H        0.25898648       0.05454088      -2.75341446
H        0.26151737       1.45548580      -1.58653341
H        1.35459953      -1.41247588      -0.97587500
H        1.99299081       0.77903162       2.41048687
15
Frame=9 idx=011673 GeodesicLength=1.187717245501245 rxn_smarts="[O:1]([C:2]([C@@:3]1([H:11])[C:4]([H:12])([H:13])[C@:5]1([C:6]#[C:7][H:15])[H:14])([H:9])[H:10])[H:8]>>[O:1]([C@:2]1([H:10])[C@@:3]2([H:11])[C:4]([H:12])([H:13])[C@@:5]2([H:14])[C:6]1=[C:7]([H:9])[H:15])[H:8]"
O       -1.77744159      -0.53755089       1.34658242
C       -1.04776451       0.25231207       0.48417207
C       -0.71124960      -0.40264995      -0.83889527
C        0.19629428       0.37883517      -1.72822916
C        0.78929203      -0.53767951      -0.69911327
C        0.97992560       0.13400156       0.59959000
C        1.65495700       0.06146681       1.69371455
H       -1.23140500      -1.30338003       1.55020010
H        0.19836309       1.07401384       1.46107868
H       -1.63564686       1.16514037       0.34548409
H       -1.35280344      -1.16384797      -1.26582391
H        0.26871925       0.04694205      -2.75610012
H        0.27106935       1.45200227      -1.59379441
H        1.34540077      -1.42268486      -0.97265002
H        2.05228963       0.80307908       2.37378424
15
Frame=10 idx=011673 GeodesicLength=1.3184061846814483 rxn_smarts="[O:1]([C:2]([C@@:3]1([H:11])[C:4]([H:12])([H:13])[C@:5]1([C:6]#[C:7][H:15])[H:14])([H:9])[H:10])[H:8]>>[O:1]([C@:2]1([H:10])[C@@:3]2([H:11])[C:4]([H:12])([H:13])[C@@:5]2([H:14])[C:6]1=[C:7]([H:9])[H:15])[H:8]"
O       -1.79668261      -0.54226565       1.32613475
C       -1.04438091       0.25752676       0.48479396
C       -0.71221226      -0.39564185      -0.84227002
C        0.20163321       0.37498239      -1.73321375
C        0.78813825      -0.54251599      -0.69991154
C        0.98605558       0.13748888       0.59049081
C        1.65418553       0.09575794       1.68514112
H       -1.24325124      -1.29762920       1.54782047
H        0.16037551       1.01662662       1.56937151
H       -1.63655946       1.16688387       0.33813552
H       -1.35372182      -1.15489461      -1.27263356
H        0.27726779       0.03827220      -2.75934387
H        0.28143904       1.44813373      -1.60235934
H        1.33549376      -1.43391095      -0.96986051
H        2.10221962       0.83118586       2.33770445
15
Frame=11 idx=011673 GeodesicLength=1.4488625105495703 rxn_smarts="[O:1]([C:2]([C@@:3]1([H:11])[C:4]([H:12])([H:13])[C@:5]1([C:6]#[C:7][H:15])[H:14])([H:9])[H:10])[H:8]>>[O:1]([C@:2]1([H:10])[C@@:3]2([H:11])[C:4]([H:12])([H:13])[C@@:5]2([H:14])[C:6]1=[C:7]([H:9])[H:15])[H:8]"
O       -1.81475210      -0.54557693       1.30565684
C       -1.03822030       0.26354119       0.48723677
C       -0.71305793      -0.38727288      -0.84500094
C        0.20720453       0.37067780      -1.73876636
C        0.78698569      -0.54845583      -0.70175522
C        0.99460636       0.13964429       0.57982576
C        1.65461643       0.13652815       1.67482505
H       -1.25695463      -1.29256498       1.54397236
H        0.12410031       0.94328003       1.67887981
H       -1.63233041       1.17115155       0.33419225
H       -1.35606914      -1.14338125      -1.27862541
H        0.28442191       0.02878337      -2.76311859
H        0.29340037       1.44369924      -1.61176417
H        1.32422757      -1.44694034      -0.96791029
H        2.14182136       0.86688658       2.30235214
15
Frame=12 idx=011673 GeodesicLength=1.5791753887348006 rxn_smarts="[O:1]([C:2]([C@@:3]1([H:11])[C:4]([H:12])([H:13])[C@:5]1([C:6]#[C:7][H:15])[H:14])([H:9])[H:10])[H:8]>>[O:1]([C@:2]1([H:10])[C@@:3]2([H:11])[C:4]([H:12])([H:13])[C@@:5]2([H:14])[C:6]1=[C:7]([H:9])[H:15])[H:8]"
O       -1.83180817      -0.54710247       1.28539261
C       -1.02869877       0.27020668       0.49213201
C       -0.71383647      -0.37725915      -0.84695090
C        0.21328311       0.36587720      -1.74469540
C        0.78576677      -0.55631018      -0.70488864
C        1.00644453       0.13892990       0.56753048
C        1.65451847       0.18498856       1.66336219
H       -1.27333837      -1.28891095       1.53791181
H        0.09132236       0.85137206       1.78843114
H       -1.62207629       1.17818906       0.33459872
H       -1.36051557      -1.12842883      -1.28395049
H        0.29000522       0.01871800      -2.76745193
H        0.30794051       1.43856130      -1.62137257
H        1.31101577      -1.46279273      -0.96731151
H        2.16997690       0.91396155       2.26726246
15
Frame=13 idx=011673 GeodesicLength=1.708821929213319 rxn_smarts="[O:1]([C:2]([C@@:3]1([H:11])[C:4]([H:12])([H:13])[C@:5]1([C:6]#[C:7][H:15])[H:14])([H:9])[H:10])[H:8]>>[O:1]([C@:2]1([H:10])[C@@:3]2([H:11])[C:4]([H:12])([H:13])[C@@:5]2([H:14])[C:6]1=[C:7]([H:9])[H:15])[H:8]"
O       -1.84714386      -0.54606379       1.26581870
C       -1.01461518       0.27730504       0.50002360
C       -0.71424351      -0.36522413      -0.84758885
C        0.22005565       0.36058598      -1.75054020
C        0.78417459      -0.56690176      -0.70945135
C        1.02250968       0.13336330       0.55332379
C        1.65097811       0.24237502       1.65048385
H       -1.29258655      -1.28701380       1.52914341
H        0.06432323       0.73821894       1.89561048
H       -1.60400863       1.18804165       0.33995746
H       -1.36722470      -1.10890229      -1.28795602
H        0.29355557       0.00856243      -2.77184809
H        0.32612010       1.43244042      -1.63046717
H        1.29484198      -1.48233540      -0.96855264
H        2.18326352       0.97554838       2.23204303
15
Frame=14 idx=011673 GeodesicLength=1.837929981025503 rxn_smarts="[O:1]([C:2]([C@@:3]1([H:11])[C:4]([H:12])([H:13])[C@:5]1([C:6]#[C:7][H:15])[H:14])([H:9])[H:10])[H:8]>>[O:1]([C@:2]1([H:10])[C@@:3]2([H:11])[C:4]([H:12])([H:13])[C@@:5]2([H:14])[C:6]1=[C:7]([H:9])[H:15])[H:8]"
O       -1.85984642      -0.54138710       1.24845303
C       -0.99540013       0.28495055       0.51129201
C       -0.71399852      -0.35136024      -0.84671026
C        0.22728032       0.35468450      -1.75668375
C        0.78275784      -0.58011337      -0.71595839
C        1.04458103       0.12295928       0.53672977
C        1.63922502       0.30806746       1.63736346
H       -1.31344600      -1.28599430       1.51848920
H        0.04577824       0.60573596       1.99684412
H       -1.57833586       1.20044471       0.35035766
H       -1.37610591      -1.08529728      -1.29003868
H        0.29430230      -0.00191096      -2.77693035
H        0.34773716       1.42523779      -1.63940826
H        1.27628219      -1.50531596      -0.97262078
H        2.17918875       1.04929896       2.19882123
15
Frame=15 idx=011673 GeodesicLength=1.9660689623630676 rxn_smarts="[O:1]([C:2]([C@@:3]1([H:11])[C:4]([H:12])([H:13])[C@:5]1([C:6]#[C:7][H:15])[H:14])([H:9])[H:10])[H:8]>>[O:1]([C@:2]1([H:10])[C@@:3]2([H:11])[C:4]([H:12])([H:13])[C@@:5]2([H:14])[C:6]1=[C:7]([H:9])[H:15])[H:8]"
O       -1.86780651      -0.53233938       1.23483565
C       -0.97126642       0.29358160       0.52500096
C       -0.71240603      -0.33639187      -0.84395649
C        0.23390486       0.34820953      -1.76356327
C        0.78207199      -0.59396560      -0.72418135
C        1.07312899       0.11106158       0.51695928
C        1.61319981       0.37847583       1.62427808
H       -1.33212031      -1.28344848       1.50826276
H        0.03699289       0.46189821       2.08671281
H       -1.54716469       1.21422922       0.36333135
H       -1.38520842      -1.05994309      -1.28846858
H        0.29143445      -0.01339622      -2.78262611
H        0.37024810       1.41714927      -1.64982717
H        1.25680512      -1.52914730      -0.97904898
H        2.15818617       1.12402671       2.17229104
15
Frame=16 idx=011673 GeodesicLength=2.0938149096248666 rxn_smarts="[O:1]([C:2]([C@@:3]1([H:11])[C:4]([H:12])([H:13])[C@:5]1([C:6]#[C:7][H:15])[H:14])([H:9])[H:10])[H:8]>>[O:1]([C@:2]1([H:10])[C@@:3]2([H:11])[C:4]([H:12])([H:13])[C@@:5]2([H:14])[C:6]1=[C:7]([H:9])[H:15])[H:8]"
O       -1.86984021      -0.51944828       1.22618384
C       -0.94512296       0.30422226       0.53862163
C       -0.70925305      -0.32204654      -0.83984159
C        0.23783623       0.34117251      -1.77277800
C        0.78331848      -0.60407211      -0.73333170
C        1.10658331       0.10622613       0.49328445
C        1.56962027       0.44736886       1.61191942
H       -1.34347608      -1.27613557       1.50232058
H        0.03604849       0.32302727       2.16113376
H       -1.51730875       1.22755471       0.37361601
H       -1.39152809      -1.03826867      -1.28197037
H        0.28456860      -0.02782167      -2.78974855
H        0.38761407       1.40891614      -1.66581016
H        1.24068638      -1.54833725      -0.98561225
H        2.13025331       1.17764221       2.16201294
