11
Frame=0 idx=004791 GeodesicLength=0.0 rxn_smarts="[C:1]([c:2]1[c:3]([H:10])[o:4][n:5][c:6]1[H:11])([H:7])([H:8])[H:9]>>[C:1]([C@@:2]1([C:3](=[O:4])[H:10])[N:5]=[C:6]1[H:11])([H:7])([H:8])[H:9]"
C       -1.35340967      -0.04649133      -0.10931844
C        0.11903181      -0.01426112       0.10560004
C        0.94313317      -1.17251864       0.13602497
O        2.10648049      -1.24510012      -0.20996149
N        1.91700030       1.23215669      -0.43933450
C        0.80320702       1.27800551       0.08533176
H       -1.75513525      -1.00280892       0.22926372
H       -1.85422849       0.76168964       0.43217012
H       -1.61718454       0.05287159      -1.16686388
H        0.44908202      -2.03753472       0.62219431
H        0.24202309       2.19399141       0.31489343
11
Frame=1 idx=004791 GeodesicLength=0.0699256523235581 rxn_smarts="[C:1]([c:2]1[c:3]([H:10])[o:4][n:5][c:6]1[H:11])([H:7])([H:8])[H:9]>>[C:1]([C@@:2]1([C:3](=[O:4])[H:10])[N:5]=[C:6]1[H:11])([H:7])([H:8])[H:9]"
C       -1.35559827      -0.04658671      -0.11321655
C        0.11719049      -0.01164441       0.10259994
C        0.94428981      -1.16734493       0.14908728
O        2.11593700      -1.21340556      -0.18553510
N        1.88823025       1.20185280      -0.48509395
C        0.80723535       1.27560174       0.10637380
H       -1.75982584      -0.99891079       0.23437811
H       -1.85789394       0.76583771       0.42043409
H       -1.61650110       0.04373720      -1.17224348
H        0.45072298      -2.04995460       0.60066200
H        0.26621328       2.20081753       0.34255388
11
Frame=2 idx=004791 GeodesicLength=0.14139462309902817 rxn_smarts="[C:1]([c:2]1[c:3]([H:10])[o:4][n:5][c:6]1[H:11])([H:7])([H:8])[H:9]>>[C:1]([C@@:2]1([C:3](=[O:4])[H:10])[N:5]=[C:6]1[H:11])([H:7])([H:8])[H:9]"
C       -1.35730995      -0.04712576      -0.11687389
C        0.11518207      -0.00868944       0.09953638
C        0.94473406      -1.16103473       0.16269497
O        2.12187560      -1.18179192      -0.16540951
N        1.85985104       1.17220707      -0.52210062
C        0.81065141       1.27292196       0.12366361
H       -1.76375240      -0.99386384       0.24229687
H       -1.86034710       0.77085536       0.40655050
H       -1.61584026       0.03060845      -1.17713779
H        0.45327592      -2.06065060       0.57779638
H        0.29167961       2.20656345       0.36898310
11
Frame=3 idx=004791 GeodesicLength=0.21190465750825893 rxn_smarts="[C:1]([c:2]1[c:3]([H:10])[o:4][n:5][c:6]1[H:11])([H:7])([H:8])[H:9]>>[C:1]([C@@:2]1([C:3](=[O:4])[H:10])[N:5]=[C:6]1[H:11])([H:7])([H:8])[H:9]"
C       -1.35950215      -0.04779515      -0.12018161
C        0.11313208      -0.00558454       0.09652626
C        0.94535429      -1.15477018       0.17706822
O        2.12688616      -1.15143586      -0.14827813
N        1.83345442       1.14376862      -0.55256739
C        0.81380268       1.27061670       0.13838523
H       -1.76808884      -0.98865111       0.25184553
H       -1.86342241       0.77634263       0.39211947
H       -1.61590818       0.01619464      -1.18170046
H        0.45692089      -2.07128593       0.55390182
H        0.31737106       2.21260017       0.39288106
11
Frame=4 idx=004791 GeodesicLength=0.28252117320078274 rxn_smarts="[C:1]([c:2]1[c:3]([H:10])[o:4][n:5][c:6]1[H:11])([H:7])([H:8])[H:9]>>[C:1]([C@@:2]1([C:3](=[O:4])[H:10])[N:5]=[C:6]1[H:11])([H:7])([H:8])[H:9]"
C       -1.36162639      -0.04867104      -0.12290721
C        0.11107614      -0.00227141       0.09455967
C        0.94605896      -1.14802148       0.19341607
O        2.13056068      -1.12158503      -0.13235933
N        1.80756412       1.11610087      -0.57885750
C        0.81659424       1.26861404       0.15129229
H       -1.77239859      -0.98268491       0.26373202
H       -1.86655214       0.78259038       0.37632664
H       -1.61558781      -0.00072448      -1.18570398
H        0.46066035      -2.08208916       0.52558835
H        0.34365045       2.21874222       0.41491296
11
Frame=5 idx=004791 GeodesicLength=0.35339639431260317 rxn_smarts="[C:1]([c:2]1[c:3]([H:10])[o:4][n:5][c:6]1[H:11])([H:7])([H:8])[H:9]>>[C:1]([C@@:2]1([C:3](=[O:4])[H:10])[N:5]=[C:6]1[H:11])([H:7])([H:8])[H:9]"
C       -1.36395952      -0.04978128      -0.12570567
C        0.10878198       0.00104607       0.09245835
C        0.94615737      -1.14120340       0.20972301
O        2.13276687      -1.09257415      -0.11895085
N        1.78242727       1.08930803      -0.60127023
C        0.81910203       1.26652386       0.16300363
H       -1.77692999      -0.97615928       0.27656791
H       -1.86961190       0.78906871       0.35921463
H       -1.61563364      -0.01929377      -1.18947144
H        0.46600294      -2.09121814       0.49767569
H        0.37089660       2.22428334       0.43675499
11
Frame=6 idx=004791 GeodesicLength=0.4241492880870956 rxn_smarts="[C:1]([c:2]1[c:3]([H:10])[o:4][n:5][c:6]1[H:11])([H:7])([H:8])[H:9]>>[C:1]([C@@:2]1([C:3](=[O:4])[H:10])[N:5]=[C:6]1[H:11])([H:7])([H:8])[H:9]"
C       -1.36637894      -0.05103913      -0.12812395
C        0.10645417       0.00433717       0.09076766
C        0.94613292      -1.13448599       0.22640203
O        2.13421295      -1.06417681      -0.10568842
N        1.75788650       1.06309240      -0.62077719
C        0.82125008       1.26454336       0.17355158
H       -1.78152991      -0.96920678       0.29045931
H       -1.87281801       0.79566350       0.34168448
H       -1.61568395      -0.03893213      -1.19265545
H        0.47187825      -2.09950452       0.46736346
H        0.39859593       2.22970893       0.45701650
11
Frame=7 idx=004791 GeodesicLength=0.4951806326103657 rxn_smarts="[C:1]([c:2]1[c:3]([H:10])[o:4][n:5][c:6]1[H:11])([H:7])([H:8])[H:9]>>[C:1]([C@@:2]1([C:3](=[O:4])[H:10])[N:5]=[C:6]1[H:11])([H:7])([H:8])[H:9]"
C       -1.36914359      -0.05248971      -0.13073195
C        0.10382772       0.00750449       0.08861250
C        0.94527041      -1.12805958       0.24154265
O        2.13482945      -1.03634329      -0.09369133
N        1.73400339       1.03774543      -0.63764362
C        0.82316595       1.26235121       0.18332510
H       -1.78650216      -0.96181971       0.30463209
H       -1.87596004       0.80215906       0.32329200
H       -1.61646992      -0.05944463      -1.19556896
H        0.47953663      -2.10586392       0.43869869
H        0.42744217       2.23426065       0.47753281
11
Frame=8 idx=004791 GeodesicLength=0.5662925657768846 rxn_smarts="[C:1]([c:2]1[c:3]([H:10])[o:4][n:5][c:6]1[H:11])([H:7])([H:8])[H:9]>>[C:1]([C@@:2]1([C:3](=[O:4])[H:10])[N:5]=[C:6]1[H:11])([H:7])([H:8])[H:9]"
C       -1.37200935      -0.05406915      -0.13318827
C        0.10108802       0.01058423       0.08642815
C        0.94410263      -1.12191390       0.25558023
O        2.13491535      -1.00891365      -0.08150862
N        1.71054067       1.01294895      -0.65241376
C        0.82463914       1.26011701       0.19223074
H       -1.79149770      -0.95401090       0.31923975
H       -1.87915186       0.80852200       0.30460387
H       -1.61744599      -0.08058454      -1.19793034
H        0.48786474      -2.11096206       0.40961137
H        0.45695434       2.23828200       0.49734687
11
Frame=9 idx=004791 GeodesicLength=0.6374804432998167 rxn_smarts="[C:1]([c:2]1[c:3]([H:10])[o:4][n:5][c:6]1[H:11])([H:7])([H:8])[H:9]>>[C:1]([C@@:2]1([C:3](=[O:4])[H:10])[N:5]=[C:6]1[H:11])([H:7])([H:8])[H:9]"
C       -1.37517284      -0.05580238      -0.13574087
C        0.09811020       0.01358532       0.08406867
C        0.94244966      -1.11606777       0.26818169
O        2.13449937      -0.98182992      -0.06998481
N        1.68755124       0.98902217      -0.66535126
C        0.82579831       1.25781950       0.20055638
H       -1.79680712      -0.94567491       0.33427467
H       -1.88244238       0.81483991       0.28499834
H       -1.61892608      -0.10262039      -1.19997445
H        0.49735248      -2.11475439       0.38152869
H        0.48758714       2.24148286       0.51744295
11
Frame=10 idx=004791 GeodesicLength=0.7087453227332724 rxn_smarts="[C:1]([c:2]1[c:3]([H:10])[o:4][n:5][c:6]1[H:11])([H:7])([H:8])[H:9]>>[C:1]([C@@:2]1([C:3](=[O:4])[H:10])[N:5]=[C:6]1[H:11])([H:7])([H:8])[H:9]"
C       -1.37853753      -0.05768547      -0.13833811
C        0.09494094       0.01654057       0.08165023
C        0.94045423      -1.11046242       0.27959052
O        2.13358845      -0.95509265      -0.05905542
N        1.66496409       0.96589487      -0.67664734
C        0.82658312       1.25553026       0.20838003
H       -1.80231412      -0.93686055       0.34956997
H       -1.88583564       0.82099044       0.26467881
H       -1.62068516      -0.12538792      -1.20162645
H        0.50764203      -2.11736745       0.35422215
H        0.51919959       2.24390032       0.53757560
11
Frame=11 idx=004791 GeodesicLength=0.7800883026007628 rxn_smarts="[C:1]([c:2]1[c:3]([H:10])[o:4][n:5][c:6]1[H:11])([H:7])([H:8])[H:9]>>[C:1]([C@@:2]1([C:3](=[O:4])[H:10])[N:5]=[C:6]1[H:11])([H:7])([H:8])[H:9]"
C       -1.38209456      -0.05971642      -0.14106821
C        0.09156684       0.01947082       0.07913914
C        0.93811985      -1.10504890       0.28981247
O        2.13212382      -0.92874484      -0.04915987
N        1.64274830       0.94364734      -0.68649283
C        0.82699623       1.25326878       0.21582431
H       -1.80801667      -0.92767917       0.36477131
H       -1.88933297       0.82682421       0.24376061
H       -1.62267910      -0.14861363      -1.20296499
H        0.51874589      -2.11882196       0.32847758
H        0.55182237       2.24541378       0.55790047
11
Frame=12 idx=004791 GeodesicLength=0.8515079516786119 rxn_smarts="[C:1]([c:2]1[c:3]([H:10])[o:4][n:5][c:6]1[H:11])([H:7])([H:8])[H:9]>>[C:1]([C@@:2]1([C:3](=[O:4])[H:10])[N:5]=[C:6]1[H:11])([H:7])([H:8])[H:9]"
C       -1.38584557      -0.06189271      -0.14392211
C        0.08799052       0.02241360       0.07658514
C        0.93555914      -1.09974270       0.29893521
O        2.13018757      -0.90266845      -0.04017019
N        1.62081326       0.92229368      -0.69511961
C        0.82699420       1.25108626       0.22290025
H       -1.81392667      -0.91801177       0.38001351
H       -1.89297468       0.83237910       0.22205347
H       -1.62485903      -0.17247178      -1.20394465
H        0.53049801      -2.11928827       0.30406611
H        0.58556325       2.24590305       0.57860287
11
Frame=13 idx=004791 GeodesicLength=0.9231758245002102 rxn_smarts="[C:1]([c:2]1[c:3]([H:10])[o:4][n:5][c:6]1[H:11])([H:7])([H:8])[H:9]>>[C:1]([C@@:2]1([C:3](=[O:4])[H:10])[N:5]=[C:6]1[H:11])([H:7])([H:8])[H:9]"
C       -1.38978371      -0.06424201      -0.14694732
C        0.08417903       0.02541576       0.07393998
C        0.93275545      -1.09440244       0.30700837
O        2.12770774      -0.87671477      -0.03222007
N        1.59901926       0.90192283      -0.70267755
C        0.82653085       1.24903422       0.22964279
H       -1.82003937      -0.90762509       0.39553693
H       -1.89670088       0.83773209       0.19909290
H       -1.62722736      -0.19741384      -1.20451024
H        0.54286104      -2.11880563       0.28096412
H        0.62069794       2.24509888       0.60017007
11
Frame=14 idx=004791 GeodesicLength=0.9948420436686557 rxn_smarts="[C:1]([c:2]1[c:3]([H:10])[o:4][n:5][c:6]1[H:11])([H:7])([H:8])[H:9]>>[C:1]([C@@:2]1([C:3](=[O:4])[H:10])[N:5]=[C:6]1[H:11])([H:7])([H:8])[H:9]"
C       -1.39391307      -0.06674176      -0.15008853
C        0.08016178       0.02848534       0.07127398
C        0.92982473      -1.08908318       0.31427096
O        2.12482834      -0.85091458      -0.02507650
N        1.57744397       0.88249541      -0.70929388
C        0.82558456       1.24720067       0.23607124
H       -1.82635731      -0.89665648       0.41115508
H       -1.90060228       0.84276446       0.17521604
H       -1.62973841      -0.22310277      -1.20464514
H        0.55568273      -2.11749881       0.25890746
H        0.65708496       2.24305169       0.62220930
11
Frame=15 idx=004791 GeodesicLength=1.0666133833044438 rxn_smarts="[C:1]([c:2]1[c:3]([H:10])[o:4][n:5][c:6]1[H:11])([H:7])([H:8])[H:9]>>[C:1]([C@@:2]1([C:3](=[O:4])[H:10])[N:5]=[C:6]1[H:11])([H:7])([H:8])[H:9]"
C       -1.39820116      -0.06940175      -0.15336836
C        0.07593526       0.03165901       0.06856710
C        0.92677523      -1.08366912       0.32077616
O        2.12149570      -0.82518247      -0.01879600
N        1.55600420       0.86401654      -0.71508911
C        0.82412935       1.24563122       0.24217172
H       -1.83283649      -0.88516467       0.42665656
H       -1.90463989       0.84733962       0.15052991
H       -1.63235023      -0.24939565      -1.20432679
H        0.56887471      -2.11538444       0.23812946
H        0.69481332       2.23955171       0.64474935
11
Frame=16 idx=004791 GeodesicLength=1.138460753067373 rxn_smarts="[C:1]([c:2]1[c:3]([H:10])[o:4][n:5][c:6]1[H:11])([H:7])([H:8])[H:9]>>[C:1]([C@@:2]1([C:3](=[O:4])[H:10])[N:5]=[C:6]1[H:11])([H:7])([H:8])[H:9]"
C       -1.40266605      -0.07221089      -0.15680797
C        0.07149280       0.03496799       0.06579978
C        0.92363845      -1.07809202       0.32661918
O        2.11775076      -0.79947558      -0.01341892
N        1.53468321       0.84650572      -0.72019899
C        0.82215177       1.24437883       0.24793678
H       -1.83948795      -0.87323080       0.44186489
H       -1.90886330       0.85136801       0.12516832
H       -1.63507469      -0.27609172      -1.20358620
H        0.58243868      -2.11251295       0.21884296
H        0.73393632       2.23439341       0.66778016
