13
Frame=0 idx=008954 GeodesicLength=0.0 rxn_smarts="[O:1]=[C:2]1[C:3]([H:8])([H:9])[C:4]2([C:5]([H:10])([H:11])[O:6]2)[C:7]1([H:12])[H:13]>>[O:1]=[C:2]1[C:3]([H:8])([H:9])[C:4]([O:6][C:5]([H:10])([H:11])[H:13])=[C:7]1[H:12]"
O       -2.90949097      -0.44398100       0.10116164
C       -1.73114044      -0.28544265      -0.09612869
C       -0.83657030       0.98580800       0.05461218
C        0.29507703       0.07312687      -0.38529537
C        1.75821769       0.02540260       0.39084862
O        1.48850042       0.37932955      -0.96786362
C       -0.61897562      -1.07641055      -0.53917361
H       -0.77409219       1.45225093       1.03724633
H       -1.03768613       1.73409980      -0.71171291
H        1.98771980       0.85243279       1.05284032
H        2.36564473      -0.87280787       0.47381733
H       -0.46547313      -2.05885556      -0.95890456
H        0.47826912      -0.76495292       0.54855235
13
Frame=1 idx=008954 GeodesicLength=0.09734490168323788 rxn_smarts="[O:1]=[C:2]1[C:3]([H:8])([H:9])[C:4]2([C:5]([H:10])([H:11])[O:6]2)[C:7]1([H:12])[H:13]>>[O:1]=[C:2]1[C:3]([H:8])([H:9])[C:4]([O:6][C:5]([H:10])([H:11])[H:13])=[C:7]1[H:12]"
O       -2.91572716      -0.43699156       0.09140433
C       -1.73661894      -0.28117705      -0.09927707
C       -0.83768719       0.98536891       0.05471961
C        0.28978251       0.06811858      -0.38547449
C        1.76144736       0.02656481       0.39305303
O        1.48481979       0.36273100      -0.96887994
C       -0.62060772      -1.08307744      -0.52383688
H       -0.77850597       1.44793180       1.03947355
H       -1.03349226       1.73860629      -0.70821925
H        1.98658928       0.86690544       1.04012865
H        2.38866909      -0.85751532       0.47788438
H       -0.47830146      -2.04942185      -0.98327301
H        0.48963269      -0.78804360       0.57229709
13
Frame=2 idx=008954 GeodesicLength=0.1943957033336212 rxn_smarts="[O:1]=[C:2]1[C:3]([H:8])([H:9])[C:4]2([C:5]([H:10])([H:11])[O:6]2)[C:7]1([H:12])[H:13]>>[O:1]=[C:2]1[C:3]([H:8])([H:9])[C:4]([O:6][C:5]([H:10])([H:11])[H:13])=[C:7]1[H:12]"
O       -2.92160862      -0.43025239       0.08190831
C       -1.74188917      -0.27697393      -0.10272540
C       -0.83883386       0.98499808       0.05458150
C        0.28441272       0.06341283      -0.38640481
C        1.76433514       0.02742354       0.39532371
O        1.48144976       0.34633643      -0.96960399
C       -0.62209682      -1.08958879      -0.50875282
H       -0.78289750       1.44353996       1.04148866
H       -1.02946308       1.74323072      -0.70481125
H        1.98482215       0.88055038       1.02767117
H        2.41148733      -0.84181554       0.48150067
H       -0.49125969      -2.03893057      -1.00610641
H        0.50154164      -0.81193070       0.59593065
13
Frame=3 idx=008954 GeodesicLength=0.2912678869294116 rxn_smarts="[O:1]=[C:2]1[C:3]([H:8])([H:9])[C:4]2([C:5]([H:10])([H:11])[O:6]2)[C:7]1([H:12])[H:13]>>[O:1]=[C:2]1[C:3]([H:8])([H:9])[C:4]([O:6][C:5]([H:10])([H:11])[H:13])=[C:7]1[H:12]"
O       -2.92712994      -0.42375906       0.07266456
C       -1.74694571      -0.27278888      -0.10650010
C       -0.84001968       0.98475312       0.05419407
C        0.27895797       0.05912954      -0.38821740
C        1.76683192       0.02794063       0.39765538
O        1.47842947       0.33026363      -0.97005401
C       -0.62342520      -1.09581684      -0.49407866
H       -0.78725013       1.43907376       1.04331179
H       -1.02564871       1.74807249      -0.70143677
H        1.98239224       0.89327332       1.01556028
H        2.43402290      -0.82572950       0.48461643
H       -0.50421972      -2.02768083      -1.02703906
H        0.51400460      -0.83673138       0.61932350
13
Frame=4 idx=008954 GeodesicLength=0.3880603268529297 rxn_smarts="[O:1]=[C:2]1[C:3]([H:8])([H:9])[C:4]2([C:5]([H:10])([H:11])[O:6]2)[C:7]1([H:12])[H:13]>>[O:1]=[C:2]1[C:3]([H:8])([H:9])[C:4]([O:6][C:5]([H:10])([H:11])[H:13])=[C:7]1[H:12]"
O       -2.93228605      -0.41750420       0.06368600
C       -1.75178314      -0.26858077      -0.11060510
C       -0.84125242       0.98469290       0.05354765
C        0.27340850       0.05537990      -0.39103806
C        1.76888928       0.02807864       0.40004575
O        1.47579009       0.31460888      -0.97025219
C       -0.62457077      -1.10165516      -0.47991861
H       -0.79154277       1.43455118       1.04494813
H       -1.02210185       1.75321842      -0.69806280
H        1.97927572       0.90499775       1.00388575
H        2.45620269      -0.80927181       0.48721021
H       -0.51706466      -2.01594714      -1.04582230
H        0.52703538      -0.86256859       0.64237556
13
Frame=5 idx=008954 GeodesicLength=0.48487029978149354 rxn_smarts="[O:1]=[C:2]1[C:3]([H:8])([H:9])[C:4]2([C:5]([H:10])([H:11])[O:6]2)[C:7]1([H:12])[H:13]>>[O:1]=[C:2]1[C:3]([H:8])([H:9])[C:4]([O:6][C:5]([H:10])([H:11])[H:13])=[C:7]1[H:12]"
O       -2.93707864      -0.41148039       0.05503280
C       -1.75639218      -0.26431568      -0.11501052
C       -0.84253614       0.98487362       0.05262175
C        0.26775255       0.05225895      -0.39498532
C        1.77045573       0.02779850       0.40249975
O        1.47355504       0.29943422      -0.97022846
C       -0.62550852      -1.10702274      -0.46631557
H       -0.79574492       1.43001664       1.04637779
H       -1.01887664       1.75873033      -0.69468941
H        1.97544991       0.91567847       0.99273450
H        2.47795313      -0.79243883       0.48932097
H       -0.52970446      -2.00394181      -1.06236741
H        0.54067512      -0.88959129       0.66500913
13
Frame=6 idx=008954 GeodesicLength=0.5817302071408557 rxn_smarts="[O:1]=[C:2]1[C:3]([H:8])([H:9])[C:4]2([C:5]([H:10])([H:11])[O:6]2)[C:7]1([H:12])[H:13]>>[O:1]=[C:2]1[C:3]([H:8])([H:9])[C:4]([O:6][C:5]([H:10])([H:11])[H:13])=[C:7]1[H:12]"
O       -2.94150315      -0.40568100       0.04674418
C       -1.76077677      -0.25995792      -0.11967974
C       -0.84387643       0.98534801       0.05139944
C        0.26197741       0.04985039      -0.40014915
C        1.77149148       0.02707042       0.40502978
O        1.47173388       0.28478814      -0.96999565
C       -0.62620843      -1.11184932      -0.45325487
H       -0.79983305       1.42552621       1.04757790
H       -1.01602127       1.76465528      -0.69132300
H        1.97090160       0.92526991       0.98215783
H        2.49921250      -0.77523128       0.49097444
H       -0.54206074      -1.99187166      -1.07667374
H        0.55496297      -0.91791719       0.68719258
13
Frame=7 idx=008954 GeodesicLength=0.678724409662187 rxn_smarts="[O:1]=[C:2]1[C:3]([H:8])([H:9])[C:4]2([C:5]([H:10])([H:11])[O:6]2)[C:7]1([H:12])[H:13]>>[O:1]=[C:2]1[C:3]([H:8])([H:9])[C:4]([O:6][C:5]([H:10])([H:11])[H:13])=[C:7]1[H:12]"
O       -2.94555279      -0.40010636       0.03892294
C       -1.76492461      -0.25547964      -0.12454991
C       -0.84527395       0.98617240       0.04984327
C        0.25606694       0.04823383      -0.40663168
C        1.77193497       0.02584684       0.40764704
O        1.47033125       0.27069958      -0.96956299
C       -0.62662803      -1.11607389      -0.44068988
H       -0.80377226       1.42116557       1.04849416
H       -1.01359334       1.77102427      -0.68800836
H        1.96559377       0.93373218       0.97222348
H        2.51991109      -0.75762333       0.49225238
H       -0.55408240      -1.97986689      -1.08882906
H        0.56998937      -0.94772454       0.70888861
13
Frame=8 idx=008954 GeodesicLength=0.775867773748353 rxn_smarts="[O:1]=[C:2]1[C:3]([H:8])([H:9])[C:4]2([C:5]([H:10])([H:11])[O:6]2)[C:7]1([H:12])[H:13]>>[O:1]=[C:2]1[C:3]([H:8])([H:9])[C:4]([O:6][C:5]([H:10])([H:11])[H:13])=[C:7]1[H:12]"
O       -2.94920367      -0.39475879       0.03164659
C       -1.76883153      -0.25085925      -0.12956548
C       -0.84673193       0.98739601       0.04791941
C        0.25000161       0.04748011      -0.41452048
C        1.77173807       0.02409074       0.41036813
O        1.46934040       0.25719679      -0.96894507
C       -0.62672078      -1.11964353      -0.42855959
H       -0.80753462       1.41701578       1.04907257
H       -1.01164536       1.77786262      -0.68478610
H        1.95950406       0.94102843       0.96299425
H        2.53997779      -0.73960528       0.49321533
H       -0.56572425      -1.96803508      -1.09891297
H        0.58583021      -0.97916853       0.73007341
13
Frame=9 idx=008954 GeodesicLength=0.8733337350648733 rxn_smarts="[O:1]=[C:2]1[C:3]([H:8])([H:9])[C:4]2([C:5]([H:10])([H:11])[O:6]2)[C:7]1([H:12])[H:13]>>[O:1]=[C:2]1[C:3]([H:8])([H:9])[C:4]([O:6][C:5]([H:10])([H:11])[H:13])=[C:7]1[H:12]"
O       -2.95233015      -0.38966661       0.02538193
C       -1.77241447      -0.24609468      -0.13450058
C       -0.84821224       0.98909006       0.04546437
C        0.24380288       0.04762343      -0.42395233
C        1.77068457       0.02166955       0.41327177
O        1.46871182       0.24427516      -0.96801188
C       -0.62635007      -1.12248758      -0.41679209
H       -0.81103265       1.41334809       1.04906655
H       -1.01027133       1.78509867      -0.68195505
H        1.95227405       0.94703767       0.95462034
H        2.55937204      -0.72104632       0.49409880
H       -0.57704918      -1.95607890      -1.10721478
H        0.60281473      -1.01276853       0.75052295
13
Frame=10 idx=008954 GeodesicLength=0.9708370887311959 rxn_smarts="[O:1]=[C:2]1[C:3]([H:8])([H:9])[C:4]2([C:5]([H:10])([H:11])[O:6]2)[C:7]1([H:12])[H:13]>>[O:1]=[C:2]1[C:3]([H:8])([H:9])[C:4]([O:6][C:5]([H:10])([H:11])[H:13])=[C:7]1[H:12]"
O       -2.95500239      -0.38481810       0.01994922
C       -1.77572262      -0.24114582      -0.13944211
C       -0.84974811       0.99129021       0.04251974
C        0.23742350       0.04874020      -0.43496364
C        1.76885843       0.01860008       0.41633023
O        1.46845034       0.23203805      -0.96686877
C       -0.62551965      -1.12455238      -0.40531627
H       -0.81428638       1.41012214       1.04854622
H       -1.00949123       1.79282420      -0.67940419
H        1.94411297       0.95175634       0.94714562
H        2.57796173      -0.70203416       0.49484430
H       -0.58794515      -1.94439065      -1.11359793
H        0.62090857      -1.04843010       0.77025758
13
Frame=11 idx=008954 GeodesicLength=1.0683481399744146 rxn_smarts="[O:1]=[C:2]1[C:3]([H:8])([H:9])[C:4]2([C:5]([H:10])([H:11])[O:6]2)[C:7]1([H:12])[H:13]>>[O:1]=[C:2]1[C:3]([H:8])([H:9])[C:4]([O:6][C:5]([H:10])([H:11])[H:13])=[C:7]1[H:12]"
O       -2.95719455      -0.38023449       0.01552034
C       -1.77873807      -0.23599791      -0.14431749
C       -0.85133338       0.99404900       0.03901073
C        0.23085856       0.05087597      -0.44763372
C        1.76619522       0.01482517       0.41957223
O        1.46852090       0.22054375      -0.96550711
C       -0.62414795      -1.12577399      -0.39406200
H       -0.81726047       1.40746810       1.04740639
H       -1.00936022       1.80104085      -0.67725950
H        1.93493936       0.95513065       0.94069520
H        2.59565312      -0.68256069       0.49554617
H       -0.59840555      -1.93297441      -1.11813754
H        0.64027304      -1.08639201       0.78916629
13
Frame=12 idx=008954 GeodesicLength=1.1657943799755972 rxn_smarts="[O:1]=[C:2]1[C:3]([H:8])([H:9])[C:4]2([C:5]([H:10])([H:11])[O:6]2)[C:7]1([H:12])[H:13]>>[O:1]=[C:2]1[C:3]([H:8])([H:9])[C:4]([O:6][C:5]([H:10])([H:11])[H:13])=[C:7]1[H:12]"
O       -2.95886785      -0.37592602       0.01224784
C       -1.78144442      -0.23063417      -0.14906494
C       -0.85296454       0.99741913       0.03486322
C        0.22409907       0.05406954      -0.46201619
C        1.76263464       0.01028099       0.42301674
O        1.46887587       0.20985789      -0.96389966
C       -0.62216397      -1.12608637      -0.38296014
H       -0.81992839       1.40551976       1.04554172
H       -1.00992815       1.80974851      -0.67564590
H        1.92466027       0.95708263       0.93538712
H        2.61235351      -0.66260879       0.49629187
H       -0.60841565      -1.92183830      -1.12086579
H        0.66108962      -1.12688480       0.80710411
13
Frame=13 idx=008954 GeodesicLength=1.2631640593399691 rxn_smarts="[O:1]=[C:2]1[C:3]([H:8])([H:9])[C:4]2([C:5]([H:10])([H:11])[O:6]2)[C:7]1([H:12])[H:13]>>[O:1]=[C:2]1[C:3]([H:8])([H:9])[C:4]([O:6][C:5]([H:10])([H:11])[H:13])=[C:7]1[H:12]"
O       -2.95998327      -0.37191644       0.01032356
C       -1.78381816      -0.22503578      -0.15361132
C       -0.85464032       1.00146238       0.02998460
C        0.21712636       0.05836070      -0.47816411
C        1.75810886       0.00488744       0.42669354
O        1.46945028       0.20006930      -0.96202316
C       -0.61947623      -1.12540863      -0.37193091
H       -0.82226432       1.40444699       1.04282048
H       -1.01125351       1.81894090      -0.67472643
H        1.91317641       0.95752441       0.93137575
H        2.62793460      -0.64218385       0.49718992
H       -0.61795269      -1.91097010      -1.12180931
H        0.68359199      -1.17017732       0.82387740
13
Frame=14 idx=008954 GeodesicLength=1.3603346816250836 rxn_smarts="[O:1]=[C:2]1[C:3]([H:8])([H:9])[C:4]2([C:5]([H:10])([H:11])[O:6]2)[C:7]1([H:12])[H:13]>>[O:1]=[C:2]1[C:3]([H:8])([H:9])[C:4]([O:6][C:5]([H:10])([H:11])[H:13])=[C:7]1[H:12]"
O       -2.96050644      -0.36820379       0.00989091
C       -1.78585041      -0.21918800      -0.15789573
C       -0.85636049       1.00622597       0.02429665
C        0.20993623       0.06375259      -0.49607110
C        1.75257568      -0.00140812       0.43063965
O        1.47017302       0.19125464      -0.95983249
C       -0.61602324      -1.12368247      -0.36089980
H       -0.82425671       1.40440105       1.03912845
H       -1.01336708       1.82860287      -0.67465795
H        1.90038982       0.95639237       0.92880410
H        2.64230347      -0.62129518       0.49831766
H       -0.62700866      -1.90036813      -1.12095507
H        0.70799481      -1.21648380       0.83923472
13
Frame=15 idx=008954 GeodesicLength=1.457278963068016 rxn_smarts="[O:1]=[C:2]1[C:3]([H:8])([H:9])[C:4]2([C:5]([H:10])([H:11])[O:6]2)[C:7]1([H:12])[H:13]>>[O:1]=[C:2]1[C:3]([H:8])([H:9])[C:4]([O:6][C:5]([H:10])([H:11])[H:13])=[C:7]1[H:12]"
O       -2.96039600      -0.36478337       0.01109896
C       -1.78752983      -0.21307595      -0.16185605
C       -0.85812563       1.01175824       0.01771412
C        0.20251967       0.07023977      -0.51571508
C        1.74599259      -0.00866958       0.43488793
O        1.47095630       0.18350530      -0.95727898
C       -0.61174005      -1.12084599      -0.34978438
H       -0.82589643       1.40554949       1.03434184
H       -1.01629722       1.83871278      -0.67561464
H        1.88618327       0.95360528       0.92781532
H        2.65534351      -0.59996614       0.49976824
H       -0.63556148      -1.89001209      -1.11827314
H        0.73455132      -1.26601775       0.85289586
13
Frame=16 idx=008954 GeodesicLength=1.5539984230265382 rxn_smarts="[O:1]=[C:2]1[C:3]([H:8])([H:9])[C:4]2([C:5]([H:10])([H:11])[O:6]2)[C:7]1([H:12])[H:13]>>[O:1]=[C:2]1[C:3]([H:8])([H:9])[C:4]([O:6][C:5]([H:10])([H:11])[H:13])=[C:7]1[H:12]"
O       -2.95962186      -0.36163359       0.01408278
C       -1.78885294      -0.20668239      -0.16543292
C       -0.85993855       1.01810098       0.01015239
C        0.19486477       0.07778479      -0.53703301
C        1.73833258      -0.01696270       0.43947456
O        1.47169607       0.17691211      -0.95430499
C       -0.60657669      -1.11684305      -0.33849223
H       -0.82718683       1.40806591       1.02833478
H       -1.02005817       1.84923538      -0.67778545
H        1.87044684       0.94908469       0.92856658
H        2.66694100      -0.57822243       0.50164303
H       -0.64359685      -1.87988537      -1.11372255
H        0.76355064      -1.31895434       0.86451702
