13
Frame=0 idx=008476 GeodesicLength=0.0 rxn_smarts="[N:1]([c:2]1[c:3]([O:4][H:10])[c:5]([H:11])[c:6]([H:12])[n:7]1[H:13])([H:8])[H:9]>>[H:9][H:12].[N-:1]([C:2]1=[C:3]([O:4][H:10])[C:5]([H:11])=[C+:6][N:7]1[H:13])[H:8]"
N        1.47803227       0.93230540       0.08001463
C        0.58919587       0.31062341      -0.67221342
C        0.03689232      -0.99782646      -0.34285021
O        0.81777884      -2.08768848      -0.30016448
C       -1.18920599      -0.69672432       0.12264286
C       -1.49519940       0.75200306      -0.08326651
N       -0.45152733       1.10734984      -1.00982198
H        2.11842072       0.28848914       0.53524622
H        0.47820724       1.25055055       0.92979816
H        0.34163810      -2.80851753       0.12083267
H       -1.84411140      -1.35169359       0.68207669
H       -0.63960843       1.20744319       0.99462115
H       -0.24051280       2.09368585      -1.05691572
13
Frame=1 idx=008476 GeodesicLength=0.08012617168529657 rxn_smarts="[N:1]([c:2]1[c:3]([O:4][H:10])[c:5]([H:11])[c:6]([H:12])[n:7]1[H:13])([H:8])[H:9]>>[H:9][H:12].[N-:1]([C:2]1=[C:3]([O:4][H:10])[C:5]([H:11])=[C+:6][N:7]1[H:13])[H:8]"
N        1.48369122       0.93199282       0.08218360
C        0.59283742       0.30981327      -0.67015434
C        0.03621178      -0.99702973      -0.34527754
O        0.81951248      -2.08525398      -0.28941352
C       -1.19511141      -0.69925060       0.11540840
C       -1.49310062       0.74848003      -0.08230238
N       -0.45500370       1.10326666      -1.00770250
H        2.13890138       0.28691012       0.51354092
H        0.48690320       1.25772954       0.95384967
H        0.33841330      -2.80702204       0.12402921
H       -1.85505635      -1.35778346       0.66429223
H       -0.64945712       1.21875321       1.01313319
H       -0.24874157       2.08939415      -1.07158694
13
Frame=2 idx=008476 GeodesicLength=0.16022533084427965 rxn_smarts="[N:1]([c:2]1[c:3]([O:4][H:10])[c:5]([H:11])[c:6]([H:12])[n:7]1[H:13])([H:8])[H:9]>>[H:9][H:12].[N-:1]([C:2]1=[C:3]([O:4][H:10])[C:5]([H:11])=[C+:6][N:7]1[H:13])[H:8]"
N        1.48930367       0.93146420       0.08461304
C        0.59653049       0.30897477      -0.66815837
C        0.03556089      -0.99625596      -0.34780409
O        0.82116512      -2.08274044      -0.27833067
C       -1.20106529      -0.70181689       0.10780739
C       -1.49085046       0.74497353      -0.08120974
N       -0.45839358       1.09921811      -1.00557615
H        2.15934539       0.28565569       0.49103092
H        0.49586070       1.26466646       0.97859930
H        0.33514664      -2.80548881       0.12732830
H       -1.86586920      -1.36373968       0.64630148
H       -0.65972423       1.23025343       1.03187518
H       -0.25701013       2.08483557      -1.08647658
13
Frame=3 idx=008476 GeodesicLength=0.2403016681410599 rxn_smarts="[N:1]([c:2]1[c:3]([O:4][H:10])[c:5]([H:11])[c:6]([H:12])[n:7]1[H:13])([H:8])[H:9]>>[H:9][H:12].[N-:1]([C:2]1=[C:3]([O:4][H:10])[C:5]([H:11])=[C+:6][N:7]1[H:13])[H:8]"
N        1.49487353       0.93070148       0.08731409
C        0.60028208       0.30810157      -0.66623149
C        0.03494588      -0.99550988      -0.35042861
O        0.82273610      -2.08013955      -0.26687755
C       -1.20705881      -0.70442026       0.09983121
C       -1.48843549       0.74147751      -0.07998948
N       -0.46169096       1.09519796      -1.00345162
H        2.17971838       0.28477780       0.46771339
H        0.50510140       1.27135092       1.00407222
H        0.33180861      -2.80394237       0.13066053
H       -1.87652786      -1.36954613       0.62814672
H       -0.67043732       1.24196044       1.05084116
H       -0.26531555       2.07999052      -1.10160057
13
Frame=4 idx=008476 GeodesicLength=0.32035673050842783 rxn_smarts="[N:1]([c:2]1[c:3]([O:4][H:10])[c:5]([H:11])[c:6]([H:12])[n:7]1[H:13])([H:8])[H:9]>>[H:9][H:12].[N-:1]([C:2]1=[C:3]([O:4][H:10])[C:5]([H:11])=[C+:6][N:7]1[H:13])[H:8]"
N        1.50040662       0.92968199       0.09029456
C        0.60409924       0.30718702      -0.66438397
C        0.03437143      -0.99479630      -0.35315388
O        0.82422099      -2.07744105      -0.25501074
C       -1.21308264      -0.70705526       0.09147249
C       -1.48584143       0.73798772      -0.07863822
N       -0.46489086       1.09120254      -1.00133554
H        2.19997597       0.28433713       0.44358127
H        0.51465496       1.27776340       1.03029423
H        0.32837600      -2.80240113       0.13397163
H       -1.88701945      -1.37519316       0.60985152
H       -0.68161350       1.25388831       1.07003147
H       -0.27365732       2.07483880      -1.11697481
13
Frame=5 idx=008476 GeodesicLength=0.40038777759345584 rxn_smarts="[N:1]([c:2]1[c:3]([O:4][H:10])[c:5]([H:11])[c:6]([H:12])[n:7]1[H:13])([H:8])[H:9]>>[H:9][H:12].[N-:1]([C:2]1=[C:3]([O:4][H:10])[C:5]([H:11])=[C+:6][N:7]1[H:13])[H:8]"
N        1.50591203       0.92837481       0.09355413
C        0.60798354       0.30622600      -0.66263073
C        0.03383479      -0.99412015      -0.35600085
O        0.82560169      -2.07464257      -0.24274737
C       -1.21913373      -0.70971777       0.08271441
C       -1.48305608       0.73450137      -0.07715338
N       -0.46799079       1.08723534      -0.99923147
H        2.22006622       0.28436752       0.41865086
H        0.52455121       1.28388118       1.05728648
H        0.32486722      -2.80085515       0.13727631
H       -1.89733225      -1.38066903       0.59144304
H       -0.69327105       1.26604975       1.08943884
H       -0.28203279       2.06936872      -1.13260028
13
Frame=6 idx=008476 GeodesicLength=0.4803975920618386 rxn_smarts="[N:1]([c:2]1[c:3]([O:4][H:10])[c:5]([H:11])[c:6]([H:12])[n:7]1[H:13])([H:8])[H:9]>>[H:9][H:12].[N-:1]([C:2]1=[C:3]([O:4][H:10])[C:5]([H:11])=[C+:6][N:7]1[H:13])[H:8]"
N        1.51139984       0.92675263       0.09709103
C        0.61194181       0.30521076      -0.66098735
C        0.03334013      -0.99348728      -0.35897672
O        0.82686568      -2.07173480      -0.23006126
C       -1.22519962      -0.71240000       0.07355209
C       -1.48006272       0.73101269      -0.07552780
N       -0.47098680       1.08329269      -0.99714683
H        2.23992649       0.28493041       0.39294009
H        0.53483553       1.28968231       1.08506871
H        0.32126872      -2.79931515       0.14053348
H       -1.90745474      -1.38596611       0.57294327
H       -0.70542862       1.27846246       1.10906202
H       -0.29044570       2.06355938      -1.14849072
13
Frame=7 idx=008476 GeodesicLength=0.5603927739222615 rxn_smarts="[N:1]([c:2]1[c:3]([O:4][H:10])[c:5]([H:11])[c:6]([H:12])[n:7]1[H:13])([H:8])[H:9]>>[H:9][H:12].[N-:1]([C:2]1=[C:3]([O:4][H:10])[C:5]([H:11])=[C+:6][N:7]1[H:13])[H:8]"
N        1.51688397       0.92477661       0.10089093
C        0.61597245       0.30413658      -0.65947860
C        0.03287966      -0.99290232      -0.36211638
O        0.82798350      -2.06872039      -0.21701637
C       -1.23127548      -0.71509508       0.06396875
C       -1.47684833       0.72751852      -0.07375306
N       -0.47387988       1.07938428      -0.99508169
H        2.25949112       0.28604744       0.36648464
H        0.54555969       1.29513517       1.11365994
H        0.31762619      -2.79774166       0.14382945
H       -1.91738468      -1.39107927       0.55435314
H       -0.71810901       1.29113598       1.12889704
H       -0.29889921       2.05740416      -1.16463779
13
Frame=8 idx=008476 GeodesicLength=0.6403784497911302 rxn_smarts="[N:1]([c:2]1[c:3]([O:4][H:10])[c:5]([H:11])[c:6]([H:12])[n:7]1[H:13])([H:8])[H:9]>>[H:9][H:12].[N-:1]([C:2]1=[C:3]([O:4][H:10])[C:5]([H:11])=[C+:6][N:7]1[H:13])[H:8]"
N        1.52238105       0.92241493       0.10493295
C        0.62007971       0.30299632      -0.65812997
C        0.03245439      -0.99237059      -0.36544041
O        0.82893529      -2.06559749      -0.20364075
C       -1.23734814      -0.71779213       0.05396373
C       -1.47339480       0.72401269      -0.07181824
N       -0.47666935       1.07551087      -0.99304074
H        2.27867780       0.28776556       0.33934739
H        0.55678583       1.30021539       1.14306994
H        0.31394948      -2.79612309       0.14717768
H       -1.92711671      -1.39600531       0.53568586
H       -0.73132996       1.30408701       1.14894357
H       -0.30740459       2.05088585      -1.18105102
13
Frame=9 idx=008476 GeodesicLength=0.7203799228039124 rxn_smarts="[N:1]([c:2]1[c:3]([O:4][H:10])[c:5]([H:11])[c:6]([H:12])[n:7]1[H:13])([H:8])[H:9]>>[H:9][H:12].[N-:1]([C:2]1=[C:3]([O:4][H:10])[C:5]([H:11])=[C+:6][N:7]1[H:13])[H:8]"
N        1.52790047       0.91968833       0.10916790
C        0.62427014       0.30178761      -0.65695205
C        0.03207770      -0.99188950      -0.36892465
O        0.82971419      -2.06236739      -0.18999066
C       -1.24338385      -0.72047604       0.04360714
C       -1.46968283       0.72048627      -0.06970634
N       -0.47936276       1.07165442      -0.99103387
H        2.29742768       0.29003823       0.31166523
H        0.56858426       1.30491615       1.17332570
H        0.31024350      -2.79448536       0.15048239
H       -1.93662344      -1.40073447       0.51698200
H       -0.74516867       1.31741554       1.16914239
H       -0.31599640       2.04396620      -1.19776516
13
Frame=10 idx=008476 GeodesicLength=0.8003705700555073 rxn_smarts="[N:1]([c:2]1[c:3]([O:4][H:10])[c:5]([H:11])[c:6]([H:12])[n:7]1[H:13])([H:8])[H:9]>>[H:9][H:12].[N-:1]([C:2]1=[C:3]([O:4][H:10])[C:5]([H:11])=[C+:6][N:7]1[H:13])[H:8]"
N        1.53346275       0.91652265       0.11359844
C        0.62854215       0.30050418      -0.65597856
C        0.03173494      -0.99146833      -0.37263612
O        0.83028328      -2.05904170      -0.17616157
C       -1.24938980      -0.72314131       0.03284367
C       -1.46570111       0.71693339      -0.06741958
N       -0.48195532       1.06783574      -0.98905884
H        2.31565014       0.29294638       0.28347837
H        0.58101130       1.30920564       1.20441515
H        0.30655148      -2.79275913       0.15391101
H       -1.94591051      -1.40526554       0.49824279
H       -0.75960693       1.33108058       1.18952509
H       -0.32467237       2.03664743      -1.21475985
13
Frame=11 idx=008476 GeodesicLength=0.8803469698271018 rxn_smarts="[N:1]([c:2]1[c:3]([O:4][H:10])[c:5]([H:11])[c:6]([H:12])[n:7]1[H:13])([H:8])[H:9]>>[H:9][H:12].[N-:1]([C:2]1=[C:3]([O:4][H:10])[C:5]([H:11])=[C+:6][N:7]1[H:13])[H:8]"
N        1.53907988       0.91290156       0.11819296
C        0.63289835       0.29914256      -0.65523214
C        0.03142742      -0.99110964      -0.37659717
O        0.83062437      -2.05563678      -0.16227625
C       -1.25534804      -0.72577909       0.02169192
C       -1.46143573       0.71334618      -0.06495117
N       -0.48445116       1.06405272      -0.98712313
H        2.33327405       0.29647606       0.25491884
H        0.59412071       1.31308008       1.23634709
H        0.30289826      -2.79092118       0.15749805
H       -1.95495466      -1.40958962       0.47951339
H       -0.77467941       1.34512668       1.21006268
H       -0.33345406       2.02891046      -1.23204507
13
Frame=12 idx=008476 GeodesicLength=0.9603088791693227 rxn_smarts="[N:1]([c:2]1[c:3]([O:4][H:10])[c:5]([H:11])[c:6]([H:12])[n:7]1[H:13])([H:8])[H:9]>>[H:9][H:12].[N-:1]([C:2]1=[C:3]([O:4][H:10])[C:5]([H:11])=[C+:6][N:7]1[H:13])[H:8]"
N        1.54476573       0.90881798       0.12291968
C        0.63734492       0.29769999      -0.65472984
C        0.03116243      -0.99081417      -0.38081345
O        0.83073053      -2.05216482      -0.14841855
C       -1.26123629      -0.72837640       0.01018602
C       -1.45687132       0.70971332      -0.06229544
N       -0.48685226       1.06029851      -0.98523244
H        2.35023061       0.30063119       0.22612875
H        0.60798418       1.31654197       1.26912186
H        0.29927827      -2.78897436       0.16121031
H       -1.96373712      -1.41370097       0.46084053
H       -0.79042639       1.35960764       1.23073067
H       -0.34237329       2.02072012      -1.24964810
13
Frame=13 idx=008476 GeodesicLength=1.0402545095155016 rxn_smarts="[N:1]([c:2]1[c:3]([O:4][H:10])[c:5]([H:11])[c:6]([H:12])[n:7]1[H:13])([H:8])[H:9]>>[H:9][H:12].[N-:1]([C:2]1=[C:3]([O:4][H:10])[C:5]([H:11])=[C+:6][N:7]1[H:13])[H:8]"
N        1.55053337       0.90426501       0.12773775
C        0.64188204       0.29617793      -0.65449316
C        0.03093976      -0.99058024      -0.38530788
O        0.83059264      -2.04864969      -0.13474267
C       -1.26703728      -0.73092125      -0.00164599
C       -1.45199743       0.70602643      -0.05944437
N       -0.48916599       1.05657616      -0.98338772
H        2.36646966       0.30537879       0.19724904
H        0.62267227       1.31957703       1.30274853
H        0.29572013      -2.78688552       0.16511927
H       -1.97224588      -1.41759837       0.44224712
H       -0.80689999       1.37457711       1.25149537
H       -0.35146330       2.01205660      -1.26757528
13
Frame=14 idx=008476 GeodesicLength=1.1201823533620856 rxn_smarts="[N:1]([c:2]1[c:3]([O:4][H:10])[c:5]([H:11])[c:6]([H:12])[n:7]1[H:13])([H:8])[H:9]>>[H:9][H:12].[N-:1]([C:2]1=[C:3]([O:4][H:10])[C:5]([H:11])=[C+:6][N:7]1[H:13])[H:8]"
N        1.55639114       0.89924911       0.13261547
C        0.64651652       0.29457657      -0.65453749
C        0.03076782      -0.99040579      -0.39008543
O        0.83021501      -2.04511102      -0.12135824
C       -1.27272789      -0.73340009      -0.01376035
C       -1.44679967       0.70227641      -0.05639545
N       -0.49139420       1.05287947      -0.98159573
H        2.38194701       0.31070228       0.16843361
H        0.63825424       1.32218230       1.33723860
H        0.29221170      -2.78465697       0.16918778
H       -1.98045848      -1.42127404       0.42379699
H       -0.82416099       1.39010312       1.27231835
H       -0.36076224       2.00287864      -1.28585812
13
Frame=15 idx=008476 GeodesicLength=1.2000920021162682 rxn_smarts="[N:1]([c:2]1[c:3]([O:4][H:10])[c:5]([H:11])[c:6]([H:12])[n:7]1[H:13])([H:8])[H:9]>>[H:9][H:12].[N-:1]([C:2]1=[C:3]([O:4][H:10])[C:5]([H:11])=[C+:6][N:7]1[H:13])[H:8]"
N        1.56234862       0.89377879       0.13751569
C        0.65125181       0.29289882      -0.65487747
C        0.03065127      -0.99028671      -0.39515477
O        0.82960548      -2.04157400      -0.10839745
C       -1.27828740      -0.73579884      -0.02611023
C       -1.44126667       0.69845641      -0.05314164
N       -0.49354172       1.04920830      -0.97985627
H        2.39664020       0.31656978       0.13982035
H        0.65480515       1.32434350       1.37261114
H        0.28875376      -2.78227782       0.17342762
H       -1.98836315      -1.42472530       0.40552505
H       -0.84228587       1.40625742       1.29315367
H       -0.37031148       1.99314962      -1.30451570
13
Frame=16 idx=008476 GeodesicLength=1.2799799202820266 rxn_smarts="[N:1]([c:2]1[c:3]([O:4][H:10])[c:5]([H:11])[c:6]([H:12])[n:7]1[H:13])([H:8])[H:9]>>[H:9][H:12].[N-:1]([C:2]1=[C:3]([O:4][H:10])[C:5]([H:11])=[C+:6][N:7]1[H:13])[H:8]"
N        1.56841159       0.88786702       0.14240913
C        0.65609230       0.29114850      -0.65552230
C        0.03059646      -0.99021826      -0.40051847
O        0.82877961      -2.03806176      -0.09596945
C       -1.28369597      -0.73810348      -0.03864479
C       -1.43538748       0.69455963      -0.04967720
N       -0.49561202       1.04556134      -0.97816767
H        2.41054235       0.32295745       0.11152921
H        0.67240197       1.32604126       1.40889143
H        0.28533379      -2.77974648       0.17782439
H       -1.99595153      -1.42794996       0.38746474
H       -0.86135637       1.42311985       1.31395125
H       -0.38015471       1.98282489      -1.32357027
