13
Frame=0 idx=008952 GeodesicLength=0.0 rxn_smarts="[O:1]=[C:2]1[C:3]([H:8])([H:9])[C:4]2([C:5]([H:10])([H:11])[O:6]2)[C:7]1([H:12])[H:13]>>[O:1]=[C:2]1[C:3]([H:8])([H:9])[C:5]([H:10])([H:11])[O+:6]=[C-:4][C:7]1([H:12])[H:13]"
O       -2.45384129      -0.43150060       0.55012880
C       -1.34202740      -0.29520764       0.13898017
C       -0.48491875       0.97070834       0.19229357
C        0.40305064      -0.04093483      -1.07854516
C        1.36177151       0.47372625       0.29503609
O        1.80546955      -0.03271189      -0.88684059
C       -0.38413433      -1.24233721      -0.55283777
H       -0.36741621       1.26033124       1.24572867
H       -0.86388731       1.83160029      -0.35189181
H        1.71964069       1.47688728       0.50561412
H        1.34036076      -0.21909311       1.13302292
H       -0.83047896      -1.82940199      -1.35470876
H        0.09641104      -1.92206616       0.16401972
13
Frame=1 idx=008952 GeodesicLength=0.04539066227078722 rxn_smarts="[O:1]=[C:2]1[C:3]([H:8])([H:9])[C:4]2([C:5]([H:10])([H:11])[O:6]2)[C:7]1([H:12])[H:13]>>[O:1]=[C:2]1[C:3]([H:8])([H:9])[C:5]([H:10])([H:11])[O+:6]=[C-:4][C:7]1([H:12])[H:13]"
O       -2.46055876      -0.42983027       0.54181026
C       -1.34463740      -0.29484861       0.14116063
C       -0.48554807       0.96923855       0.19485023
C        0.40654339      -0.05156448      -1.07767943
C        1.36360994       0.47562820       0.29834422
O        1.80289869      -0.01454031      -0.89674418
C       -0.38781284      -1.24452715      -0.54973881
H       -0.38222924       1.26869673       1.24661694
H       -0.86199240       1.82636585      -0.35771900
H        1.72781945       1.47510085       0.51571125
H        1.36524046      -0.22575183       1.12947119
H       -0.83623820      -1.82923680      -1.35207384
H        0.09290499      -1.92473073       0.16599055
13
Frame=2 idx=008952 GeodesicLength=0.09076182455394427 rxn_smarts="[O:1]=[C:2]1[C:3]([H:8])([H:9])[C:4]2([C:5]([H:10])([H:11])[O:6]2)[C:7]1([H:12])[H:13]>>[O:1]=[C:2]1[C:3]([H:8])([H:9])[C:5]([H:10])([H:11])[O+:6]=[C-:4][C:7]1([H:12])[H:13]"
O       -2.46728284      -0.42808377       0.53330020
C       -1.34730728      -0.29445600       0.14329643
C       -0.48618998       0.96776896       0.19748450
C        0.41015823      -0.06236287      -1.07663229
C        1.36544844       0.47739467       0.30183030
O        1.79985592       0.00418159      -0.90660440
C       -0.39150728      -1.24674522      -0.54653565
H       -0.39739443       1.27729019       1.24726245
H       -0.85999513       1.82103533      -0.36354680
H        1.73609055       1.47304688       0.52604271
H        1.39079803      -0.23253537       1.12531791
H       -0.84191646      -1.82910575      -1.34937315
H        0.08924224      -1.92742865       0.16815779
13
Frame=3 idx=008952 GeodesicLength=0.1360870619129117 rxn_smarts="[O:1]=[C:2]1[C:3]([H:8])([H:9])[C:4]2([C:5]([H:10])([H:11])[O:6]2)[C:7]1([H:12])[H:13]>>[O:1]=[C:2]1[C:3]([H:8])([H:9])[C:5]([H:10])([H:11])[O+:6]=[C-:4][C:7]1([H:12])[H:13]"
O       -2.47399304      -0.42626996       0.52461499
C       -1.35003787      -0.29402476       0.14536997
C       -0.48684024       0.96629742       0.20020009
C        0.41391203      -0.07333544      -1.07538958
C        1.36729004       0.47901271       0.30551372
O        1.79630320       0.02344349      -0.91638544
C       -0.39521804      -1.24898667      -0.54323336
H       -0.41290958       1.28610457       1.24764719
H       -0.85788475       1.81560421      -0.36936616
H        1.74444484       1.47072244       0.53659007
H        1.41703143      -0.23941198       1.12053559
H       -0.84750741      -1.82899913      -1.34662026
H        0.08540939      -1.93015690       0.17052318
13
Frame=4 idx=008952 GeodesicLength=0.1813545672938865 rxn_smarts="[O:1]=[C:2]1[C:3]([H:8])([H:9])[C:4]2([C:5]([H:10])([H:11])[O:6]2)[C:7]1([H:12])[H:13]>>[O:1]=[C:2]1[C:3]([H:8])([H:9])[C:5]([H:10])([H:11])[O+:6]=[C-:4][C:7]1([H:12])[H:13]"
O       -2.48069215      -0.42440028       0.51577892
C       -1.35284131      -0.29355200       0.14736789
C       -0.48749778       0.96482419       0.20300334
C        0.41783229      -0.08448085      -1.07394177
C        1.36915062       0.48046771       0.30941244
O        1.79222201       0.04322154      -0.92604991
C       -0.39894523      -1.25124966      -0.53983854
H       -0.42878177       1.29512809       1.24775918
H       -0.85565564       1.81008155      -0.37516838
H        1.75288183       1.46813468       0.54732448
H        1.44393621      -0.24634225       1.11509658
H       -0.85300683      -1.82890310      -1.34383407
H        0.08139774      -1.93292962       0.17308985
13
Frame=5 idx=008952 GeodesicLength=0.22658231633548093 rxn_smarts="[O:1]=[C:2]1[C:3]([H:8])([H:9])[C:4]2([C:5]([H:10])([H:11])[O:6]2)[C:7]1([H:12])[H:13]>>[O:1]=[C:2]1[C:3]([H:8])([H:9])[C:5]([H:10])([H:11])[O+:6]=[C-:4][C:7]1([H:12])[H:13]"
O       -2.48740911      -0.42250582       0.50681049
C       -1.35574249      -0.29304632       0.14927021
C       -0.48816828       0.96336679       0.20589931
C        0.42195549      -0.09578656      -1.07227145
C        1.37106489       0.48175795       0.31355332
O        1.78758434       0.06349877      -0.93553234
C       -0.40269469      -1.25354823      -0.53635845
H       -0.44501820       1.30435200       1.24758122
H       -0.85331392       1.80451142      -0.38094314
H        1.76144884       1.46529559       0.55820950
H        1.47152126      -0.25328226       1.10895675
H       -0.85842254      -1.82882290      -1.34103442
H        0.07719441      -1.93579043       0.17585899
13
Frame=6 idx=008952 GeodesicLength=0.2718114403809473 rxn_smarts="[O:1]=[C:2]1[C:3]([H:8])([H:9])[C:4]2([C:5]([H:10])([H:11])[O:6]2)[C:7]1([H:12])[H:13]>>[O:1]=[C:2]1[C:3]([H:8])([H:9])[C:5]([H:10])([H:11])[O+:6]=[C-:4][C:7]1([H:12])[H:13]"
O       -2.49397055      -0.42053152       0.49768947
C       -1.35865105      -0.29245232       0.15103281
C       -0.48884998       0.96188964       0.20888839
C        0.42624518      -0.10732655      -1.07035452
C        1.37293087       0.48284012       0.31794513
O        1.78213814       0.08429756      -0.94483335
C       -0.40642868      -1.25583477      -0.53279924
H       -0.46157864       1.31376932       1.24709686
H       -0.85082764       1.79877431      -0.38667421
H        1.77009049       1.46210030       0.56923658
H        1.49978769      -0.26021131       1.10218140
H       -0.86365085      -1.82874245      -1.33821694
H        0.07276503      -1.93857233       0.17880761
13
Frame=7 idx=008952 GeodesicLength=0.3171074120371667 rxn_smarts="[O:1]=[C:2]1[C:3]([H:8])([H:9])[C:4]2([C:5]([H:10])([H:11])[O:6]2)[C:7]1([H:12])[H:13]>>[O:1]=[C:2]1[C:3]([H:8])([H:9])[C:5]([H:10])([H:11])[O+:6]=[C-:4][C:7]1([H:12])[H:13]"
O       -2.50062285      -0.41854599       0.48845765
C       -1.36170647      -0.29181358       0.15267165
C       -0.48957812       0.96044360       0.21198884
C        0.43079815      -0.11902044      -1.06820388
C        1.37490240       0.48372921       0.32259970
O        1.77609832       0.10555486      -0.95389899
C       -0.41017527      -1.25816296      -0.52916614
H       -0.47854586       1.32336014       1.24632176
H       -0.84825675       1.79304474      -0.39235753
H        1.77893352       1.45865780       0.58032502
H        1.52878672      -0.26709835       1.09471147
H       -0.86876309      -1.82866803      -1.33541841
H        0.06812932      -1.94148100       0.18196886
13
Frame=8 idx=008952 GeodesicLength=0.3618107468214059 rxn_smarts="[O:1]=[C:2]1[C:3]([H:8])([H:9])[C:4]2([C:5]([H:10])([H:11])[O:6]2)[C:7]1([H:12])[H:13]>>[O:1]=[C:2]1[C:3]([H:8])([H:9])[C:5]([H:10])([H:11])[O+:6]=[C-:4][C:7]1([H:12])[H:13]"
O       -2.50707186      -0.41654231       0.47913631
C       -1.36475894      -0.29112532       0.15417353
C       -0.49021904       0.95893601       0.21522804
C        0.43552861      -0.13090112      -1.06580282
C        1.37688734       0.48447779       0.32746284
O        1.76946691       0.12710085      -0.96262049
C       -0.41394662      -1.26046127      -0.52549181
H       -0.49573111       1.33304750       1.24525446
H       -0.84544741       1.78712183      -0.39790666
H        1.78768670       1.45500468       0.59139666
H        1.55813598      -0.27376459       1.08656570
H       -0.87380285      -1.82852159      -1.33266103
H        0.06327230      -1.94437246       0.18526527
13
Frame=9 idx=008952 GeodesicLength=0.40674745249820105 rxn_smarts="[O:1]=[C:2]1[C:3]([H:8])([H:9])[C:4]2([C:5]([H:10])([H:11])[O:6]2)[C:7]1([H:12])[H:13]>>[O:1]=[C:2]1[C:3]([H:8])([H:9])[C:5]([H:10])([H:11])[O+:6]=[C-:4][C:7]1([H:12])[H:13]"
O       -2.51357027      -0.41450728       0.46958608
C       -1.36792807      -0.29038607       0.15551800
C       -0.49090732       0.95742820       0.21863320
C        0.44054023      -0.14295162      -1.06309825
C        1.37895019       0.48496332       0.33267587
O        1.76199450       0.14893708      -0.97102570
C       -0.41771515      -1.26277234      -0.52175489
H       -0.51330473       1.34285761       1.24387236
H       -0.84252933       1.78115873      -0.40331921
H        1.79667407       1.45113965       0.60245779
H        1.58830550      -0.28019107       1.07763585
H       -0.87867232      -1.82834523      -1.32995272
H        0.05816270      -1.94733098       0.18877162
13
Frame=10 idx=008952 GeodesicLength=0.4515139241538594 rxn_smarts="[O:1]=[C:2]1[C:3]([H:8])([H:9])[C:4]2([C:5]([H:10])([H:11])[O:6]2)[C:7]1([H:12])[H:13]>>[O:1]=[C:2]1[C:3]([H:8])([H:9])[C:5]([H:10])([H:11])[O+:6]=[C-:4][C:7]1([H:12])[H:13]"
O       -2.52003582      -0.41244645       0.45990398
C       -1.37117442      -0.28958026       0.15669999
C       -0.49160290       0.95592078       0.22219696
C        0.44582269      -0.15518865      -1.06012888
C        1.38109796       0.48527724       0.33812912
O        1.75377585       0.17110908      -0.97900772
C       -0.42147724      -1.26509093      -0.51797279
H       -0.53120013       1.35276350       1.24221396
H       -0.83946268       1.77513671      -0.40859670
H        1.80577894       1.44698140       0.61339334
H        1.61904902      -0.28640200       1.06802325
H       -0.88338020      -1.82813973      -1.32730473
H        0.05280893      -1.95034069       0.19245022
13
Frame=11 idx=008952 GeodesicLength=0.4962680248646789 rxn_smarts="[O:1]=[C:2]1[C:3]([H:8])([H:9])[C:4]2([C:5]([H:10])([H:11])[O:6]2)[C:7]1([H:12])[H:13]>>[O:1]=[C:2]1[C:3]([H:8])([H:9])[C:5]([H:10])([H:11])[O+:6]=[C-:4][C:7]1([H:12])[H:13]"
O       -2.52647248      -0.41036521       0.44995691
C       -1.37449834      -0.28873576       0.15770923
C       -0.49228311       0.95435215       0.22599289
C        0.45137164      -0.16758125      -1.05682989
C        1.38332368       0.48532770       0.34392489
O        1.74474392       0.19326358      -0.98658417
C       -0.42524885      -1.26738356      -0.51417016
H       -0.54938940       1.36268595       1.24028457
H       -0.83620725       1.76900784      -0.41361422
H        1.81501585       1.44275424       0.62414867
H        1.65041205      -0.29211197       1.05766927
H       -0.88794994      -1.82783117      -1.32476246
H        0.04718224      -1.95338254       0.19627447
13
Frame=12 idx=008952 GeodesicLength=0.5408389493037262 rxn_smarts="[O:1]=[C:2]1[C:3]([H:8])([H:9])[C:4]2([C:5]([H:10])([H:11])[O:6]2)[C:7]1([H:12])[H:13]>>[O:1]=[C:2]1[C:3]([H:8])([H:9])[C:5]([H:10])([H:11])[O+:6]=[C-:4][C:7]1([H:12])[H:13]"
O       -2.53286036      -0.40828442       0.43987751
C       -1.37789058      -0.28782948       0.15853613
C       -0.49297345       0.95277905       0.22999026
C        0.45721757      -0.18013986      -1.05323318
C        1.38566090       0.48522954       0.34996877
O        1.73491562       0.21556774      -0.99361472
C       -0.42900395      -1.26966482      -0.51035007
H       -0.56787433       1.37265153       1.23807122
H       -0.83280728       1.76282943      -0.41842985
H        1.82440300       1.43826506       0.63462009
H        1.68225850      -0.29747957       1.04665773
H       -0.89234092      -1.82744465      -1.32233231
H        0.04129528      -1.95647953       0.20023841
13
Frame=13 idx=008952 GeodesicLength=0.5853802750098221 rxn_smarts="[O:1]=[C:2]1[C:3]([H:8])([H:9])[C:4]2([C:5]([H:10])([H:11])[O:6]2)[C:7]1([H:12])[H:13]>>[O:1]=[C:2]1[C:3]([H:8])([H:9])[C:5]([H:10])([H:11])[O+:6]=[C-:4][C:7]1([H:12])[H:13]"
O       -2.53922097      -0.40619652       0.42955462
C       -1.38136073      -0.28687824       0.15917363
C       -0.49367007       0.95117243       0.23425451
C        0.46335423      -0.19284218      -1.04931135
C        1.38810359       0.48489892       0.35633732
O        1.72424211       0.23772714      -1.00007044
C       -0.43275352      -1.27192563      -0.50653934
H       -0.58664887       1.38259626       1.23561672
H       -0.82923147       1.75660101      -0.42294035
H        1.83398070       1.43366403       0.64474204
H        1.71464254      -0.30222696       1.03492857
H       -0.89655740      -1.82695470      -1.32005942
H        0.03511987      -1.95963556       0.20431349
13
Frame=14 idx=008952 GeodesicLength=0.6299290128277113 rxn_smarts="[O:1]=[C:2]1[C:3]([H:8])([H:9])[C:4]2([C:5]([H:10])([H:11])[O:6]2)[C:7]1([H:12])[H:13]>>[O:1]=[C:2]1[C:3]([H:8])([H:9])[C:5]([H:10])([H:11])[O+:6]=[C-:4][C:7]1([H:12])[H:13]"
O       -2.54558932      -0.40408089       0.41889939
C       -1.38491237      -0.28589140       0.15963309
C       -0.49436631       0.94949050       0.23883337
C        0.46977017      -0.20567383      -1.04504304
C        1.39068201       0.48434528       0.36300814
O        1.71276392       0.25959813      -1.00601230
C       -0.43649933      -1.27414743      -0.50274004
H       -0.60568924       1.39245848       1.23294963
H       -0.82547558       1.75029764      -0.42706708
H        1.84374731       1.42904518       0.65443093
H        1.74751519      -0.30628249       1.02257110
H       -0.90060597      -1.82631976      -1.31794392
H        0.02865951      -1.96283941       0.20848074
13
Frame=15 idx=008952 GeodesicLength=0.6743609087696921 rxn_smarts="[O:1]=[C:2]1[C:3]([H:8])([H:9])[C:4]2([C:5]([H:10])([H:11])[O:6]2)[C:7]1([H:12])[H:13]>>[O:1]=[C:2]1[C:3]([H:8])([H:9])[C:5]([H:10])([H:11])[O+:6]=[C-:4][C:7]1([H:12])[H:13]"
O       -2.55193851      -0.40192768       0.40793186
C       -1.38853289      -0.28486270       0.15991872
C       -0.49506418       0.94775982       0.24375230
C        0.47646811      -0.21863011      -1.04043937
C        1.39338919       0.48357839       0.36996978
O        1.70051491       0.28111479      -1.01129667
C       -0.44022904      -1.27633344      -0.49896666
H       -0.62500756       1.40222869       1.23008958
H       -0.82153211       1.74395599      -0.43078587
H        1.85367338       1.42434972       0.66359083
H        1.78081043      -0.30957704       1.00951534
H       -0.90446223      -1.82555392      -1.31600853
H        0.02191050      -1.96610251       0.21272869
13
Frame=16 idx=008952 GeodesicLength=0.7187931852207411 rxn_smarts="[O:1]=[C:2]1[C:3]([H:8])([H:9])[C:4]2([C:5]([H:10])([H:11])[O:6]2)[C:7]1([H:12])[H:13]>>[O:1]=[C:2]1[C:3]([H:8])([H:9])[C:5]([H:10])([H:11])[O+:6]=[C-:4][C:7]1([H:12])[H:13]"
O       -2.55830707      -0.39972755       0.39653699
C       -1.39222903      -0.28380930       0.16003981
C       -0.49576378       0.94594261       0.24905512
C        0.48342974      -0.23169187      -1.03547411
C        1.39625757       0.48260767       0.37721843
O        1.68749426       0.30213334      -1.01597870
C       -0.44395309      -1.27847069      -0.49522022
H       -0.64456920       1.41184604       1.22706394
H       -0.81740214       1.73755548      -0.43402362
H        1.86380981       1.41967576       0.67215236
H        1.81450929      -0.31201804       0.99584903
H       -0.90814159      -1.82462612      -1.31425402
H        0.01486524      -1.96941734       0.21703499
