12
Frame=0 idx=000048 GeodesicLength=0.0 rxn_smarts="[C:1](/[N:2]=[C:3](/[N:4]([C:5](=[O:6])[H:12])[H:11])[H:10])([H:7])([H:8])[H:9]>>[C:1]([N:2](/[C:3](=[N:4]/[C:5](=[O:6])[H:12])[H:10])[H:11])([H:7])([H:8])[H:9]"
C       -2.12172482      -0.28091143      -0.53550824
N       -0.77505062      -0.47246561      -0.06680467
C        0.19778489       0.37517100      -0.06443897
N        1.23969851      -0.27659943       0.46911997
C        2.49130904       0.23115576       0.65906430
O        3.41741486      -0.37263184       1.13398776
H       -2.83070718      -0.44498880       0.27787643
H       -2.26753658       0.72912183      -0.92634228
H       -2.34849326      -0.99664137      -1.32760155
H        0.17786170       1.40296251      -0.42140790
H        0.22416669      -1.18091885       0.47253523
H        2.59527677       1.28674626       0.32951987
12
Frame=1 idx=000048 GeodesicLength=0.03256419028646004 rxn_smarts="[C:1](/[N:2]=[C:3](/[N:4]([C:5](=[O:6])[H:12])[H:11])[H:10])([H:7])([H:8])[H:9]>>[C:1]([N:2](/[C:3](=[N:4]/[C:5](=[O:6])[H:12])[H:10])[H:11])([H:7])([H:8])[H:9]"
C       -2.11946142      -0.27584952      -0.53536731
N       -0.77488081      -0.48362957      -0.06709259
C        0.20710298       0.35493008      -0.09288497
N        1.24163200      -0.28614179       0.46869513
C        2.48413981       0.24090234       0.66971455
O        3.42176931      -0.35922556       1.12593586
H       -2.82929639      -0.42721756       0.27975318
H       -2.25246513       0.73489642      -0.92920617
H       -2.35745808      -0.99100299      -1.32472445
H        0.17447157       1.39744374      -0.40518063
H        0.22581899      -1.19945459       0.47982875
H        2.57862718       1.29434900       0.33052865
12
Frame=2 idx=000048 GeodesicLength=0.06521723482906705 rxn_smarts="[C:1](/[N:2]=[C:3](/[N:4]([C:5](=[O:6])[H:12])[H:11])[H:10])([H:7])([H:8])[H:9]>>[C:1]([N:2](/[C:3](=[N:4]/[C:5](=[O:6])[H:12])[H:10])[H:11])([H:7])([H:8])[H:9]"
C       -2.11679623      -0.27106289      -0.53614093
N       -0.77569051      -0.49307198      -0.06396234
C        0.21331711       0.33833950      -0.11124037
N        1.24458534      -0.29661390       0.46463027
C        2.47871381       0.24829317       0.67352144
O        3.42483334      -0.34478919       1.12086393
H       -2.82993031      -0.41314686       0.27778593
H       -2.23774944       0.74085928      -0.93113609
H       -2.36155716      -0.98421462      -1.32528191
H        0.17064339       1.39155055      -0.38663725
H        0.22606659      -1.21596950       0.49176275
H        2.56356408       1.29982645       0.32583456
12
Frame=3 idx=000048 GeodesicLength=0.09788170367185443 rxn_smarts="[C:1](/[N:2]=[C:3](/[N:4]([C:5](=[O:6])[H:12])[H:11])[H:10])([H:7])([H:8])[H:9]>>[C:1]([N:2](/[C:3](=[N:4]/[C:5](=[O:6])[H:12])[H:10])[H:11])([H:7])([H:8])[H:9]"
C       -2.11402652      -0.26637611      -0.53700755
N       -0.77694315      -0.50157890      -0.05934914
C        0.21787538       0.32381094      -0.12450616
N        1.24788018      -0.30728517       0.45932680
C        2.47376735       0.25480818       0.67508975
O        3.42751151      -0.33051639       1.11597076
H       -2.83137064      -0.40119013       0.27446808
H       -2.22355414       0.74701148      -0.93186892
H       -2.36349976      -0.97663933      -1.32731775
H        0.16772865       1.38464507      -0.37067579
H        0.22593351      -1.23157011       0.50513572
H        2.54869762       1.30488047       0.32073420
12
Frame=4 idx=000048 GeodesicLength=0.13056838058536235 rxn_smarts="[C:1](/[N:2]=[C:3](/[N:4]([C:5](=[O:6])[H:12])[H:11])[H:10])([H:7])([H:8])[H:9]>>[C:1]([N:2](/[C:3](=[N:4]/[C:5](=[O:6])[H:12])[H:10])[H:11])([H:7])([H:8])[H:9]"
C       -2.11118506      -0.26175015      -0.53782138
N       -0.77829497      -0.50960761      -0.05437646
C        0.22159805       0.31042424      -0.13536564
N        1.25122739      -0.31784850       0.45366409
C        2.46890977       0.26086166       0.67571325
O        3.42969105      -0.31633443       1.11157507
H       -2.83292043      -0.39038383       0.27077674
H       -2.20975048       0.75323820      -0.93175839
H       -2.36452515      -0.96861731      -1.32998794
H        0.16537389       1.37723719      -0.35635331
H        0.22585219      -1.24676956       0.51865127
H        2.53402376       1.30955012       0.31528271
12
Frame=5 idx=000048 GeodesicLength=0.1632304993102689 rxn_smarts="[C:1](/[N:2]=[C:3](/[N:4]([C:5](=[O:6])[H:12])[H:11])[H:10])([H:7])([H:8])[H:9]>>[C:1]([N:2](/[C:3](=[N:4]/[C:5](=[O:6])[H:12])[H:10])[H:11])([H:7])([H:8])[H:9]"
C       -2.10837107      -0.25703943      -0.53817961
N       -0.77950335      -0.51745380      -0.04979016
C        0.22505861       0.29748185      -0.14567036
N        1.25471094      -0.32842400       0.44733878
C        2.46382803       0.26677472       0.67632223
O        3.43110932      -0.30192396       1.10856839
H       -2.83402178      -0.38008878       0.26779216
H       -2.19637736       0.75963390      -0.93055364
H       -2.36572757      -0.96009656      -1.33247736
H        0.16387593       1.36906358      -0.34480863
H        0.22626425      -1.26216646       0.53083781
H        2.51915405       1.31423895       0.31062039
12
Frame=6 idx=000048 GeodesicLength=0.19588549035165592 rxn_smarts="[C:1](/[N:2]=[C:3](/[N:4]([C:5](=[O:6])[H:12])[H:11])[H:10])([H:7])([H:8])[H:9]>>[C:1]([N:2](/[C:3](=[N:4]/[C:5](=[O:6])[H:12])[H:10])[H:11])([H:7])([H:8])[H:9]"
C       -2.10555882      -0.25224150      -0.53812055
N       -0.78057273      -0.52511036      -0.04551164
C        0.22846122       0.28471051      -0.15597587
N        1.25819846      -0.33888016       0.44083312
C        2.45844866       0.27258394       0.67725635
O        3.43228455      -0.28777670       1.10519529
H       -2.83464711      -0.36957328       0.26561259
H       -2.18318289       0.76595983      -0.92900692
H       -2.36729200      -0.95156526      -1.33432083
H        0.16332644       1.36010653      -0.33646911
H        0.22708930      -1.27776965       0.54193079
H        2.50344493       1.31955610       0.30857678
12
Frame=7 idx=000048 GeodesicLength=0.2285631102584075 rxn_smarts="[C:1](/[N:2]=[C:3](/[N:4]([C:5](=[O:6])[H:12])[H:11])[H:10])([H:7])([H:8])[H:9]>>[C:1]([N:2](/[C:3](=[N:4]/[C:5](=[O:6])[H:12])[H:10])[H:11])([H:7])([H:8])[H:9]"
C       -2.10276842      -0.24731931      -0.53752780
N       -0.78138139      -0.53273858      -0.04188960
C        0.23187896       0.27204072      -0.16657734
N        1.26181801      -0.34931232       0.43372480
C        2.45271304       0.27837957       0.67848368
O        3.43257040      -0.27324356       1.10361378
H       -2.83460241      -0.35913106       0.26451253
H       -2.17029753       0.77241332      -0.92658555
H       -2.36945176      -0.94265810      -1.33561565
H        0.16346328       1.35062826      -0.33058439
H        0.22857411      -1.29390537       0.55119693
H        2.48748371       1.32484643       0.30724860
12
Frame=8 idx=000048 GeodesicLength=0.261240308230347 rxn_smarts="[C:1](/[N:2]=[C:3](/[N:4]([C:5](=[O:6])[H:12])[H:11])[H:10])([H:7])([H:8])[H:9]>>[C:1]([N:2](/[C:3](=[N:4]/[C:5](=[O:6])[H:12])[H:10])[H:11])([H:7])([H:8])[H:9]"
C       -2.09995854      -0.24227586      -0.53647804
N       -0.78194446      -0.54033074      -0.03882437
C        0.23539860       0.25931073      -0.17769024
N        1.26556848      -0.35976214       0.42608965
C        2.44658986       0.28411354       0.68009470
O        3.43235065      -0.25862914       1.10257334
H       -2.83390044      -0.34834268       0.26443044
H       -2.15752295       0.77884259      -0.92378623
H       -2.37222692      -0.93364682      -1.33616466
H        0.16432381       1.34057362      -0.32729957
H        0.23054944      -1.31040321       0.55920768
H        2.47077247       1.33055010       0.30784730
12
Frame=9 idx=000048 GeodesicLength=0.293917222567168 rxn_smarts="[C:1](/[N:2]=[C:3](/[N:4]([C:5](=[O:6])[H:12])[H:11])[H:10])([H:7])([H:8])[H:9]>>[C:1]([N:2](/[C:3](=[N:4]/[C:5](=[O:6])[H:12])[H:10])[H:11])([H:7])([H:8])[H:9]"
C       -2.09702495      -0.23733945      -0.53556669
N       -0.78251668      -0.54764642      -0.03566170
C        0.23859773       0.24712977      -0.18787497
N        1.26906629      -0.36976850       0.41913989
C        2.44046404       0.28959695       0.68136105
O        3.43204800      -0.24447464       1.10077301
H       -2.83316806      -0.33787145       0.26405170
H       -2.14480115       0.78506102      -0.92111168
H       -2.37446490      -0.92475950      -1.33692170
H        0.16514134       1.33077108      -0.32400620
H        0.23251220      -1.32665682       0.56751710
H        2.45414614       1.33595795       0.30830020
12
Frame=10 idx=000048 GeodesicLength=0.3265834521422275 rxn_smarts="[C:1](/[N:2]=[C:3](/[N:4]([C:5](=[O:6])[H:12])[H:11])[H:10])([H:7])([H:8])[H:9]>>[C:1]([N:2](/[C:3](=[N:4]/[C:5](=[O:6])[H:12])[H:10])[H:11])([H:7])([H:8])[H:9]"
C       -2.09401533      -0.23246774      -0.53465440
N       -0.78304909      -0.55474171      -0.03255869
C        0.24155312       0.23542930      -0.19741193
N        1.27238961      -0.37939412       0.41259811
C        2.43424833       0.29493907       0.68250307
O        3.43138839      -0.23051600       1.09918226
H       -2.83230056      -0.32776091       0.26364607
H       -2.13223082       0.79116334      -0.91828270
H       -2.37639321      -0.91585346      -1.33777392
H        0.16594522       1.32119612      -0.32085939
H        0.23464288      -1.34292451       0.57549954
H        2.43782145       1.34093061       0.30811199
12
Frame=11 idx=000048 GeodesicLength=0.359242442140997 rxn_smarts="[C:1](/[N:2]=[C:3](/[N:4]([C:5](=[O:6])[H:12])[H:11])[H:10])([H:7])([H:8])[H:9]>>[C:1]([N:2](/[C:3](=[N:4]/[C:5](=[O:6])[H:12])[H:10])[H:11])([H:7])([H:8])[H:9]"
C       -2.09095240      -0.22760483      -0.53360484
N       -0.78347590      -0.56170320      -0.02968356
C        0.24439300       0.22402309      -0.20673582
N        1.27565830      -0.38878886       0.40609805
C        2.42787771       0.30017481       0.68360772
O        3.43020652      -0.21656048       1.09830300
H       -2.83115311      -0.31788458       0.26352141
H       -2.11981946       0.79722168      -0.91514192
H       -2.37828616      -0.90683724      -1.33852940
H        0.16686454       1.31169298      -0.31831534
H        0.23703703      -1.35933695       0.58288171
H        2.42164994       1.34560358       0.30759900
12
Frame=12 idx=000048 GeodesicLength=0.39191626312894823 rxn_smarts="[C:1](/[N:2]=[C:3](/[N:4]([C:5](=[O:6])[H:12])[H:11])[H:10])([H:7])([H:8])[H:9]>>[C:1]([N:2](/[C:3](=[N:4]/[C:5](=[O:6])[H:12])[H:10])[H:11])([H:7])([H:8])[H:9]"
C       -2.08784314      -0.22270496      -0.53231629
N       -0.78374020      -0.56860775      -0.02716934
C        0.24722100       0.21275146      -0.21618076
N        1.27895325      -0.39804464       0.39941063
C        2.42127438       0.30534896       0.68479257
O        3.42841402      -0.20249160       1.09837956
H       -2.82959929      -0.30808791       0.26392109
H       -2.10753950       0.80327366      -0.91162307
H       -2.38036998      -0.89765813      -1.33900948
H        0.16801162       1.30212352      -0.31678794
H        0.23976861      -1.37600578       0.58947125
H        2.40544923       1.35010318       0.30711180
12
Frame=13 idx=000048 GeodesicLength=0.42457039965521143 rxn_smarts="[C:1](/[N:2]=[C:3](/[N:4]([C:5](=[O:6])[H:12])[H:11])[H:10])([H:7])([H:8])[H:9]>>[C:1]([N:2](/[C:3](=[N:4]/[C:5](=[O:6])[H:12])[H:10])[H:11])([H:7])([H:8])[H:9]"
C       -2.08461328      -0.21800829      -0.53144276
N       -0.78413358      -0.57519735      -0.02436139
C        0.24966932       0.20214316      -0.22446888
N        1.28192847      -0.40683580       0.39356937
C        2.41488785       0.31021226       0.68539941
O        3.42695782      -0.18918141       1.09679534
H       -2.82830716      -0.29876458       0.26348722
H       -2.09529248       0.80903197      -0.90852112
H       -2.38158012      -0.88876281      -1.34005545
H        0.16877958       1.29310589      -0.31406838
H        0.24216758      -1.39203463       0.59737267
H        2.38953601       1.35429158       0.30629397
12
Frame=14 idx=000048 GeodesicLength=0.457220709931217 rxn_smarts="[C:1](/[N:2]=[C:3](/[N:4]([C:5](=[O:6])[H:12])[H:11])[H:10])([H:7])([H:8])[H:9]>>[C:1]([N:2](/[C:3](=[N:4]/[C:5](=[O:6])[H:12])[H:10])[H:11])([H:7])([H:8])[H:9]"
C       -2.08130010      -0.21344365      -0.53079699
N       -0.78457832      -0.58157162      -0.02146872
C        0.25186439       0.19202089      -0.23202691
N        1.28469089      -0.41528276       0.38824343
C        2.40860392       0.31485964       0.68565202
O        3.42558169      -0.17634055       1.09436427
H       -2.82709938      -0.28980100       0.26261273
H       -2.08311930       0.81459689      -0.90558125
H       -2.38225550      -0.88000592      -1.34144145
H        0.16932671       1.28445439      -0.31072640
H        0.24442620      -1.40768974       0.60598256
H        2.37385881       1.35820344       0.30518671
12
Frame=15 idx=000048 GeodesicLength=0.4898760391260642 rxn_smarts="[C:1](/[N:2]=[C:3](/[N:4]([C:5](=[O:6])[H:12])[H:11])[H:10])([H:7])([H:8])[H:9]>>[C:1]([N:2](/[C:3](=[N:4]/[C:5](=[O:6])[H:12])[H:10])[H:11])([H:7])([H:8])[H:9]"
C       -2.07791785      -0.20897385      -0.53029440
N       -0.78503508      -0.58779282      -0.01860101
C        0.25388314       0.18226474      -0.23910312
N        1.28729874      -0.42346453       0.38326083
C        2.40237253       0.31932773       0.68564503
O        3.42421494      -0.16384710       1.09134299
H       -2.82588190      -0.28108775       0.26149170
H       -2.07101462       0.82000640      -0.90272643
H       -2.38258149      -0.87133302      -1.34303826
H        0.16974504       1.27604925      -0.30708745
H        0.24661572      -1.42306895       0.61509902
H        2.35830084       1.36191991       0.30401112
12
Frame=16 idx=000048 GeodesicLength=0.5225214657485517 rxn_smarts="[C:1](/[N:2]=[C:3](/[N:4]([C:5](=[O:6])[H:12])[H:11])[H:10])([H:7])([H:8])[H:9]>>[C:1]([N:2](/[C:3](=[N:4]/[C:5](=[O:6])[H:12])[H:10])[H:11])([H:7])([H:8])[H:9]"
C       -2.07448251      -0.20464335      -0.53001289
N       -0.78555008      -0.59382826      -0.01568883
C        0.25564353       0.17302988      -0.24545626
N        1.28970505      -0.43131311       0.37872114
C        2.39629080       0.32360956       0.68523910
O        3.42281262      -0.15173354       1.08792512
H       -2.82478843      -0.27288328       0.25991765
H       -2.05905984       0.82527816      -0.89987342
H       -2.38237355      -0.86271159      -1.34506525
H        0.16986890       1.26806306      -0.30257155
H        0.24869662      -1.43810318       0.62483135
H        2.34323688       1.36523564       0.30203385
