15
Frame=0 idx=008881 GeodesicLength=0.0 rxn_smarts="[C:1]([n:2]1[c:3]([H:11])[c:4]([H:12])[c:5]([N:6]([H:13])[H:14])[c:7]1[H:15])([H:8])([H:9])[H:10]>>[C:1]([N+:2]1([H:15])[C:3]([H:11])=[C:4]([H:12])[C:5]([N:6]([H:13])[H:14])=[C-:7]1)([H:8])([H:9])[H:10]"
C        2.24967493       0.39744128       0.15846038
N        0.88548841       0.02173380      -0.17644736
C        0.36899842      -1.24083516       0.08041188
C       -0.97081257      -1.11344235       0.22600371
C       -1.31675855       0.26216947       0.06045676
N       -2.62993170       0.73602745       0.14944603
C       -0.21387236       1.08036941      -0.10414897
H        2.94950916      -0.34093113      -0.23434625
H        2.44751138       1.37451475      -0.27725718
H        2.34989905       0.46779585       1.24084735
H        1.00379457      -2.11348984       0.10152204
H       -1.66069800      -1.92750377       0.40258368
H       -3.30394436       0.17695057      -0.34900679
H       -2.69453730       1.70485037      -0.12334726
H        0.53567898       0.51434937      -1.15517802
15
Frame=1 idx=008881 GeodesicLength=0.04933066525030975 rxn_smarts="[C:1]([n:2]1[c:3]([H:11])[c:4]([H:12])[c:5]([N:6]([H:13])[H:14])[c:7]1[H:15])([H:8])([H:9])[H:10]>>[C:1]([N+:2]1([H:15])[C:3]([H:11])=[C:4]([H:12])[C:5]([N:6]([H:13])[H:14])=[C-:7]1)([H:8])([H:9])[H:10]"
C        2.24760822       0.39539195       0.16127568
N        0.88491095       0.02316883      -0.18429218
C        0.36875552      -1.24140032       0.06978016
C       -0.96921666      -1.11387576       0.23038822
C       -1.31625141       0.26236291       0.06640474
N       -2.62977716       0.73697969       0.15243372
C       -0.21217407       1.07565887      -0.10379825
H        2.94777158      -0.34872017      -0.21997091
H        2.45571301       1.36814303      -0.27953196
H        2.33900392       0.47267822       1.24408543
H        1.00403500      -2.11362359       0.09261350
H       -1.65820105      -1.92757859       0.41192440
H       -3.30390935       0.17261755      -0.34013436
H       -2.69512633       1.70227463      -0.13274391
H        0.53685783       0.53592273      -1.16843429
15
Frame=2 idx=008881 GeodesicLength=0.09866713648389316 rxn_smarts="[C:1]([n:2]1[c:3]([H:11])[c:4]([H:12])[c:5]([N:6]([H:13])[H:14])[c:7]1[H:15])([H:8])([H:9])[H:10]>>[C:1]([N+:2]1([H:15])[C:3]([H:11])=[C:4]([H:12])[C:5]([N:6]([H:13])[H:14])=[C-:7]1)([H:8])([H:9])[H:10]"
C        2.24550159       0.39324618       0.16405123
N        0.88432339       0.02461464      -0.19206800
C        0.36842081      -1.24192091       0.05922946
C       -0.96752722      -1.11425579       0.23501970
C       -1.31569346       0.26257233       0.07233828
N       -2.62959752       0.73789394       0.15527061
C       -0.21048941       1.07095666      -0.10363923
H        2.94574489      -0.35657502      -0.20571866
H        2.46397304       1.36159124      -0.28164409
H        2.32819677       0.47741054       1.24716207
H        1.00415115      -2.11374754       0.08346927
H       -1.65556896      -1.92759751       0.42154044
H       -3.30381158       0.16816563      -0.33124175
H       -2.69574810       1.69943951      -0.14243435
H        0.53812461       0.55820609      -1.18133497
15
Frame=3 idx=008881 GeodesicLength=0.14800783430004544 rxn_smarts="[C:1]([n:2]1[c:3]([H:11])[c:4]([H:12])[c:5]([N:6]([H:13])[H:14])[c:7]1[H:15])([H:8])([H:9])[H:10]>>[C:1]([N+:2]1([H:15])[C:3]([H:11])=[C:4]([H:12])[C:5]([N:6]([H:13])[H:14])=[C-:7]1)([H:8])([H:9])[H:10]"
C        2.24335848       0.39100936       0.16676432
N        0.88372375       0.02606128      -0.19976819
C        0.36799461      -1.24239575       0.04882949
C       -0.96574194      -1.11458046       0.23993836
C       -1.31508368       0.26279985       0.07829152
N       -2.62939577       0.73876275       0.15796888
C       -0.20882120       1.06625751      -0.10367893
H        2.94343030      -0.36450514      -0.19159473
H        2.47228477       1.35484584      -0.28365916
H        2.31749670       0.48204325       1.25005377
H        1.00414502      -2.11385951       0.07419050
H       -1.65282875      -1.92758830       0.43123903
H       -3.30363473       0.16361419      -0.32236690
H       -2.69639873       1.69634715      -0.15235219
H        0.53947117       0.58118796      -1.19385578
15
Frame=4 idx=008881 GeodesicLength=0.1973526442301571 rxn_smarts="[C:1]([n:2]1[c:3]([H:11])[c:4]([H:12])[c:5]([N:6]([H:13])[H:14])[c:7]1[H:15])([H:8])([H:9])[H:10]>>[C:1]([N+:2]1([H:15])[C:3]([H:11])=[C:4]([H:12])[C:5]([N:6]([H:13])[H:14])=[C-:7]1)([H:8])([H:9])[H:10]"
C        2.24118055       0.38868433       0.16940353
N        0.88311228       0.02749954      -0.20739641
C        0.36747739      -1.24282759       0.03861532
C       -0.96386019      -1.11485136       0.24514519
C       -1.31442125       0.26304579       0.08427017
N       -2.62917078       0.73958371       0.16053960
C       -0.20717102       1.06155615      -0.10393070
H        2.94083262      -0.37251438      -0.17759667
H        2.48064396       1.34789748      -0.28561355
H        2.30690831       0.48660834       1.25275001
H        1.00401866      -2.11396111       0.06484348
H       -1.64999911      -1.92756459       0.44092035
H       -3.30337729       0.15897404      -0.31350906
H       -2.69707581       1.69299682      -0.16246319
H        0.54090166       0.60487284      -1.20597806
15
Frame=5 idx=008881 GeodesicLength=0.24670055116392473 rxn_smarts="[C:1]([n:2]1[c:3]([H:11])[c:4]([H:12])[c:5]([N:6]([H:13])[H:14])[c:7]1[H:15])([H:8])([H:9])[H:10]>>[C:1]([N+:2]1([H:15])[C:3]([H:11])=[C:4]([H:12])[C:5]([N:6]([H:13])[H:14])=[C-:7]1)([H:8])([H:9])[H:10]"
C        2.23896901       0.38627729       0.17195348
N        0.88248970       0.02891621      -0.21495848
C        0.36687235      -1.24322177       0.02863231
C       -0.96188312      -1.11507323       0.25063371
C       -1.31370496       0.26330770       0.09027558
N       -2.62891989       0.74035235       0.16300304
C       -0.20554112       1.05684318      -0.10441940
H        2.93795813      -0.38060277      -0.16371967
H        2.48904392       1.34073693      -0.28755364
H        2.29643523       0.49114902       1.25523460
H        1.00378041      -2.11405221       0.05554007
H       -1.64710875      -1.92754792       0.45043794
H       -3.30303735       0.15426640      -0.30467275
H       -2.69777405       1.68939546      -0.17269779
H        0.54242050       0.62925335      -1.21768901
15
Frame=6 idx=008881 GeodesicLength=0.2960629439092173 rxn_smarts="[C:1]([n:2]1[c:3]([H:11])[c:4]([H:12])[c:5]([N:6]([H:13])[H:14])[c:7]1[H:15])([H:8])([H:9])[H:10]>>[C:1]([N+:2]1([H:15])[C:3]([H:11])=[C:4]([H:12])[C:5]([N:6]([H:13])[H:14])=[C-:7]1)([H:8])([H:9])[H:10]"
C        2.23670996       0.38375287       0.17448547
N        0.88185991       0.03033544      -0.22250704
C        0.36616204      -1.24358098       0.01865298
C       -0.95980370      -1.11523889       0.25628229
C       -1.31293735       0.26359387       0.09621635
N       -2.62864348       0.74107867       0.16528175
C       -0.20392652       1.05214135      -0.10511436
H        2.93480431      -0.38879852      -0.14988684
H        2.49751979       1.33335102      -0.28932894
H        2.28598926       0.49555240       1.25759277
H        1.00338322      -2.11416571       0.04577143
H       -1.64402849      -1.92740841       0.46058890
H       -3.30265310       0.14940242      -0.29574955
H       -2.69852092       1.68547157      -0.18334224
H        0.54408507       0.65451291      -1.22894298
15
Frame=7 idx=008881 GeodesicLength=0.34543980282932873 rxn_smarts="[C:1]([n:2]1[c:3]([H:11])[c:4]([H:12])[c:5]([N:6]([H:13])[H:14])[c:7]1[H:15])([H:8])([H:9])[H:10]>>[C:1]([N+:2]1([H:15])[C:3]([H:11])=[C:4]([H:12])[C:5]([N:6]([H:13])[H:14])=[C-:7]1)([H:8])([H:9])[H:10]"
C        2.23440394       0.38111080       0.17698242
N        0.88122140       0.03175011      -0.23004641
C        0.36534446      -1.24390563       0.00871033
C       -0.95762060      -1.11534657       0.26210420
C       -1.31211781       0.26390676       0.10210907
N       -2.62834356       0.74175716       0.16737913
C       -0.20232928       1.04744705      -0.10602414
H        2.93136811      -0.39710951      -0.13610582
H        2.50606715       1.32572725      -0.29097720
H        2.27557959       0.49984230       1.25980645
H        1.00282629      -2.11429976       0.03561229
H       -1.64076540      -1.92715795       0.47127398
H       -3.30221561       0.14439280      -0.28675742
H       -2.69931557       1.68121709      -0.19436418
H        0.54589691       0.68066809      -1.23970271
15
Frame=8 idx=008881 GeodesicLength=0.39483042075832747 rxn_smarts="[C:1]([n:2]1[c:3]([H:11])[c:4]([H:12])[c:5]([N:6]([H:13])[H:14])[c:7]1[H:15])([H:8])([H:9])[H:10]>>[C:1]([N+:2]1([H:15])[C:3]([H:11])=[C:4]([H:12])[C:5]([N:6]([H:13])[H:14])=[C-:7]1)([H:8])([H:9])[H:10]"
C        2.23205171       0.37835552       0.17942139
N        0.88057288       0.03314825      -0.23758066
C        0.36442102      -1.24419906      -0.00114386
C       -0.95533367      -1.11539766       0.26811411
C       -1.31124503       0.26424622       0.10797211
N       -2.62802088       0.74237981       0.16930929
C       -0.20075247       1.04275203      -0.10716738
H        2.92764846      -0.40554013      -0.12238041
H        2.51467882       1.31785160      -0.29255533
H        2.26521735       0.50406193       1.26184962
H        1.00211548      -2.11445171       0.02518721
H       -1.63734224      -1.92682039       0.48232502
H       -3.30171314       0.13925927      -0.27772586
H       -2.70015345       1.67663487      -0.20569040
H        0.54785517       0.70771945      -1.24993482
15
Frame=9 idx=008881 GeodesicLength=0.4442348867777294 rxn_smarts="[C:1]([n:2]1[c:3]([H:11])[c:4]([H:12])[c:5]([N:6]([H:13])[H:14])[c:7]1[H:15])([H:8])([H:9])[H:10]>>[C:1]([N+:2]1([H:15])[C:3]([H:11])=[C:4]([H:12])[C:5]([N:6]([H:13])[H:14])=[C-:7]1)([H:8])([H:9])[H:10]"
C        2.22965270       0.37549041       0.18178602
N        0.87991452       0.03451809      -0.24511921
C        0.36339404      -1.24446716      -0.01087524
C       -0.95294377      -1.11539535       0.27430816
C       -1.31031790       0.26461103       0.11380836
N       -2.62767449       0.74294124       0.17108497
C       -0.19919883       1.03804776      -0.10856752
H        2.92364596      -0.41409248      -0.10870657
H        2.52334943       1.30971138      -0.29410597
H        2.25490455       0.50824674       1.26370326
H        1.00125645      -2.11462260       0.01459017
H       -1.63377613      -1.92641115       0.49363091
H       -3.30114133       0.13401890      -0.26866601
H       -2.70103172       1.67172683      -0.21726540
H        0.54996650       0.73567635      -1.25960596
15
Frame=10 idx=008881 GeodesicLength=0.49364959153294913 rxn_smarts="[C:1]([n:2]1[c:3]([H:11])[c:4]([H:12])[c:5]([N:6]([H:13])[H:14])[c:7]1[H:15])([H:8])([H:9])[H:10]>>[C:1]([N+:2]1([H:15])[C:3]([H:11])=[C:4]([H:12])[C:5]([N:6]([H:13])[H:14])=[C-:7]1)([H:8])([H:9])[H:10]"
C        2.22720465       0.37252544       0.18405991
N        0.87924833       0.03584149      -0.25267540
C        0.36227113      -1.24471970      -0.02043607
C       -0.95045432      -1.11534894       0.28066519
C       -1.30933426       0.26499302       0.11960132
N       -2.62729795       0.74343784       0.17273945
C       -0.19767137       1.03331566      -0.11027453
H        2.91936365      -0.42276250      -0.09505917
H        2.53207271       1.30129054      -0.29568659
H        2.24463454       0.51245942       1.26534357
H        1.00026371      -2.11481178       0.00396161
H       -1.63009876      -1.92595887       0.50501537
H       -3.30050177       0.12870216      -0.25957122
H       -2.70194392       1.66651114      -0.22898912
H        0.55224363       0.76452509      -1.26869432
15
Frame=11 idx=008881 GeodesicLength=0.5430895584236911 rxn_smarts="[C:1]([n:2]1[c:3]([H:11])[c:4]([H:12])[c:5]([N:6]([H:13])[H:14])[c:7]1[H:15])([H:8])([H:9])[H:10]>>[C:1]([N+:2]1([H:15])[C:3]([H:11])=[C:4]([H:12])[C:5]([N:6]([H:13])[H:14])=[C-:7]1)([H:8])([H:9])[H:10]"
C        2.22470245       0.36941393       0.18627617
N        0.87856753       0.03715238      -0.26027442
C        0.36101858      -1.24494226      -0.03000457
C       -0.94784854      -1.11522347       0.28719879
C       -1.30829400       0.26542422       0.12537674
N       -2.62690499       0.74387298       0.17415755
C       -0.19616463       1.02859653      -0.11219167
H        2.91477632      -0.43159368      -0.08145540
H        2.54087606       1.29256969      -0.29718034
H        2.23438654       0.51655959       1.26681731
H        0.99907047      -2.11503633      -0.00713772
H       -1.62618123      -1.92534260       0.51710900
H       -3.29979306       0.12320174      -0.25040375
H       -2.70291522       1.66086989      -0.24121755
H        0.55470372       0.79447738      -1.27707014
15
Frame=12 idx=008881 GeodesicLength=0.5925422428687734 rxn_smarts="[C:1]([n:2]1[c:3]([H:11])[c:4]([H:12])[c:5]([N:6]([H:13])[H:14])[c:7]1[H:15])([H:8])([H:9])[H:10]>>[C:1]([N+:2]1([H:15])[C:3]([H:11])=[C:4]([H:12])[C:5]([N:6]([H:13])[H:14])=[C-:7]1)([H:8])([H:9])[H:10]"
C        2.22214439       0.36619246       0.18839340
N        0.87788070       0.03840496      -0.26792878
C        0.35966617      -1.24516035      -0.03942896
C       -0.94514286      -1.11505258       0.29385093
C       -1.30719562       0.26587644       0.13107969
N       -2.62647923       0.74424262       0.17544313
C       -0.19468709       1.02384258      -0.11445483
H        2.90990350      -0.44054937      -0.06787134
H        2.54972853       1.28354749      -0.29870784
H        2.22415993       0.52068494       1.26806829
H        0.99773610      -2.11528958      -0.01826270
H       -1.62212732      -1.92465949       0.52936659
H       -3.29902519       0.11762103      -0.24116307
H       -2.70392795       1.65488793      -0.25362868
H        0.55736596       0.82541092      -1.28475583
15
Frame=13 idx=008881 GeodesicLength=0.6419990784781725 rxn_smarts="[C:1]([n:2]1[c:3]([H:11])[c:4]([H:12])[c:5]([N:6]([H:13])[H:14])[c:7]1[H:15])([H:8])([H:9])[H:10]>>[C:1]([N+:2]1([H:15])[C:3]([H:11])=[C:4]([H:12])[C:5]([N:6]([H:13])[H:14])=[C-:7]1)([H:8])([H:9])[H:10]"
C        2.21953110       0.36289463       0.19037161
N        0.87719390       0.03955355      -0.27564271
C        0.35824312      -1.24540387      -0.04856741
C       -0.94235636      -1.11486674       0.30058121
C       -1.30603753       0.26632574       0.13668450
N       -2.62601291       0.74453124       0.17666516
C       -0.19324732       1.01901148      -0.11716399
H        2.90476575      -0.44958390      -0.05431218
H        2.55859206       1.27423515      -0.30036643
H        2.21396989       0.52493996       1.26904477
H        0.99631332      -2.11557914      -0.02906303
H       -1.61803433      -1.92398224       0.54138414
H       -3.29818921       0.11205007      -0.23193176
H       -2.70496487       1.64865182      -0.26592442
H        0.56023338       0.85722223      -1.29175946
15
Frame=14 idx=008881 GeodesicLength=0.691443509307909 rxn_smarts="[C:1]([n:2]1[c:3]([H:11])[c:4]([H:12])[c:5]([N:6]([H:13])[H:14])[c:7]1[H:15])([H:8])([H:9])[H:10]>>[C:1]([N+:2]1([H:15])[C:3]([H:11])=[C:4]([H:12])[C:5]([N:6]([H:13])[H:14])=[C-:7]1)([H:8])([H:9])[H:10]"
C        2.21686078       0.35957828       0.19216590
N        0.87652112       0.04052961      -0.28342535
C        0.35680362      -1.24571946      -0.05721921
C       -0.93951766      -1.11471533       0.30731321
C       -1.30481345       0.26673132       0.14213401
N       -2.62548095       0.74473174       0.17796332
C       -0.19185708       1.01403373      -0.12048193
H        2.89939763      -0.45862918      -0.04072767
H        2.56742136       1.26464063      -0.30230985
H        2.20381258       0.52951425       1.26967841
H        0.99489700      -2.11591485      -0.03901860
H       -1.61406858      -1.92343335       0.55248980
H       -3.29728831       0.10662189      -0.22274454
H       -2.70599634       1.64230568      -0.27767274
H        0.56330827       0.88972502      -1.29814476
15
Frame=15 idx=008881 GeodesicLength=0.7408999354503915 rxn_smarts="[C:1]([n:2]1[c:3]([H:11])[c:4]([H:12])[c:5]([N:6]([H:13])[H:14])[c:7]1[H:15])([H:8])([H:9])[H:10]>>[C:1]([N+:2]1([H:15])[C:3]([H:11])=[C:4]([H:12])[C:5]([N:6]([H:13])[H:14])=[C-:7]1)([H:8])([H:9])[H:10]"
C        2.21412098       0.35618543       0.19384051
N        0.87586343       0.04137359      -0.29133253
C        0.35530990      -1.24609560      -0.06565792
C       -0.93660691      -1.11456221       0.31401705
C       -1.30352234       0.26712602       0.14739017
N       -2.62488882       0.74487459       0.17922013
C       -0.19050736       1.00895218      -0.12435398
H        2.89377098      -0.46773738      -0.02708849
H        2.57626315       1.25474255      -0.30435414
H        2.19361458       0.53423481       1.27004618
H        0.99340886      -2.11632380      -0.04870610
H       -1.61004571      -1.92286155       0.56352142
H       -3.29636059       0.10120408      -0.21341734
H       -2.70707046       1.63570805      -0.28935453
H        0.56665030       0.92317921      -1.30377043
15
Frame=16 idx=008881 GeodesicLength=0.7903692743313767 rxn_smarts="[C:1]([n:2]1[c:3]([H:11])[c:4]([H:12])[c:5]([N:6]([H:13])[H:14])[c:7]1[H:15])([H:8])([H:9])[H:10]>>[C:1]([N+:2]1([H:15])[C:3]([H:11])=[C:4]([H:12])[C:5]([N:6]([H:13])[H:14])=[C-:7]1)([H:8])([H:9])[H:10]"
C        2.21129389       0.35266545       0.19543782
N        0.87522051       0.04211830      -0.29941526
C        0.35372566      -1.24651258      -0.07409762
C       -0.93360000      -1.11436462       0.32068607
C       -1.30215919       0.26753911       0.15242293
N       -2.62423376       0.74498382       0.18034494
C       -0.18919039       1.00379735      -0.12874940
H        2.88784787      -0.47696156      -0.01336006
H        2.58515352       1.24450229      -0.30637378
H        2.18330619       0.53897786       1.27019427
H        0.99178068      -2.11680938      -0.05855759
H       -1.60581085      -1.92213796       0.57507837
H       -3.29542865       0.09569469      -0.20376680
H       -2.70822092       1.62870976      -0.30136518
H        0.57031544       0.95779746      -1.30847869
