9
Frame=0 idx=005265 GeodesicLength=0.0 rxn_smarts="[n:1]1([H:6])[c:2]([H:7])[c:3]([H:8])[c:4]([H:9])[n:5]1>>[C:2](#[C:3][H:8])[H:7].[N-:1]([N+:5]#[C:4][H:9])[H:6]"
N       -1.14142730      -1.00281842       0.28628878
C       -0.71317328       1.29426490      -0.04589161
C        0.50224204       1.33082053      -0.11076343
C        1.15943898      -0.83975577       0.00540220
N        0.05922394      -1.29956222       0.12214472
H       -1.72699230      -1.52408981      -0.36481403
H       -1.75718851       1.48906783       0.01537148
H        1.48111104       1.74454444      -0.19660029
H        2.13676537      -1.19247152       0.28886221
9
Frame=1 idx=005265 GeodesicLength=0.050020664680746826 rxn_smarts="[n:1]1([H:6])[c:2]([H:7])[c:3]([H:8])[c:4]([H:9])[n:5]1>>[C:2](#[C:3][H:8])[H:7].[N-:1]([N+:5]#[C:4][H:9])[H:6]"
N       -1.13044612      -0.99834525       0.29468922
C       -0.72401357       1.27607236      -0.04951276
C        0.49392811       1.31014901      -0.13903750
C        1.16477563      -0.83787479       0.01486962
N        0.06786889      -1.31392473       0.13258231
H       -1.72381620      -1.48675871      -0.37374130
H       -1.76175286       1.50260446       0.01812297
H        1.46785026       1.74326185      -0.17790312
H        2.14560586      -1.19518421       0.27993056
9
Frame=2 idx=005265 GeodesicLength=0.09997358470580364 rxn_smarts="[n:1]1([H:6])[c:2]([H:7])[c:3]([H:8])[c:4]([H:9])[n:5]1>>[C:2](#[C:3][H:8])[H:7].[N-:1]([N+:5]#[C:4][H:9])[H:6]"
N       -1.11928042      -0.99284604       0.30557103
C       -0.73429445       1.25858345      -0.05355112
C        0.48668512       1.29105691      -0.15720276
C        1.16951027      -0.83550234       0.02206413
N        0.07614973      -1.32696356       0.14370966
H       -1.72103570      -1.45208694      -0.37511526
H       -1.76601206       1.51517075       0.00647206
H        1.45384201       1.74225630      -0.15313826
H        2.15443550      -1.19966854       0.26119051
9
Frame=3 idx=005265 GeodesicLength=0.1496728710348214 rxn_smarts="[n:1]1([H:6])[c:2]([H:7])[c:3]([H:8])[c:4]([H:9])[n:5]1>>[C:2](#[C:3][H:8])[H:7].[N-:1]([N+:5]#[C:4][H:9])[H:6]"
N       -1.10836758      -0.98696586       0.31595824
C       -0.74438584       1.24161887      -0.06004518
C        0.48018231       1.27297597      -0.16989168
C        1.17403697      -0.83278103       0.02960208
N        0.08409820      -1.33916065       0.15450275
H       -1.71786896      -1.41970128      -0.37432619
H       -1.76925550       1.52782138      -0.00717145
H        1.43894393       1.74085400      -0.12866879
H        2.16261647      -1.20466138       0.24004022
9
Frame=4 idx=005265 GeodesicLength=0.19926211845143688 rxn_smarts="[n:1]1([H:6])[c:2]([H:7])[c:3]([H:8])[c:4]([H:9])[n:5]1>>[C:2](#[C:3][H:8])[H:7].[N-:1]([N+:5]#[C:4][H:9])[H:6]"
N       -1.09749022      -0.98049055       0.32734070
C       -0.75420128       1.22513330      -0.06753821
C        0.47448504       1.25600633      -0.17790643
C        1.17834169      -0.82984007       0.03659876
N        0.09178547      -1.35048420       0.16573987
H       -1.71484614      -1.38945567      -0.36962144
H       -1.77188869       1.53992960      -0.02746784
H        1.42361622       1.73965432      -0.10059139
H        2.17019791      -1.21045306       0.21344599
9
Frame=5 idx=005265 GeodesicLength=0.24858202900969426 rxn_smarts="[n:1]1([H:6])[c:2]([H:7])[c:3]([H:8])[c:4]([H:9])[n:5]1>>[C:2](#[C:3][H:8])[H:7].[N-:1]([N+:5]#[C:4][H:9])[H:6]"
N       -1.08606618      -0.97240155       0.34128769
C       -0.76373758       1.20857600      -0.08308524
C        0.46995243       1.24028861      -0.18267221
C        1.18250169      -0.82693341       0.04024905
N        0.09942346      -1.36057681       0.17797546
H       -1.71292802      -1.36229797      -0.35737214
H       -1.77306437       1.55158641      -0.05470734
H        1.40703319       1.73836431      -0.06082895
H        2.17688538      -1.21660558       0.17915368
9
Frame=6 idx=005265 GeodesicLength=0.29807684813318525 rxn_smarts="[n:1]1([H:6])[c:2]([H:7])[c:3]([H:8])[c:4]([H:9])[n:5]1>>[C:2](#[C:3][H:8])[H:7].[N-:1]([N+:5]#[C:4][H:9])[H:6]"
N       -1.07478524      -0.96410347       0.35591920
C       -0.77268798       1.19274716      -0.09384653
C        0.46598310       1.22550911      -0.18297117
C        1.18652924      -0.82366331       0.04559875
N        0.10688619      -1.36989329       0.19153504
H       -1.71035464      -1.33590492      -0.34388752
H       -1.77391846       1.56172475      -0.09016068
H        1.39012241       1.73707793      -0.02109548
H        2.18222537      -1.22349397       0.13890839
9
Frame=7 idx=005265 GeodesicLength=0.3474914014563757 rxn_smarts="[n:1]1([H:6])[c:2]([H:7])[c:3]([H:8])[c:4]([H:9])[n:5]1>>[C:2](#[C:3][H:8])[H:7].[N-:1]([N+:5]#[C:4][H:9])[H:6]"
N       -1.06421601      -0.95665135       0.36741672
C       -0.78130701       1.17748248      -0.10074028
C        0.46193407       1.21056225      -0.18443155
C        1.19065884      -0.82013638       0.05472023
N        0.11403361      -1.37910565       0.20416104
H       -1.70642366      -1.31007900      -0.33507183
H       -1.77334364       1.57198810      -0.11927263
H        1.37280829       1.73512984       0.01004240
H        2.18585552      -1.22919030       0.10317589
9
Frame=8 idx=005265 GeodesicLength=0.3971116929053305 rxn_smarts="[n:1]1([H:6])[c:2]([H:7])[c:3]([H:8])[c:4]([H:9])[n:5]1>>[C:2](#[C:3][H:8])[H:7].[N-:1]([N+:5]#[C:4][H:9])[H:6]"
N       -1.05399365      -0.94989050       0.37688154
C       -0.78988259       1.16262418      -0.10509289
C        0.45790698       1.19553489      -0.18658668
C        1.19480770      -0.81675569       0.06412415
N        0.12090260      -1.38836010       0.21479023
H       -1.70219791      -1.28494026      -0.32833770
H       -1.77139076       1.58230798      -0.14399770
H        1.35563452       1.73256394       0.03556962
H        2.18821311      -1.23308443       0.07264942
9
Frame=9 idx=005265 GeodesicLength=0.44661380345543134 rxn_smarts="[n:1]1([H:6])[c:2]([H:7])[c:3]([H:8])[c:4]([H:9])[n:5]1>>[C:2](#[C:3][H:8])[H:7].[N-:1]([N+:5]#[C:4][H:9])[H:6]"
N       -1.04458462      -0.94410229       0.38456356
C       -0.79811594       1.14860088      -0.10358829
C        0.45381546       1.18042991      -0.18775009
C        1.19879454      -0.81307881       0.07769017
N        0.12733382      -1.39755130       0.22558884
H       -1.69666690      -1.26018204      -0.32502778
H       -1.76867409       1.59194835      -0.16823050
H        1.33915517       1.72996366       0.05458142
H        2.18894256      -1.23602836       0.04217266
9
Frame=10 idx=005265 GeodesicLength=0.4961960464526422 rxn_smarts="[n:1]1([H:6])[c:2]([H:7])[c:3]([H:8])[c:4]([H:9])[n:5]1>>[C:2](#[C:3][H:8])[H:7].[N-:1]([N+:5]#[C:4][H:9])[H:6]"
N       -1.03458908      -0.93758962       0.39311584
C       -0.80622025       1.13451481      -0.10616965
C        0.45027054       1.16598821      -0.18862926
C        1.20267196      -0.80997364       0.08526552
N        0.13379666      -1.40627217       0.23497450
H       -1.69247570      -1.23702840      -0.31759326
H       -1.76444197       1.60134700      -0.19308226
H        1.32200907       1.72664917       0.07823248
H        2.18897878      -1.23763536       0.01388610
9
Frame=11 idx=005265 GeodesicLength=0.5458197982132377 rxn_smarts="[n:1]1([H:6])[c:2]([H:7])[c:3]([H:8])[c:4]([H:9])[n:5]1>>[C:2](#[C:3][H:8])[H:7].[N-:1]([N+:5]#[C:4][H:9])[H:6]"
N       -1.02473474      -0.93135733       0.40155978
C       -0.81411885       1.12115902      -0.10533239
C        0.44681285       1.15196327      -0.18793275
C        1.20630610      -0.80689585       0.09208101
N        0.14003800      -1.41475445       0.24389539
H       -1.68821167      -1.21430275      -0.30991034
H       -1.75937163       1.60950177      -0.22056172
H        1.30533047       1.72305000       0.10053262
H        2.18794948      -1.23836368      -0.01433159
9
Frame=12 idx=005265 GeodesicLength=0.5954587220557753 rxn_smarts="[n:1]1([H:6])[c:2]([H:7])[c:3]([H:8])[c:4]([H:9])[n:5]1>>[C:2](#[C:3][H:8])[H:7].[N-:1]([N+:5]#[C:4][H:9])[H:6]"
N       -1.01431397      -0.92409140       0.41130215
C       -0.82180125       1.10776407      -0.10885942
C        0.44396833       1.13890290      -0.18635316
C        1.20987794      -0.80403267       0.09434211
N        0.14640483      -1.42247722       0.25287440
H       -1.68494430      -1.19315847      -0.29808392
H       -1.75301480       1.61710565      -0.25046908
H        1.28757686       1.71890690       0.12875425
H        2.18624637      -1.23891977      -0.04350732
9
Frame=13 idx=005265 GeodesicLength=0.6450792080605088 rxn_smarts="[n:1]1([H:6])[c:2]([H:7])[c:3]([H:8])[c:4]([H:9])[n:5]1>>[C:2](#[C:3][H:8])[H:7].[N-:1]([N+:5]#[C:4][H:9])[H:6]"
N       -1.00343050      -0.91603317       0.42221318
C       -0.82920756       1.09462469      -0.11426613
C        0.44159201       1.12681479      -0.18338079
C        1.21335508      -0.80120140       0.09351544
N        0.15288825      -1.42948524       0.26216045
H       -1.68229506      -1.17306114      -0.28306454
H       -1.74546901       1.62360190      -0.28403403
H        1.26891620       1.71416520       0.16145056
H        2.18365060      -1.23942563      -0.07459415
9
Frame=14 idx=005265 GeodesicLength=0.6949060021024627 rxn_smarts="[n:1]1([H:6])[c:2]([H:7])[c:3]([H:8])[c:4]([H:9])[n:5]1>>[C:2](#[C:3][H:8])[H:7].[N-:1]([N+:5]#[C:4][H:9])[H:6]"
N       -0.99164456      -0.90633288       0.43633769
C       -0.83604331       1.08179743      -0.12207719
C        0.44012056       1.11644890      -0.17673391
C        1.21697622      -0.79825203       0.08941545
N        0.15981175      -1.43526607       0.27342483
H       -1.68054628      -1.15390630      -0.26184442
H       -1.73604142       1.62722791      -0.32869531
H        1.24848465       1.70865700       0.20454502
H        2.17888239      -1.24037396      -0.11437215
9
Frame=15 idx=005265 GeodesicLength=0.7451145191719301 rxn_smarts="[n:1]1([H:6])[c:2]([H:7])[c:3]([H:8])[c:4]([H:9])[n:5]1>>[C:2](#[C:3][H:8])[H:7].[N-:1]([N+:5]#[C:4][H:9])[H:6]"
N       -0.97940239      -0.89560430       0.45038134
C       -0.84238220       1.06856869      -0.13378563
C        0.43892507       1.10661008      -0.17081440
C        1.22032675      -0.79498429       0.08309186
N        0.16701625      -1.43986261       0.28573434
H       -1.67828283      -1.13571271      -0.23958771
H       -1.72498591       1.63067463      -0.37131831
H        1.22593960       1.70152159       0.24993368
H        2.17284566      -1.24121108      -0.15363518
9
Frame=16 idx=005265 GeodesicLength=0.7953241408389101 rxn_smarts="[n:1]1([H:6])[c:2]([H:7])[c:3]([H:8])[c:4]([H:9])[n:5]1>>[C:2](#[C:3][H:8])[H:7].[N-:1]([N+:5]#[C:4][H:9])[H:6]"
N       -0.96729248      -0.88508624       0.46371926
C       -0.84859236       1.05598191      -0.14314962
C        0.43770305       1.09724095      -0.16442982
C        1.22362426      -0.79149140       0.07742741
N        0.17420889      -1.44421494       0.29754839
H       -1.67585537      -1.11761866      -0.21813109
H       -1.71285266       1.63286761      -0.41385343
H        1.20331126       1.69379904       0.29303163
H        2.16574541      -1.24147827      -0.19216271
