15
Frame=0 idx=006399 GeodesicLength=0.0 rxn_smarts="[C:1]([C@@:2]1([H:11])[O:3]/[C:4](=[N:5]\[H:12])[C@:6]1([N:7]([H:14])[H:15])[H:13])([H:8])([H:9])[H:10]>>[C:1](=[C:2]([O:3][C:4](=[N:5]\[H:12])/[C:6](=[N:7]\[H:15])[H:13])[H:11])([H:8])[H:10].[H:9][H:14]"
C        1.77039092       0.05579835       0.34187673
C        0.92554902      -0.67193750      -0.44252956
O       -0.01761570      -1.54995937       0.14530934
C       -1.20018158      -0.90721272      -0.02789738
N       -2.32967739      -1.28080569       0.36142173
C       -0.88659233       0.38254075      -0.73381227
N       -0.96377904       1.54796142      -0.14063755
H        1.76725538      -0.09637056       1.41486704
H        1.13720828       1.49591360       0.53342396
H        2.68119951       0.44654421      -0.09164797
H        1.15284095      -0.89740983      -1.47693488
H       -2.28479306      -2.17863800       0.83896635
H       -0.86045871       0.36973311      -1.82050320
H        0.38210664       1.85632268       0.27411332
H       -1.27345288       1.42751954       0.82398433
15
Frame=1 idx=006399 GeodesicLength=0.08618674788603731 rxn_smarts="[C:1]([C@@:2]1([H:11])[O:3]/[C:4](=[N:5]\[H:12])[C@:6]1([N:7]([H:14])[H:15])[H:13])([H:8])([H:9])[H:10]>>[C:1](=[C:2]([O:3][C:4](=[N:5]\[H:12])/[C:6](=[N:7]\[H:15])[H:13])[H:11])([H:8])[H:10].[H:9][H:14]"
C        1.76260870       0.05710581       0.34261605
C        0.92459181      -0.67220219      -0.45286432
O       -0.01588489      -1.56226332       0.12016459
C       -1.19810578      -0.91104240      -0.02527259
N       -2.32266449      -1.27913652       0.38269066
C       -0.88692777       0.38222201      -0.72537411
N       -0.97262390       1.54731668      -0.12783033
H        1.72746847      -0.08690774       1.41659397
H        1.16012920       1.52840041       0.50563711
H        2.70278831       0.39882279      -0.06947939
H        1.16745183      -0.89861704      -1.48371796
H       -2.27897309      -2.19084808       0.83319028
H       -0.86120653       0.37607875      -1.81212693
H        0.37655236       1.88740785       0.26065106
H       -1.28520424       1.42366299       0.83512190
15
Frame=2 idx=006399 GeodesicLength=0.17215797253181642 rxn_smarts="[C:1]([C@@:2]1([H:11])[O:3]/[C:4](=[N:5]\[H:12])[C@:6]1([N:7]([H:14])[H:15])[H:13])([H:8])([H:9])[H:10]>>[C:1](=[C:2]([O:3][C:4](=[N:5]\[H:12])/[C:6](=[N:7]\[H:15])[H:13])[H:11])([H:8])[H:10].[H:9][H:14]"
C        1.75519398       0.05886456       0.34241957
C        0.92378469      -0.67278948      -0.46313069
O       -0.01424425      -1.57371765       0.09595101
C       -1.19574895      -0.91469247      -0.02230581
N       -2.31490659      -1.27756661       0.40435667
C       -0.88692976       0.38199622      -0.71667238
N       -0.98065458       1.54677352      -0.11479880
H        1.68906832      -0.07668776       1.41651589
H        1.18294653       1.55995996       0.47759715
H        2.72187514       0.35101692      -0.04640701
H        1.18208939      -0.90094796      -1.49005400
H       -2.27382531      -2.20313252       0.82586480
H       -0.86155709       0.38244989      -1.80344413
H        0.37052375       1.91836804       0.24808152
H       -1.29761527       1.42010534       0.84602620
15
Frame=3 idx=006399 GeodesicLength=0.2578195572524876 rxn_smarts="[C:1]([C@@:2]1([H:11])[O:3]/[C:4](=[N:5]\[H:12])[C@:6]1([N:7]([H:14])[H:15])[H:13])([H:8])([H:9])[H:10]>>[C:1](=[C:2]([O:3][C:4](=[N:5]\[H:12])/[C:6](=[N:7]\[H:15])[H:13])[H:11])([H:8])[H:10].[H:9][H:14]"
C        1.74813545       0.06090932       0.34133444
C        0.92317346      -0.67364776      -0.47356939
O       -0.01267048      -1.58449215       0.07213582
C       -1.19311073      -0.91829174      -0.01953534
N       -2.30647275      -1.27635489       0.42557829
C       -0.88654116       0.38187152      -0.70796851
N       -0.98797825       1.54622293      -0.10159192
H        1.65202843      -0.06630027       1.41467965
H        1.20540681       1.59039725       0.44996102
H        2.73829571       0.30341079      -0.02233438
H        1.19695841      -0.90416716      -1.49617404
H       -2.26886164      -2.21427251       0.81912128
H       -0.86133521       0.38906526      -1.79471325
H        0.36391203       1.94912474       0.23653113
H       -1.31094005       1.41652466       0.85654522
15
Frame=4 idx=006399 GeodesicLength=0.3431641145648803 rxn_smarts="[C:1]([C@@:2]1([H:11])[O:3]/[C:4](=[N:5]\[H:12])[C@:6]1([N:7]([H:14])[H:15])[H:13])([H:8])([H:9])[H:10]>>[C:1](=[C:2]([O:3][C:4](=[N:5]\[H:12])/[C:6](=[N:7]\[H:15])[H:13])[H:11])([H:8])[H:10].[H:9][H:14]"
C        1.74150749       0.06319970       0.33937211
C        0.92272774      -0.67475625      -0.48414177
O       -0.01116075      -1.59460037       0.04882714
C       -1.19020007      -0.92179236      -0.01679392
N       -2.29737425      -1.27541631       0.44657063
C       -0.88578255       0.38183448      -0.69921092
N       -0.99461469       1.54569451      -0.08823454
H        1.61648823      -0.05583999       1.41116969
H        1.22755709       1.61982820       0.42291443
H        2.75202904       0.25611856       0.00259526
H        1.21200434      -0.90832545      -1.50201127
H       -2.26419537      -2.22459642       0.81246244
H       -0.86064214       0.39583325      -1.78588355
H        0.35677072       1.97981457       0.22570058
H       -1.32511483       1.41300389       0.86666370
15
Frame=5 idx=006399 GeodesicLength=0.4285783817694946 rxn_smarts="[C:1]([C@@:2]1([H:11])[O:3]/[C:4](=[N:5]\[H:12])[C@:6]1([N:7]([H:14])[H:15])[H:13])([H:8])([H:9])[H:10]>>[C:1](=[C:2]([O:3][C:4](=[N:5]\[H:12])/[C:6](=[N:7]\[H:15])[H:13])[H:11])([H:8])[H:10].[H:9][H:14]"
C        1.73527765       0.06565208       0.33664845
C        0.92242306      -0.67602825      -0.49490648
O       -0.00972892      -1.60413014       0.02582415
C       -1.18704652      -0.92523020      -0.01416222
N       -2.28762092      -1.27477861       0.46730576
C       -0.88469785       0.38188391      -0.69041767
N       -1.00070597       1.54514826      -0.07468924
H        1.58228417      -0.04548685       1.40619337
H        1.24947231       1.64835532       0.39670505
H        2.76334979       0.20898070       0.02836370
H        1.22726910      -0.91322806      -1.50762516
H       -2.25967654      -2.23405452       0.80620085
H       -0.85956234       0.40279756      -1.77697130
H        0.34902565       2.01066164       0.21515936
H       -1.34006267       1.40945716       0.87637141
15
Frame=6 idx=006399 GeodesicLength=0.513861641207534 rxn_smarts="[C:1]([C@@:2]1([H:11])[O:3]/[C:4](=[N:5]\[H:12])[C@:6]1([N:7]([H:14])[H:15])[H:13])([H:8])([H:9])[H:10]>>[C:1](=[C:2]([O:3][C:4](=[N:5]\[H:12])/[C:6](=[N:7]\[H:15])[H:13])[H:11])([H:8])[H:10].[H:9][H:14]"
C        1.72954724       0.06823965       0.33315632
C        0.92223799      -0.67748149      -0.50578525
O       -0.00835788      -1.61309156       0.00332691
C       -1.18363815      -0.92856415      -0.01142198
N       -2.27721581      -1.27437486       0.48802164
C       -0.88328651       0.38199481      -0.68149515
N       -1.00620175       1.54460698      -0.06093061
H        1.54956556      -0.03520894       1.39981638
H        1.27132206       1.67615046       0.37128805
H        2.77211133       0.16218932       0.05478379
H        1.24266413      -0.91900747      -1.51290292
H       -2.25555512      -2.24300703       0.79958695
H       -0.85816846       0.40985236      -1.76788596
H        0.34069769       2.04173046       0.20472716
H       -1.35572231       1.40597146       0.88571467
15
Frame=7 idx=006399 GeodesicLength=0.5989518620516732 rxn_smarts="[C:1]([C@@:2]1([H:11])[O:3]/[C:4](=[N:5]\[H:12])[C@:6]1([N:7]([H:14])[H:15])[H:13])([H:8])([H:9])[H:10]>>[C:1](=[C:2]([O:3][C:4](=[N:5]\[H:12])/[C:6](=[N:7]\[H:15])[H:13])[H:11])([H:8])[H:10].[H:9][H:14]"
C        1.72430938       0.07082154       0.32896004
C        0.92217387      -0.67909820      -0.51688310
O       -0.00707707      -1.62156811      -0.01894601
C       -1.18000604      -0.93183647      -0.00883112
N       -2.26625086      -1.27428260       0.50828688
C       -0.88151900       0.38219268      -0.67255117
N       -1.01113646       1.54402011      -0.04694446
H        1.51823070      -0.02523929       1.39212657
H        1.29315994       1.70320774       0.34690986
H        2.77819267       0.11583803       0.08185573
H        1.25827878      -0.92555574      -1.51793026
H       -2.25149323      -2.25104783       0.79363902
H       -0.85638082       0.41713742      -1.75872763
H        0.33167481       2.07303225       0.19439778
H       -1.37215666       1.40237847       0.89463787
15
Frame=8 idx=006399 GeodesicLength=0.6839706872117902 rxn_smarts="[C:1]([C@@:2]1([H:11])[O:3]/[C:4](=[N:5]\[H:12])[C@:6]1([N:7]([H:14])[H:15])[H:13])([H:8])([H:9])[H:10]>>[C:1](=[C:2]([O:3][C:4](=[N:5]\[H:12])/[C:6](=[N:7]\[H:15])[H:13])[H:11])([H:8])[H:10].[H:9][H:14]"
C        1.71957856       0.07333656       0.32412137
C        0.92220631      -0.68086799      -0.52818100
O       -0.00589884      -1.62959843      -0.04098748
C       -1.17616597      -0.93504725      -0.00634117
N       -2.25476070      -1.27448030       0.52816009
C       -0.87940412       0.38246989      -0.66354444
N       -1.01552322       1.54337514      -0.03267536
H        1.48823209      -0.01558511       1.38324602
H        1.31520498       1.72963369       0.32351608
H        2.78164322       0.06997974       0.10948164
H        1.27408106      -0.93286859      -1.52266823
H       -2.24752218      -2.25834310       0.78815953
H       -0.85424173       0.42464385      -1.74945264
H        0.32187457       2.10468260       0.18398318
H       -1.38930403       1.39866930       0.90318240
15
Frame=9 idx=006399 GeodesicLength=0.7693906456580901 rxn_smarts="[C:1]([C@@:2]1([H:11])[O:3]/[C:4](=[N:5]\[H:12])[C@:6]1([N:7]([H:14])[H:15])[H:13])([H:8])([H:9])[H:10]>>[C:1](=[C:2]([O:3][C:4](=[N:5]\[H:12])/[C:6](=[N:7]\[H:15])[H:13])[H:11])([H:8])[H:10].[H:9][H:14]"
C        1.71531096       0.07573402       0.31877789
C        0.92231537      -0.68273951      -0.53965004
O       -0.00484026      -1.63722572      -0.06283275
C       -1.17213982      -0.93821687      -0.00390405
N       -2.24272660      -1.27496404       0.54782709
C       -0.87697795       0.38282102      -0.65439304
N       -1.01945356       1.54263387      -0.01800419
H        1.45940094      -0.00619816       1.37340076
H        1.33773673       1.75556880       0.30102162
H        2.78283191       0.02440006       0.13750954
H        1.29007420      -0.94084173      -1.52707344
H       -2.24371883      -2.26508982       0.78282490
H       -0.85184361       0.43238071      -1.73997868
H        0.31110266       2.13692978       0.17309496
H       -1.40707214       1.39480759       0.91137942
15
Frame=10 idx=006399 GeodesicLength=0.8548807807031785 rxn_smarts="[C:1]([C@@:2]1([H:11])[O:3]/[C:4](=[N:5]\[H:12])[C@:6]1([N:7]([H:14])[H:15])[H:13])([H:8])([H:9])[H:10]>>[C:1](=[C:2]([O:3][C:4](=[N:5]\[H:12])/[C:6](=[N:7]\[H:15])[H:13])[H:11])([H:8])[H:10].[H:9][H:14]"
C        1.71156656       0.07793155       0.31293524
C        0.92249754      -0.68475334      -0.55128913
O       -0.00390879      -1.64448471      -0.08447823
C       -1.16792591      -0.94133647      -0.00151412
N       -2.23019398      -1.27572244       0.56719859
C       -0.87419981       0.38324059      -0.64510068
N       -1.02282749       1.54179081      -0.00291290
H        1.43180559       0.00286878       1.36261134
H        1.36091166       1.78100728       0.27939199
H        2.78147917      -0.02056863       0.16583090
H        1.30622858      -0.94955393      -1.53111697
H       -2.24007606      -2.27126802       0.77769253
H       -0.84913797       0.44035126      -1.73030324
H        0.29929685       2.16969658       0.16185348
H       -1.42551593       1.39080069       0.91920121
15
Frame=11 idx=006399 GeodesicLength=0.9404089690043015 rxn_smarts="[C:1]([C@@:2]1([H:11])[O:3]/[C:4](=[N:5]\[H:12])[C@:6]1([N:7]([H:14])[H:15])[H:13])([H:8])([H:9])[H:10]>>[C:1](=[C:2]([O:3][C:4](=[N:5]\[H:12])/[C:6](=[N:7]\[H:15])[H:13])[H:11])([H:8])[H:10].[H:9][H:14]"
C        1.70832789       0.07984418       0.30667975
C        0.92274423      -0.68690979      -0.56310787
O       -0.00313776      -1.65141234      -0.10600508
C       -1.16354844      -0.94441158       0.00077627
N       -2.21721278      -1.27675009       0.58618620
C       -0.87105684       0.38373807      -0.63566915
N       -1.02563650       1.54082407       0.01264748
H        1.40539002       0.01154436       1.35099401
H        1.38489903       1.80595441       0.25863989
H        2.77763225      -0.06483473       0.19429892
H        1.32255743      -0.95897784      -1.53478419
H       -2.23650193      -2.27685593       0.77295515
H       -0.84610250       0.44860342      -1.72042138
H        0.28631306       2.20302662       0.15021762
H       -1.44466716       1.38661718       0.92659238
15
Frame=12 idx=006399 GeodesicLength=1.026027687342808 rxn_smarts="[C:1]([C@@:2]1([H:11])[O:3]/[C:4](=[N:5]\[H:12])[C@:6]1([N:7]([H:14])[H:15])[H:13])([H:8])([H:9])[H:10]>>[C:1](=[C:2]([O:3][C:4](=[N:5]\[H:12])/[C:6](=[N:7]\[H:15])[H:13])[H:11])([H:8])[H:10].[H:9][H:14]"
C        1.70558581       0.08140380       0.30008952
C        0.92304569      -0.68921466      -0.57508835
O       -0.00254608      -1.65803884      -0.12742767
C       -1.15901947      -0.94744596       0.00298333
N       -2.20380370      -1.27803706       0.60482083
C       -0.86753658       0.38430887      -0.62606428
N       -1.02786393       1.53970792       0.02874717
H        1.38011795       0.01980063       1.33866375
H        1.40992693       1.83040897       0.23871623
H        2.77138640      -0.10828116       0.22274456
H        1.33904256      -0.96911257      -1.53803175
H       -2.23303069      -2.28191101       0.76852088
H       -0.84273555       0.45714817      -1.71029389
H        0.27197368       2.23700387       0.13810195
H       -1.46454303       1.38225902       0.93351773
15
Frame=13 idx=006399 GeodesicLength=1.1118525419606697 rxn_smarts="[C:1]([C@@:2]1([H:11])[O:3]/[C:4](=[N:5]\[H:12])[C@:6]1([N:7]([H:14])[H:15])[H:13])([H:8])([H:9])[H:10]>>[C:1](=[C:2]([O:3][C:4](=[N:5]\[H:12])/[C:6](=[N:7]\[H:15])[H:13])[H:11])([H:8])[H:10].[H:9][H:14]"
C        1.70330350       0.08254171       0.29325662
C        0.92339544      -0.69165899      -0.58723346
O       -0.00216423      -1.66438168      -0.14882127
C       -1.15436499      -0.95043772       0.00506472
N       -2.19000915      -1.27957598       0.62304793
C       -0.86362616       0.38497587      -0.61626461
N       -1.02951740       1.53841547       0.04547392
H        1.35593636       0.02757134       1.32575395
H        1.43620964       1.85438399       0.21963581
H        2.76296255      -0.15097818       0.25100013
H        1.35569383      -0.97991826      -1.54082934
H       -2.22957736      -2.28644411       0.76453512
H       -0.83902223       0.46605248      -1.69989197
H        0.25600307       2.27174451       0.12540386
H       -1.48522286       1.37770956       0.93986858
15
Frame=14 idx=006399 GeodesicLength=1.1976369398133733 rxn_smarts="[C:1]([C@@:2]1([H:11])[O:3]/[C:4](=[N:5]\[H:12])[C@:6]1([N:7]([H:14])[H:15])[H:13])([H:8])([H:9])[H:10]>>[C:1](=[C:2]([O:3][C:4](=[N:5]\[H:12])/[C:6](=[N:7]\[H:15])[H:13])[H:11])([H:8])[H:10].[H:9][H:14]"
C        1.70149303       0.08319918       0.28623676
C        0.92378759      -0.69425783      -0.59952429
O       -0.00200986      -1.67046311      -0.17018433
C       -1.14958549      -0.95338413       0.00705712
N       -2.17582372      -1.28134360       0.64093513
C       -0.85930916       0.38572298      -0.60624733
N       -1.03052914       1.53693142       0.06286759
H        1.33285111       0.03482191       1.31234501
H        1.46394670       1.87782520       0.20135892
H        2.75233972      -0.19268344       0.27889984
H        1.37246384      -0.99141625      -1.54314459
H       -2.22618935      -2.29050072       0.76087094
H       -0.83494798       0.47530036      -1.68918582
H        0.23826649       2.30722608       0.11214913
H       -1.50675378       1.37302194       0.94556591
15
Frame=15 idx=006399 GeodesicLength=1.283310822840515 rxn_smarts="[C:1]([C@@:2]1([H:11])[O:3]/[C:4](=[N:5]\[H:12])[C@:6]1([N:7]([H:14])[H:15])[H:13])([H:8])([H:9])[H:10]>>[C:1](=[C:2]([O:3][C:4](=[N:5]\[H:12])/[C:6](=[N:7]\[H:15])[H:13])[H:11])([H:8])[H:10].[H:9][H:14]"
C        1.70013980       0.08333092       0.27909623
C        0.92421854      -0.69700999      -0.61194919
O       -0.00210112      -1.67629207      -0.19153743
C       -1.14468929      -0.95627997       0.00896983
N       -2.16124544      -1.28332449       0.65852311
C       -0.85457029       0.38655545      -0.59598453
N       -1.03087468       1.53523174       0.08099814
H        1.31085971       0.04150629       1.29854289
H        1.49334627       1.90071099       0.18388489
H        2.73969095      -0.23337488       0.30626407
H        1.38933085      -1.00359604      -1.54494403
H       -2.22288141      -2.29410220       0.75749563
H       -0.83050128       0.48491490      -1.67813951
H        0.21849907       2.34350193       0.09829991
H       -1.52922168       1.36822742       0.95047998
15
Frame=16 idx=006399 GeodesicLength=1.368813275469601 rxn_smarts="[C:1]([C@@:2]1([H:11])[O:3]/[C:4](=[N:5]\[H:12])[C@:6]1([N:7]([H:14])[H:15])[H:13])([H:8])([H:9])[H:10]>>[C:1](=[C:2]([O:3][C:4](=[N:5]\[H:12])/[C:6](=[N:7]\[H:15])[H:13])[H:11])([H:8])[H:10].[H:9][H:14]"
C        1.69923328       0.08289175       0.27189528
C        0.92468708      -0.69991368      -0.62449813
O       -0.00245324      -1.68187453      -0.21289865
C       -1.13968073      -0.95911924       0.01081949
N       -2.14625478      -1.28550268       0.67587431
C       -0.84939111       0.38747846      -0.58544132
N       -1.03052227       1.53328741       0.09995054
H        1.28996494       0.04757043       1.28445022
H        1.52463311       1.92301270       0.16722356
H        2.72520959      -0.27304371       0.33292531
H        1.40626328      -1.01644607      -1.54619782
H       -2.21968836      -2.29726563       0.75435109
H       -0.82567127       0.49492082      -1.66670911
H        0.19638175       2.38063259       0.08379343
H       -1.55271128       1.36337137       0.95446179
