13
Frame=0 idx=006168 GeodesicLength=0.0 rxn_smarts="[C:1]([C@@:2]1([H:10])[C:3]([H:11])([H:12])[C@:4]1([C:5]#[N:6])[H:13])([H:7])([H:8])[H:9]>>[C:1]([C@@:2]1([H:10])[C:3]([H:11])([H:12])[N:6]=[C:5]=[C:4]1[H:13])([H:7])([H:8])[H:9]"
C        1.55126050       0.49899382      -0.16519894
C        0.34727890      -0.42445222      -0.20520690
C       -0.59032291      -0.37049144       0.97869151
C       -0.78250680      -0.04727408      -1.13434564
C       -1.75485377       0.30775537      -0.22476253
N       -2.52170033       0.68752973       0.62018872
H        2.07717838       0.47038057      -1.12090620
H        2.25480059       0.20999711       0.62074522
H        1.23489022       1.52941769       0.00818676
H        0.66271205      -1.46652657      -0.32657381
H       -0.43401457       0.35433966       1.77019979
H       -1.05041158      -1.29797084       1.29149515
H       -0.99431069      -0.45169885      -2.11251310
13
Frame=1 idx=006168 GeodesicLength=0.06518388689038634 rxn_smarts="[C:1]([C@@:2]1([H:10])[C:3]([H:11])([H:12])[C@:4]1([C:5]#[N:6])[H:13])([H:7])([H:8])[H:9]>>[C:1]([C@@:2]1([H:10])[C:3]([H:11])([H:12])[N:6]=[C:5]=[C:4]1[H:13])([H:7])([H:8])[H:9]"
C        1.54290843       0.51054926      -0.16232902
C        0.35326022      -0.42990022      -0.20486501
C       -0.59802913      -0.38664470       0.96948282
C       -0.78672490      -0.07707451      -1.13063853
C       -1.74400764       0.35718274      -0.24220466
N       -2.48126414       0.74933571       0.62161273
H        2.06870085       0.49477056      -1.11844143
H        2.25060081       0.22703149       0.62186809
H        1.21291094       1.53529327       0.01888465
H        0.68266470      -1.46702093      -0.32905343
H       -0.42114468       0.30961169       1.78228965
H       -1.06870364      -1.31413475       1.26723536
H       -1.01117180      -0.50899960      -2.09384121
13
Frame=2 idx=006168 GeodesicLength=0.1306112928851471 rxn_smarts="[C:1]([C@@:2]1([H:10])[C:3]([H:11])([H:12])[C@:4]1([C:5]#[N:6])[H:13])([H:7])([H:8])[H:9]>>[C:1]([C@@:2]1([H:10])[C:3]([H:11])([H:12])[N:6]=[C:5]=[C:4]1[H:13])([H:7])([H:8])[H:9]"
C        1.53451788       0.52130369      -0.15941343
C        0.35877424      -0.43495333      -0.20446895
C       -0.60563020      -0.40142117       0.96046177
C       -0.79149290      -0.10451070      -1.12543233
C       -1.73227697       0.40307583      -0.26089223
N       -2.43957737       0.80640561       0.62107927
H        2.05951613       0.51819705      -1.11597932
H        2.24614176       0.24251682       0.62274450
H        1.19211613       1.54041736       0.02987890
H        0.70104020      -1.46716723      -0.33186133
H       -0.41033362       0.26744995       1.79196623
H       -1.08463910      -1.32909493       1.24518425
H       -1.02815618      -0.56221896      -2.07326732
13
Frame=3 idx=006168 GeodesicLength=0.19609994592426455 rxn_smarts="[C:1]([C@@:2]1([H:10])[C:3]([H:11])([H:12])[C@:4]1([C:5]#[N:6])[H:13])([H:7])([H:8])[H:9]>>[C:1]([C@@:2]1([H:10])[C:3]([H:11])([H:12])[N:6]=[C:5]=[C:4]1[H:13])([H:7])([H:8])[H:9]"
C        1.52644243       0.53122928      -0.15648065
C        0.36388104      -0.43962145      -0.20404607
C       -0.61309891      -0.41482814       0.95191006
C       -0.79686057      -0.12971784      -1.11907803
C       -1.72012661       0.44604402      -0.28059783
N       -2.39812609       0.85815245       0.61883630
H        2.05021038       0.54037762      -1.11363224
H        2.24185470       0.25652345       0.62354535
H        1.17274570       1.54484093       0.04104830
H        0.71793573      -1.46703557      -0.33516438
H       -0.40136381       0.22828202       1.79975333
H       -1.09820723      -1.34304814       1.22556125
H       -1.04528675      -0.61119863      -2.05165540
13
Frame=4 idx=006168 GeodesicLength=0.26180624253325113 rxn_smarts="[C:1]([C@@:2]1([H:10])[C:3]([H:11])([H:12])[C@:4]1([C:5]#[N:6])[H:13])([H:7])([H:8])[H:9]>>[C:1]([C@@:2]1([H:10])[C:3]([H:11])([H:12])[N:6]=[C:5]=[C:4]1[H:13])([H:7])([H:8])[H:9]"
C        1.51853335       0.54047382      -0.15348953
C        0.36858143      -0.44393400      -0.20359971
C       -0.62042857      -0.42716013       0.94377938
C       -0.80271067      -0.15291679      -1.11176816
C       -1.70769863       0.48634804      -0.30130112
N       -2.35657971       0.90569706       0.61494151
H        2.04066347       0.56163266      -1.11130879
H        2.23762829       0.26924234       0.62426243
H        1.15449986       1.54867548       0.05245951
H        0.73351507      -1.46661938      -0.33899443
H       -0.39387204       0.19160014       1.80599837
H       -1.10962440      -1.35635269       1.20804094
H       -1.06250743      -0.65668653      -2.02902039
13
Frame=5 idx=006168 GeodesicLength=0.3277527361625362 rxn_smarts="[C:1]([C@@:2]1([H:10])[C:3]([H:11])([H:12])[C@:4]1([C:5]#[N:6])[H:13])([H:7])([H:8])[H:9]>>[C:1]([C@@:2]1([H:10])[C:3]([H:11])([H:12])[N:6]=[C:5]=[C:4]1[H:13])([H:7])([H:8])[H:9]"
C        1.51073292       0.54915045      -0.15041374
C        0.37287301      -0.44792143      -0.20313091
C       -0.62763305      -0.43861913       0.93605116
C       -0.80897936      -0.17431702      -1.10364232
C       -1.69513996       0.52417488      -0.32295549
N       -2.31478550       0.94976830       0.60948804
H        2.03086013       0.58215082      -1.10893781
H        2.23343349       0.28086122       0.62489414
H        1.13722703       1.55200873       0.06413575
H        0.74787450      -1.46592026      -0.34339315
H       -0.38759625       0.15708455       1.81098410
H       -1.11909570      -1.36925654       1.19236156
H       -1.07977125      -0.69916458      -2.00544133
13
Frame=6 idx=006168 GeodesicLength=0.39398463593069694 rxn_smarts="[C:1]([C@@:2]1([H:10])[C:3]([H:11])([H:12])[C@:4]1([C:5]#[N:6])[H:13])([H:7])([H:8])[H:9]>>[C:1]([C@@:2]1([H:10])[C:3]([H:11])([H:12])[N:6]=[C:5]=[C:4]1[H:13])([H:7])([H:8])[H:9]"
C        1.50304631       0.55730988      -0.14724133
C        0.37679186      -0.45160899      -0.20264438
C       -0.63470094      -0.44933150       0.92874824
C       -0.81562120      -0.19405009      -1.09482981
C       -1.68242211       0.55996887      -0.34551606
N       -2.27295808       0.99059188       0.60251006
H        2.02084028       0.60202781      -1.10651487
H        2.22930172       0.29145302       0.62547030
H        1.12084188       1.55489706       0.07609603
H        0.76113925      -1.46495956      -0.34838765
H       -0.38236878       0.12458793       1.81493687
H       -1.12672700      -1.38192375       1.17836880
H       -1.09716318      -0.73896257      -1.98099621
13
Frame=7 idx=006168 GeodesicLength=0.4605451567658815 rxn_smarts="[C:1]([C@@:2]1([H:10])[C:3]([H:11])([H:12])[C@:4]1([C:5]#[N:6])[H:13])([H:7])([H:8])[H:9]>>[C:1]([C@@:2]1([H:10])[C:3]([H:11])([H:12])[N:6]=[C:5]=[C:4]1[H:13])([H:7])([H:8])[H:9]"
C        1.49544104       0.56501916      -0.14395422
C        0.38034937      -0.45502256      -0.20214285
C       -0.64164149      -0.45943001       0.92185955
C       -0.82259821      -0.21225091      -1.08542163
C       -1.66957736       0.59392686      -0.36895386
N       -2.23103159       1.02857752       0.59403987
H        2.01060012       0.62138636      -1.10399571
H        2.22521532       0.30113718       0.62600686
H        1.10524106       1.55738978       0.08835208
H        0.77339409      -1.46373738      -0.35400320
H       -0.37802497       0.09389073       1.81804198
H       -1.13265287      -1.39449441       1.16587242
H       -1.11471451      -0.77639231      -1.95570128
13
Frame=8 idx=006168 GeodesicLength=0.5274636976497378 rxn_smarts="[C:1]([C@@:2]1([H:10])[C:3]([H:11])([H:12])[C@:4]1([C:5]#[N:6])[H:13])([H:7])([H:8])[H:9]>>[C:1]([C@@:2]1([H:10])[C:3]([H:11])([H:12])[N:6]=[C:5]=[C:4]1[H:13])([H:7])([H:8])[H:9]"
C        1.48789176       0.57232648      -0.14054094
C        0.38355733      -0.45818554      -0.20162415
C       -0.64846109      -0.46901874       0.91538038
C       -0.82987537      -0.22902403      -1.07548534
C       -1.65659379       0.62622514      -0.39324794
N       -2.18899590       1.06400837       0.58410428
H        2.00013538       0.64031735      -1.10134747
H        2.22115736       0.31000193       0.62651140
H        1.09034577       1.55952296       0.10090310
H        0.78470663      -1.46225525      -0.36025544
H       -0.37444117       0.06482546       1.82044408
H       -1.13697692      -1.40707180       1.15472190
H       -1.13244999      -0.81167234      -1.92956387
13
Frame=9 idx=006168 GeodesicLength=0.5947664702076731 rxn_smarts="[C:1]([C@@:2]1([H:10])[C:3]([H:11])([H:12])[C@:4]1([C:5]#[N:6])[H:13])([H:7])([H:8])[H:9]>>[C:1]([C@@:2]1([H:10])[C:3]([H:11])([H:12])[N:6]=[C:5]=[C:4]1[H:13])([H:7])([H:8])[H:9]"
C        1.48040862       0.57926867      -0.13698595
C        0.38643967      -0.46112337      -0.20108996
C       -0.65516006      -0.47817943       0.90931590
C       -0.83744132      -0.24445638      -1.06509438
C       -1.64343298       0.65706275      -0.41837620
N       -2.14695629       1.09705806       0.57270123
H        1.98946646       0.65889981      -1.09855636
H        2.21716175       0.31810836       0.62701041
H        1.07611129       1.56133191       0.11376517
H        0.79514628      -1.46052620      -0.36716336
H       -0.37150600       0.03727753       1.82227955
H       -1.13978204      -1.41973605       1.14480073
H       -1.15045540      -0.84498566      -1.90260677
13
Frame=10 idx=006168 GeodesicLength=0.6624526134030434 rxn_smarts="[C:1]([C@@:2]1([H:10])[C:3]([H:11])([H:12])[C@:4]1([C:5]#[N:6])[H:13])([H:7])([H:8])[H:9]>>[C:1]([C@@:2]1([H:10])[C:3]([H:11])([H:12])[N:6]=[C:5]=[C:4]1[H:13])([H:7])([H:8])[H:9]"
C        1.47298754       0.58582970      -0.13331020
C        0.38900211      -0.46385925      -0.20052328
C       -0.66173345      -0.48693373       0.90369534
C       -0.84525817      -0.25860712      -1.05423046
C       -1.63011639       0.68656988      -0.44429675
N       -2.10512094       1.12765093       0.55993355
H        1.97863516       0.67704043      -1.09561165
H        2.21320416       0.32548923       0.62748989
H        1.06249279       1.56280532       0.12684459
H        0.80473060      -1.45855626      -0.37472791
H       -0.36917071       0.01126564       1.82363017
H       -1.14106117      -1.43247934       1.13607105
H       -1.16859154      -0.87621543      -1.87496434
13
Frame=11 idx=006168 GeodesicLength=0.7304676259244692 rxn_smarts="[C:1]([C@@:2]1([H:10])[C:3]([H:11])([H:12])[C@:4]1([C:5]#[N:6])[H:13])([H:7])([H:8])[H:9]>>[C:1]([C@@:2]1([H:10])[C:3]([H:11])([H:12])[N:6]=[C:5]=[C:4]1[H:13])([H:7])([H:8])[H:9]"
C        1.46562632       0.59204806      -0.12949139
C        0.39125874      -0.46641397      -0.19992702
C       -0.66816715      -0.49535953       0.89851789
C       -0.85332703      -0.27153673      -1.04295947
C       -1.61656475       0.71481224      -0.47094074
N       -2.06355173       1.15601846       0.54575179
H        1.96765413       0.69481499      -1.09248433
H        2.20928435       0.33221344       0.62798979
H        1.04944522       1.56397409       0.14015153
H        0.81348850      -1.45634968      -0.38297399
H       -0.36730844      -0.01332677       1.82460752
H       -1.14088462      -1.44537310       1.12842462
H       -1.18695354      -0.90552149      -1.84666621
13
Frame=12 idx=006168 GeodesicLength=0.798804193525179 rxn_smarts="[C:1]([C@@:2]1([H:10])[C:3]([H:11])([H:12])[C@:4]1([C:5]#[N:6])[H:13])([H:7])([H:8])[H:9]>>[C:1]([C@@:2]1([H:10])[C:3]([H:11])([H:12])[N:6]=[C:5]=[C:4]1[H:13])([H:7])([H:8])[H:9]"
C        1.45833237       0.59791986      -0.12554799
C        0.39322078      -0.46881436      -0.19928004
C       -0.67445791      -0.50349323       0.89382010
C       -0.86164265      -0.28328747      -1.03128122
C       -1.60281591       0.74184829      -0.49828884
N       -2.02243567       1.18219075       0.53026444
H        1.95657657       0.71215902      -1.08917619
H        2.20540579       0.33831846       0.62852562
H        1.03692441       1.56484755       0.15357717
H        0.82144786      -1.45392209      -0.39188110
H       -0.36585040      -0.03653331       1.82531088
H       -1.13927376      -1.45842036       1.12183402
H       -1.20543148      -0.93281313      -1.81787686
13
Frame=13 idx=006168 GeodesicLength=0.8674347342076508 rxn_smarts="[C:1]([C@@:2]1([H:10])[C:3]([H:11])([H:12])[C@:4]1([C:5]#[N:6])[H:13])([H:7])([H:8])[H:9]>>[C:1]([C@@:2]1([H:10])[C:3]([H:11])([H:12])[N:6]=[C:5]=[C:4]1[H:13])([H:7])([H:8])[H:9]"
C        1.45113225       0.60345430      -0.12149141
C        0.39489902      -0.47108252      -0.19857450
C       -0.68060689      -0.51136816       0.88961582
C       -0.87019548      -0.29390001      -1.01918086
C       -1.58882831       0.76777263      -0.52624132
N       -1.98196820       1.20611727       0.51352658
H        1.94548481       0.72901981      -1.08567758
H        2.20157323       0.34386127       0.62910857
H        1.02491534       1.56545008       0.16703911
H        0.82860687      -1.45128620      -0.40145616
H       -0.36474876      -0.05836746       1.82578920
H       -1.13627782      -1.47161236       1.11625246
H       -1.22398605      -0.95805864      -1.78870989
13
Frame=14 idx=006168 GeodesicLength=0.9362794036849577 rxn_smarts="[C:1]([C@@:2]1([H:10])[C:3]([H:11])([H:12])[C@:4]1([C:5]#[N:6])[H:13])([H:7])([H:8])[H:9]>>[C:1]([C@@:2]1([H:10])[C:3]([H:11])([H:12])[N:6]=[C:5]=[C:4]1[H:13])([H:7])([H:8])[H:9]"
C        1.44399926       0.60864813      -0.11733601
C        0.39630039      -0.47323962      -0.19779304
C       -0.68659299      -0.51902531       0.88593677
C       -0.87897057      -0.30340460      -1.00666947
C       -1.57461944       0.79254985      -0.55473615
N       -1.94225355       1.22796775       0.49564185
H        1.93440004       0.74533479      -1.08199243
H        2.19773645       0.34888604       0.62976675
H        1.01333679       1.56578387       0.18043031
H        0.83497925      -1.44844075      -0.41168169
H       -0.36390894      -0.07890317       1.82615210
H       -1.13192451      -1.48494256       1.11163372
H       -1.24248218      -0.98121442      -1.75935272
13
Frame=15 idx=006168 GeodesicLength=1.0053132930350905 rxn_smarts="[C:1]([C@@:2]1([H:10])[C:3]([H:11])([H:12])[C@:4]1([C:5]#[N:6])[H:13])([H:7])([H:8])[H:9]>>[C:1]([C@@:2]1([H:10])[C:3]([H:11])([H:12])[N:6]=[C:5]=[C:4]1[H:13])([H:7])([H:8])[H:9]"
C        1.43694275       0.61351496      -0.11309286
C        0.39743663      -0.47530308      -0.19692811
C       -0.69241818      -0.52649962       0.88278813
C       -0.88795419      -0.31183116      -0.99374467
C       -1.56018259       0.81620492      -0.58368994
N       -1.90339211       1.24780342       0.47669609
H        1.92338465       0.76107003      -1.07811771
H        2.19388625       0.35344676       0.63051625
H        1.00215207       1.56587322       0.19367292
H        0.84057284      -1.44538481      -0.42255106
H       -0.36327949      -0.09820443       1.82645053
H       -1.12628498      -1.49838876       1.10791158
H       -1.26086366      -1.00230145      -1.72991114
13
Frame=16 idx=006168 GeodesicLength=1.0745054125810387 rxn_smarts="[C:1]([C@@:2]1([H:10])[C:3]([H:11])([H:12])[C@:4]1([C:5]#[N:6])[H:13])([H:7])([H:8])[H:9]>>[C:1]([C@@:2]1([H:10])[C:3]([H:11])([H:12])[N:6]=[C:5]=[C:4]1[H:13])([H:7])([H:8])[H:9]"
C        1.42995961       0.61806918      -0.10877391
C        0.39831983      -0.47729005      -0.19597199
C       -0.69808255      -0.53382616       0.88017357
C       -0.89713118      -0.31920985      -0.98041255
C       -1.54553522       0.83872684      -0.61301783
N       -1.86542877       1.26574619       0.45679166
H        1.91248754       0.77619231      -1.07405586
H        2.19000171       0.35760297       0.63137905
H        0.99130950       1.56574462       0.20668496
H        0.84540210      -1.44211487      -0.43404805
H       -0.36280172      -0.11636058       1.82674274
H       -1.11944490      -1.51192183       1.10500942
H       -1.27905597      -1.02135876      -1.70050121
