15
Frame=0 idx=008200 GeodesicLength=0.0 rxn_smarts="[O:1]([C:2]([C:3]([C@@:4]([O:5][H:14])([C:6]#[C:7][H:15])[H:13])([H:11])[H:12])([H:9])[H:10])[H:8]>>[O:1]([C:2]([C:3]([C:4](=[C:6]=[C:7]([O:5][H:14])[H:15])[H:13])([H:11])[H:12])([H:9])[H:10])[H:8]"
O        1.38017901       0.98236122       1.27202886
C        1.02412869       1.27897453      -0.06052784
C        0.84259611       0.03086868      -0.91595332
C       -0.45625950      -0.69806496      -0.72193066
O       -0.54914426      -1.12338400       0.94305001
C       -1.72901637       0.00028136      -0.68019092
C       -1.97554155      -0.28940240       0.55268946
H        0.73572434       0.36051355       1.62104291
H        1.84439888       1.87225330      -0.46675423
H        0.11432665       1.88971511      -0.10500117
H        1.68055365      -0.65154327      -0.75372980
H        0.84840933       0.31226917      -1.97472166
H       -0.47405100      -1.67267252      -1.21159457
H       -0.69150869      -2.07016888       1.07189776
H       -2.59479528      -0.22200090       1.42969516
15
Frame=1 idx=008200 GeodesicLength=0.07991197236118397 rxn_smarts="[O:1]([C:2]([C:3]([C@@:4]([O:5][H:14])([C:6]#[C:7][H:15])[H:13])([H:11])[H:12])([H:9])[H:10])[H:8]>>[O:1]([C:2]([C:3]([C:4](=[C:6]=[C:7]([O:5][H:14])[H:15])[H:13])([H:11])[H:12])([H:9])[H:10])[H:8]"
O        1.38675166       0.98220276       1.26771522
C        1.02644919       1.28163004      -0.06303966
C        0.84721631       0.03596068      -0.92210620
C       -0.44572097      -0.70322617      -0.72235804
O       -0.55214922      -1.14249173       0.95640810
C       -1.71643771      -0.01039067      -0.66694963
C       -1.98797694      -0.29451610       0.55950895
H        0.74262890       0.36000949       1.61678957
H        1.84358922       1.87941391      -0.46913983
H        0.11549263       1.89109964      -0.10305565
H        1.68962937      -0.64252573      -0.76622471
H        0.84869329       0.32160670      -1.97974286
H       -0.46445011      -1.67052024      -1.22646234
H       -0.71598397      -2.08426996       1.09213516
H       -2.61773163      -0.20398263       1.42652192
15
Frame=2 idx=008200 GeodesicLength=0.15977009065098202 rxn_smarts="[O:1]([C:2]([C:3]([C@@:4]([O:5][H:14])([C:6]#[C:7][H:15])[H:13])([H:11])[H:12])([H:9])[H:10])[H:8]>>[O:1]([C:2]([C:3]([C:4](=[C:6]=[C:7]([O:5][H:14])[H:15])[H:13])([H:11])[H:12])([H:9])[H:10])[H:8]"
O        1.39356084       0.98179655       1.26330053
C        1.02879100       1.28426142      -0.06552584
C        0.85184278       0.04119995      -0.92846073
C       -0.43481157      -0.70860919      -0.72269457
O       -0.55517158      -1.16195809       0.97007039
C       -1.70352013      -0.02157313      -0.65320497
C       -2.00040657      -0.29936459       0.56640050
H        0.74990551       0.35909760       1.61240275
H        1.84265128       1.88671342      -0.47148026
H        0.11658740       1.89230624      -0.10081571
H        1.69884122      -0.63316594      -0.77926425
H        0.84852734       0.33128299      -1.98487509
H       -0.45469197      -1.66823634      -1.24138780
H       -0.74092831      -2.09797713       1.11331466
H       -2.64117722      -0.18577376       1.42222037
15
Frame=3 idx=008200 GeodesicLength=0.2395782000778212 rxn_smarts="[O:1]([C:2]([C:3]([C@@:4]([O:5][H:14])([C:6]#[C:7][H:15])[H:13])([H:11])[H:12])([H:9])[H:10])[H:8]>>[O:1]([C:2]([C:3]([C:4](=[C:6]=[C:7]([O:5][H:14])[H:15])[H:13])([H:11])[H:12])([H:9])[H:10])[H:8]"
O        1.40064299       0.98112778       1.25877276
C        1.03116860       1.28686308      -0.06798506
C        0.85646478       0.04659212      -0.93502255
C       -0.42352275      -0.71420966      -0.72293531
O       -0.55820633      -1.18178537       0.98406076
C       -1.69023847      -0.03326509      -0.63891414
C       -2.01281166      -0.30391121       0.57337275
H        0.75759137       0.35776704       1.60787803
H        1.84159364       1.89414429      -0.47377983
H        0.11763120       1.89332959      -0.09826032
H        1.70817520      -0.62345069      -0.79288229
H        0.84787483       0.34130826      -1.99011342
H       -0.44480208      -1.66579587      -1.25637490
H       -0.76633414      -2.11122357       1.13551711
H       -2.66522716      -0.16749070       1.41666640
15
Frame=4 idx=008200 GeodesicLength=0.3193378452077676 rxn_smarts="[O:1]([C:2]([C:3]([C@@:4]([O:5][H:14])([C:6]#[C:7][H:15])[H:13])([H:11])[H:12])([H:9])[H:10])[H:8]>>[O:1]([C:2]([C:3]([C:4](=[C:6]=[C:7]([O:5][H:14])[H:15])[H:13])([H:11])[H:12])([H:9])[H:10])[H:8]"
O        1.40801811       0.98017673       1.25412588
C        1.03358360       1.28942739      -0.07040994
C        0.86106913       0.05214369      -0.94179690
C       -0.41184247      -0.72003218      -0.72308392
O       -0.56124915      -1.20199238       0.99839483
C       -1.67656734      -0.04548339      -0.62404214
C       -2.02517795      -0.30814503       0.58041916
H        0.76570933       0.35599748       1.60321163
H        1.84040992       1.90170314      -0.47603012
H        0.11862797       1.89415630      -0.09536400
H        1.71761821      -0.61336067      -0.80711150
H        0.84669746       0.35169717      -1.99544891
H       -0.43479696      -1.66317924      -1.27143941
H       -0.79219161      -2.12395202       1.15882067
H       -2.68990826      -0.14915698       1.40975468
15
Frame=5 idx=008200 GeodesicLength=0.3990474968403119 rxn_smarts="[O:1]([C:2]([C:3]([C@@:4]([O:5][H:14])([C:6]#[C:7][H:15])[H:13])([H:11])[H:12])([H:9])[H:10])[H:8]>>[O:1]([C:2]([C:3]([C:4](=[C:6]=[C:7]([O:5][H:14])[H:15])[H:13])([H:11])[H:12])([H:9])[H:10])[H:8]"
O        1.41566130       0.97891689       1.24937078
C        1.03600203       1.29194327      -0.07277906
C        0.86563887       0.05786081      -0.94878504
C       -0.39975016      -0.72610629      -0.72316405
O       -0.56429441      -1.22264277       1.01306308
C       -1.66248310      -0.05829626      -0.60858039
C       -2.03750236      -0.31211987       0.58749249
H        0.77424344       0.35374868       1.59840477
H        1.83905192       1.90940076      -0.47819559
H        0.11953400       1.89475413      -0.09209202
H        1.72716395      -0.60286394      -0.82197495
H        0.84496084       0.36247225      -2.00086778
H       -0.42466397      -1.66038607      -1.28662275
H       -0.81847874      -2.13614422       1.18327605
H       -2.71508359      -0.13053735       1.40145448
15
Frame=6 idx=008200 GeodesicLength=0.4787075106960357 rxn_smarts="[O:1]([C:2]([C:3]([C@@:4]([O:5][H:14])([C:6]#[C:7][H:15])[H:13])([H:11])[H:12])([H:9])[H:10])[H:8]>>[O:1]([C:2]([C:3]([C:4](=[C:6]=[C:7]([O:5][H:14])[H:15])[H:13])([H:11])[H:12])([H:9])[H:10])[H:8]"
O        1.42361687       0.97732669       1.24449168
C        1.03844131       1.29440249      -0.07508777
C        0.87015590       0.06375081      -0.95599204
C       -0.38724072      -0.73242339      -0.72317226
O       -0.56733278      -1.24374310       1.02809297
C       -1.64795556      -0.07169856      -0.59247113
C       -2.04976030      -0.31579866       0.59460281
H        0.78323866       0.35100451       1.59345117
H        1.83753028       1.91722503      -0.48027568
H        0.12037746       1.89511511      -0.08841412
H        1.73678505      -0.59194376      -0.83751375
H        0.84261450       0.37364573      -2.00635716
H       -0.41444705      -1.65737933      -1.30192859
H       -0.84518211      -2.14770052       1.20899574
H       -2.74084150      -0.11178307       1.39157812
15
Frame=7 idx=008200 GeodesicLength=0.5583171350766619 rxn_smarts="[O:1]([C:2]([C:3]([C@@:4]([O:5][H:14])([C:6]#[C:7][H:15])[H:13])([H:11])[H:12])([H:9])[H:10])[H:8]>>[O:1]([C:2]([C:3]([C:4](=[C:6]=[C:7]([O:5][H:14])[H:15])[H:13])([H:11])[H:12])([H:9])[H:10])[H:8]"
O        1.43189571       0.97537956       1.23948836
C        1.04089279       1.29679461      -0.07732247
C        0.87459778       0.06982121      -0.96341834
C       -0.37430405      -0.73899247      -0.72312003
O       -0.57035755      -1.26533176       1.04349581
C       -1.63295634      -0.08572200      -0.57567437
C       -2.06193568      -0.31918520       0.60172638
H        0.79270919       0.34773624       1.58834774
H        1.83582623       1.92517321      -0.48225182
H        0.12115023       1.89521891      -0.08429506
H        1.74645936      -0.58057641      -0.85375951
H        0.83961118       0.38523603      -2.01190021
H       -0.40417133      -1.65413569      -1.31737760
H       -0.87227553      -2.15855371       1.23606935
H       -2.76714197      -0.09286252       1.37999177
15
Frame=8 idx=008200 GeodesicLength=0.6378697164948114 rxn_smarts="[O:1]([C:2]([C:3]([C@@:4]([O:5][H:14])([C:6]#[C:7][H:15])[H:13])([H:11])[H:12])([H:9])[H:10])[H:8]>>[O:1]([C:2]([C:3]([C:4](=[C:6]=[C:7]([O:5][H:14])[H:15])[H:13])([H:11])[H:12])([H:9])[H:10])[H:8]"
O        1.44047680       0.97304238       1.23436151
C        1.04332138       1.29910427      -0.07945719
C        0.87893777       0.07608148      -0.97106167
C       -0.36092420      -0.74583982      -0.72303331
O       -0.57336100      -1.28748169       1.05926615
C       -1.61745953      -0.10043862      -0.55817048
C       -2.07401789      -0.32233337       0.60881986
H        0.80264567       0.34389504       1.58308812
H        1.83388899       1.93325204      -0.48408026
H        0.12181380       1.89502242      -0.07969163
H        1.75615956      -0.56871382      -0.87073874
H        0.83589736       0.39726995      -2.01746468
H       -0.39384316      -1.65064257      -1.33300501
H       -0.89972762      -2.16865344       1.26459027
H       -2.79380790      -0.07356426       1.36657706
15
Frame=9 idx=008200 GeodesicLength=0.7173929248971009 rxn_smarts="[O:1]([C:2]([C:3]([C@@:4]([O:5][H:14])([C:6]#[C:7][H:15])[H:13])([H:11])[H:12])([H:9])[H:10])[H:8]>>[O:1]([C:2]([C:3]([C:4](=[C:6]=[C:7]([O:5][H:14])[H:15])[H:13])([H:11])[H:12])([H:9])[H:10])[H:8]"
O        1.44986035       0.97028500       1.22895638
C        1.04609219       1.30133903      -0.08158950
C        0.88315578       0.08254716      -0.97895729
C       -0.34720057      -0.75271052      -0.72277160
O       -0.57633048      -1.30981075       1.07566098
C       -1.60136513      -0.11537067      -0.53963636
C       -2.08584994      -0.32460656       0.61619660
H        0.81347024       0.33959822       1.57762709
H        1.83214254       1.94129980      -0.48599000
H        0.12286038       1.89470963      -0.07457739
H        1.76573988      -0.55648679      -0.88860961
H        0.83134817       0.40972125      -2.02306249
H       -0.38385031      -1.64664529      -1.34860193
H       -0.92762350      -2.17732667       1.29497487
H       -2.82244960      -0.05654282       1.35038024
15
Frame=10 idx=008200 GeodesicLength=0.7968684459451586 rxn_smarts="[O:1]([C:2]([C:3]([C@@:4]([O:5][H:14])([C:6]#[C:7][H:15])[H:13])([H:11])[H:12])([H:9])[H:10])[H:8]>>[O:1]([C:2]([C:3]([C:4](=[C:6]=[C:7]([O:5][H:14])[H:15])[H:13])([H:11])[H:12])([H:9])[H:10])[H:8]"
O        1.45970665       0.96704883       1.22338178
C        1.04891288       1.30346271      -0.08360369
C        0.88720749       0.08922582      -0.98708151
C       -0.33305121      -0.75981388      -0.72247315
O       -0.57925062      -1.33270386       1.09250279
C       -1.58469163      -0.13094892      -0.52022841
C       -2.09750574      -0.32650338       0.62356750
H        0.82491398       0.33466598       1.57199011
H        1.83022409       1.94943344      -0.48775600
H        0.12390749       1.89409030      -0.06886475
H        1.77523886      -0.54374590      -0.90733496
H        0.82593842       0.42266529      -2.02863548
H       -0.37397909      -1.64228206      -1.36436633
H       -0.95578000      -2.18485361       1.32716777
H       -2.85179158      -0.03974075       1.33173432
15
Frame=11 idx=008200 GeodesicLength=0.8762904552293853 rxn_smarts="[O:1]([C:2]([C:3]([C@@:4]([O:5][H:14])([C:6]#[C:7][H:15])[H:13])([H:11])[H:12])([H:9])[H:10])[H:8]>>[O:1]([C:2]([C:3]([C:4](=[C:6]=[C:7]([O:5][H:14])[H:15])[H:13])([H:11])[H:12])([H:9])[H:10])[H:8]"
O        1.47003109       0.96328611       1.21763613
C        1.05176824       1.30545773      -0.08547223
C        0.89105399       0.09612795      -0.99543251
C       -0.31847357      -0.76715778      -0.72216306
O       -0.58211498      -1.35621475       1.10980365
C       -1.56739687      -0.14721576      -0.49990779
C       -2.10897366      -0.32805488       0.63087176
H        0.83699501       0.32904882       1.56617274
H        1.82810416       1.95764654      -0.48933902
H        0.12494635       1.89313323      -0.06248943
H        1.78460537      -0.53045770      -0.92695850
H        0.81959400       0.43613153      -2.03414843
H       -0.36427821      -1.63751995      -1.38032239
H       -0.98414345      -2.19108728       1.36131759
H       -2.88171746      -0.02312382       1.31043147
15
Frame=12 idx=008200 GeodesicLength=0.9556554412852175 rxn_smarts="[O:1]([C:2]([C:3]([C@@:4]([O:5][H:14])([C:6]#[C:7][H:15])[H:13])([H:11])[H:12])([H:9])[H:10])[H:8]>>[O:1]([C:2]([C:3]([C:4](=[C:6]=[C:7]([O:5][H:14])[H:15])[H:13])([H:11])[H:12])([H:9])[H:10])[H:8]"
O        1.48092483       0.95894843       1.21169519
C        1.05470806       1.30730717      -0.08718316
C        0.89465383       0.10326644      -1.00400966
C       -0.30349549      -0.77469907      -0.72184164
O       -0.58491933      -1.38033841       1.12761062
C       -1.54943265      -0.16412136      -0.47857952
C       -2.12022437      -0.32919343       0.63809527
H        0.84978860       0.32272551       1.56016423
H        1.82583835       1.96589919      -0.49074000
H        0.12605709       1.89184153      -0.05539262
H        1.79376450      -0.51661986      -0.94753230
H        0.81223438       0.45014182      -2.03956716
H       -0.35487963      -1.63227282      -1.39645778
H       -1.01264026      -2.19579381       1.39761438
H       -2.91237791      -0.00709133       1.28612415
15
Frame=13 idx=008200 GeodesicLength=1.034948739330495 rxn_smarts="[O:1]([C:2]([C:3]([C@@:4]([O:5][H:14])([C:6]#[C:7][H:15])[H:13])([H:11])[H:12])([H:9])[H:10])[H:8]>>[O:1]([C:2]([C:3]([C:4](=[C:6]=[C:7]([O:5][H:14])[H:15])[H:13])([H:11])[H:12])([H:9])[H:10])[H:8]"
O        1.49239155       0.95396993       1.20555409
C        1.05769619       1.30898600      -0.08869485
C        0.89794906       0.11065805      -1.01280304
C       -0.28811887      -0.78245692      -0.72154199
O       -0.58766259      -1.40515885       1.14593306
C       -1.53076020      -0.18174351      -0.45620496
C       -2.13123499      -0.32995781       0.64515229
H        0.86331228       0.31561461       1.55395634
H        1.82336785       1.97419243      -0.49190153
H        0.12720526       1.89016199      -0.04748353
H        1.80264732      -0.50218168      -0.96910263
H        0.80376037       0.46474048      -2.04483350
H       -0.34583468      -1.62651375      -1.41278767
H       -1.04120623      -2.19876904       1.43622371
H       -2.94351232       0.00845808       1.25853419
15
Frame=14 idx=008200 GeodesicLength=1.1141735729081932 rxn_smarts="[O:1]([C:2]([C:3]([C@@:4]([O:5][H:14])([C:6]#[C:7][H:15])[H:13])([H:11])[H:12])([H:9])[H:10])[H:8]>>[O:1]([C:2]([C:3]([C:4](=[C:6]=[C:7]([O:5][H:14])[H:15])[H:13])([H:11])[H:12])([H:9])[H:10])[H:8]"
O        1.50457718       0.94826274       1.19917423
C        1.06082180       1.31046572      -0.08998755
C        0.90087968       0.11832123      -1.02181328
C       -0.27240043      -0.79035883      -0.72126770
O       -0.59035237      -1.43064856       1.16483375
C       -1.51132401      -0.19998444      -0.43265454
C       -2.14196359      -0.33022888       0.65203381
H        0.87768401       0.30767027       1.54752811
H        1.82079351       1.98246017      -0.49281328
H        0.12853450       1.88810673      -0.03866499
H        1.81113253      -0.48715345      -0.99175272
H        0.79405364       0.47997111      -2.04989536
H       -0.33734785      -1.62011888      -1.42929156
H       -1.06970105      -2.19960267       1.47744301
H       -2.97538757       0.02283774       1.22712806
15
Frame=15 idx=008200 GeodesicLength=1.1932992831419325 rxn_smarts="[O:1]([C:2]([C:3]([C@@:4]([O:5][H:14])([C:6]#[C:7][H:15])[H:13])([H:11])[H:12])([H:9])[H:10])[H:8]>>[O:1]([C:2]([C:3]([C:4](=[C:6]=[C:7]([O:5][H:14])[H:15])[H:13])([H:11])[H:12])([H:9])[H:10])[H:8]"
O        1.51741703       0.94175220       1.19257190
C        1.06401114       1.31170829      -0.09100287
C        0.90337422       0.12626936      -1.03101800
C       -0.25636184      -0.79843061      -0.72108107
O       -0.59302960      -1.45692800       1.18429574
C       -1.49108975      -0.21895601      -0.40793138
C       -2.15243798      -0.33012403       0.65854739
H        0.89284430       0.29880333       1.54087171
H        1.81802896       1.99069059      -0.49337628
H        0.12997079       1.88560136      -0.02885602
H        1.81913565      -0.47147482      -1.01549017
H        0.78302683       0.49587155      -2.05467571
H       -0.32947916      -1.61306119      -1.44599847
H       -1.09797792      -2.19801194       1.52141715
H       -3.00743268       0.03628993       1.19172609
15
Frame=16 idx=008200 GeodesicLength=1.2723458463350377 rxn_smarts="[O:1]([C:2]([C:3]([C@@:4]([O:5][H:14])([C:6]#[C:7][H:15])[H:13])([H:11])[H:12])([H:9])[H:10])[H:8]>>[O:1]([C:2]([C:3]([C:4](=[C:6]=[C:7]([O:5][H:14])[H:15])[H:13])([H:11])[H:12])([H:9])[H:10])[H:8]"
O        1.53111904       0.93427813       1.18570163
C        1.06737578       1.31266897      -0.09170039
C        0.90534908       0.13453666      -1.04042590
C       -0.24009245      -0.80657462      -0.72099449
O       -0.59572475      -1.48397220       1.20438918
C       -1.47000675      -0.23853526      -0.38188681
C       -2.16258232      -0.32943451       0.66468917
H        0.90898115       0.28888688       1.53396281
H        1.81519579       1.99880795      -0.49357025
H        0.13168722       1.88265516      -0.01788321
H        1.82649930      -0.45516374      -1.04044749
H        0.77052217       0.51253641      -2.05911148
H       -0.32248996      -1.60518816      -1.46287727
H       -1.12584792      -2.19333353       1.56858918
H       -3.03998539       0.04783185       1.15156530
