13
Frame=0 idx=004572 GeodesicLength=0.0 rxn_smarts="[C:1]([C@@:2]1([H:10])[C:3]([H:11])([H:12])[N:4]1[C:5](=[O:6])[H:13])([H:7])([H:8])[H:9]>>[C:1]([C@@:2]1([H:10])[C-:3]([H:11])[N+:4]1=[C:5]([O:6][H:12])[H:13])([H:7])([H:8])[H:9]"
C       -1.63261768       0.00804496       0.50733018
C       -0.48670365      -0.85675669       0.06544000
C        0.30170305      -0.54148724      -1.19198051
N        0.85486547      -0.31396474       0.14083952
C        1.49272081       0.77018336       0.40588732
O        1.97452553       1.43064175      -0.59990877
H       -1.73420093       0.04336680       1.59490019
H       -2.55764615      -0.40044338       0.09597154
H       -1.50988648       1.02025314       0.11841338
H       -0.52441895      -1.88415787       0.42207883
H        0.74533437      -1.45441579      -1.59986213
H        1.42832989       1.02050550      -1.36533170
H        1.64799473       1.15823025       1.40622212
13
Frame=1 idx=004572 GeodesicLength=0.09912717892086813 rxn_smarts="[C:1]([C@@:2]1([H:10])[C:3]([H:11])([H:12])[N:4]1[C:5](=[O:6])[H:13])([H:7])([H:8])[H:9]>>[C:1]([C@@:2]1([H:10])[C-:3]([H:11])[N+:4]1=[C:5]([O:6][H:12])[H:13])([H:7])([H:8])[H:9]"
C       -1.64217516       0.00452694       0.50630216
C       -0.48951133      -0.85225137       0.06649410
C        0.29828668      -0.53031808      -1.18848290
N        0.84554735      -0.30003707       0.14464413
C        1.51310369       0.76776857       0.40927288
O        1.98470751       1.42854516      -0.60016304
H       -1.74475689       0.04034775       1.59374090
H       -2.56425205      -0.41141896       0.09571036
H       -1.52689980       1.01732280       0.11682220
H       -0.51523420      -1.87861698       0.42750067
H        0.74872814      -1.43714076      -1.60168975
H        1.43019416       0.99837797      -1.38203832
H        1.66226190       1.15289403       1.41188660
13
Frame=2 idx=004572 GeodesicLength=0.19849001889720536 rxn_smarts="[C:1]([C@@:2]1([H:10])[C:3]([H:11])([H:12])[N:4]1[C:5](=[O:6])[H:13])([H:7])([H:8])[H:9]>>[C:1]([C@@:2]1([H:10])[C-:3]([H:11])[N+:4]1=[C:5]([O:6][H:12])[H:13])([H:7])([H:8])[H:9]"
C       -1.65209159       0.00078609       0.50505810
C       -0.49225262      -0.84745885       0.06772083
C        0.29477337      -0.51896224      -1.18491879
N        0.83590560      -0.28504473       0.14839448
C        1.53388099       0.76492582       0.41252438
O        1.99739169       1.42494800      -0.60028299
H       -1.75575420       0.03744886       1.59234539
H       -2.57090649      -0.42322109       0.09532371
H       -1.54478285       1.01402094       0.11463422
H       -0.50555900      -1.87251508       0.43343602
H        0.75205919      -1.41970249      -1.60311121
H        1.42999355       0.97772642      -1.39850705
H        1.67734238       1.14704836       1.41738292
13
Frame=3 idx=004572 GeodesicLength=0.2981475754014941 rxn_smarts="[C:1]([C@@:2]1([H:10])[C:3]([H:11])([H:12])[N:4]1[C:5](=[O:6])[H:13])([H:7])([H:8])[H:9]>>[C:1]([C@@:2]1([H:10])[C-:3]([H:11])[N+:4]1=[C:5]([O:6][H:12])[H:13])([H:7])([H:8])[H:9]"
C       -1.66242643      -0.00319194       0.50356810
C       -0.49493219      -0.84232371       0.06915541
C        0.29113026      -0.50740327      -1.18128286
N        0.82587538      -0.26881768       0.15206322
C        1.55495107       0.76169980       0.41564278
O        2.01225404       1.42021631      -0.60016096
H       -1.76727134       0.03470923       1.59067775
H       -2.57762292      -0.43594402       0.09480573
H       -1.56365566       1.01030709       0.11176522
H       -0.49533689      -1.86575603       0.43997806
H        0.75533403      -1.40209940      -1.60405993
H        1.42801773       0.95829627      -1.41494511
H        1.69368294       1.14030733       1.42279259
13
Frame=4 idx=004572 GeodesicLength=0.39793432539789597 rxn_smarts="[C:1]([C@@:2]1([H:10])[C:3]([H:11])([H:12])[N:4]1[C:5](=[O:6])[H:13])([H:7])([H:8])[H:9]>>[C:1]([C@@:2]1([H:10])[C-:3]([H:11])[N+:4]1=[C:5]([O:6][H:12])[H:13])([H:7])([H:8])[H:9]"
C       -1.67321283      -0.00743219       0.50181213
C       -0.49753780      -0.83679469       0.07082533
C        0.28734342      -0.49561200      -1.17757275
N        0.81540335      -0.25120503       0.15563271
C        1.57628979       0.75805663       0.41863155
O        2.02941177       1.41425237      -0.59980696
H       -1.77936065       0.03214284       1.58871375
H       -2.58438398      -0.44968126       0.09415226
H       -1.58361167       1.00612758       0.10815014
H       -0.48450112      -1.85824400       0.44720156
H        0.75855482      -1.38431774      -1.60449551
H        1.42419786       0.94017229      -1.43138513
H        1.71140705       1.13253520       1.42814091
13
Frame=5 idx=004572 GeodesicLength=0.4977695210062615 rxn_smarts="[C:1]([C@@:2]1([H:10])[C:3]([H:11])([H:12])[N:4]1[C:5](=[O:6])[H:13])([H:7])([H:8])[H:9]>>[C:1]([C@@:2]1([H:10])[C-:3]([H:11])[N+:4]1=[C:5]([O:6][H:12])[H:13])([H:7])([H:8])[H:9]"
C       -1.68447292      -0.01193304       0.49975130
C       -0.50005480      -0.83080965       0.07276623
C        0.28340741      -0.48358941      -1.17378530
N        0.80443244      -0.23203978       0.15907407
C        1.59790534       0.75392105       0.42147862
O        2.04851472       1.40732266      -0.59915667
H       -1.79207044       0.02982062       1.58640651
H       -2.59115958      -0.46450368       0.09335544
H       -1.60472653       1.00143969       0.10367672
H       -0.47298803      -1.84985594       0.45521852
H        0.76174310      -1.36638343      -1.60434459
H        1.41865715       0.92325470      -1.44792864
H        1.73081213       1.12335623       1.43348781
13
Frame=6 idx=004572 GeodesicLength=0.5974216991789784 rxn_smarts="[C:1]([C@@:2]1([H:10])[C:3]([H:11])([H:12])[N:4]1[C:5](=[O:6])[H:13])([H:7])([H:8])[H:9]>>[C:1]([C@@:2]1([H:10])[C-:3]([H:11])[N+:4]1=[C:5]([O:6][H:12])[H:13])([H:7])([H:8])[H:9]"
C       -1.69622472      -0.01668588       0.49733585
C       -0.50246039      -0.82429549       0.07502179
C        0.27933004      -0.47134422      -1.16991366
N        0.79290140      -0.21113225       0.16235943
C        1.61983862       0.74917401       0.42415557
O        2.06912485       1.39972292      -0.59815427
H       -1.80545322       0.02784144       1.58369613
H       -2.59790627      -0.48048741       0.09240476
H       -1.62707838       0.99619469       0.09819947
H       -0.46072416      -1.84044324       0.46416822
H        0.76493729      -1.34833578      -1.60351513
H        1.41149137       0.90748013      -1.46463783
H        1.75222358       1.11231111       1.43887967
13
Frame=7 idx=004572 GeodesicLength=0.6967383697202955 rxn_smarts="[C:1]([C@@:2]1([H:10])[C:3]([H:11])([H:12])[N:4]1[C:5](=[O:6])[H:13])([H:7])([H:8])[H:9]>>[C:1]([C@@:2]1([H:10])[C-:3]([H:11])[N+:4]1=[C:5]([O:6][H:12])[H:13])([H:7])([H:8])[H:9]"
C       -1.70849079      -0.02168740       0.49451348
C       -0.50472308      -0.81715883       0.07764822
C        0.27512127      -0.45887789      -1.16594661
N        0.78073740      -0.18824557       0.16545333
C        1.64212116       0.74368614       0.42661083
O        2.09086120       1.39171437      -0.59673307
H       -1.81957234       0.02631628       1.58051615
H       -2.60456923      -0.49773696       0.09129941
H       -1.65076792       0.99032534       0.09155123
H       -0.44761365      -1.82982114       0.47421828
H        0.76818246      -1.33020951      -1.60189844
H        1.40275692       0.89282764      -1.48157956
H        1.77595660       1.09886753       1.44434675
13
Frame=8 idx=004572 GeodesicLength=0.7958627371892157 rxn_smarts="[C:1]([C@@:2]1([H:10])[C:3]([H:11])([H:12])[N:4]1[C:5](=[O:6])[H:13])([H:7])([H:8])[H:9]>>[C:1]([C@@:2]1([H:10])[C-:3]([H:11])[N+:4]1=[C:5]([O:6][H:12])[H:13])([H:7])([H:8])[H:9]"
C       -1.72130030      -0.02694082       0.49123290
C       -0.50680104      -0.80928030       0.08071904
C        0.27078590      -0.44618605      -1.16187063
N        0.76785202      -0.16308710       0.16830406
C        1.66474969       0.73733171       0.42877815
O        2.11342887       1.38356244      -0.59476924
H       -1.83450207       0.02537343       1.57679725
H       -2.61107957      -0.51639326       0.09005836
H       -1.67592727       0.98374055       0.08354203
H       -0.43353185      -1.81775903       0.48556903
H        0.77152911      -1.31203585      -1.59937025
H        1.39248322       0.87928759      -1.49888452
H        1.80231330       1.08238671       1.44989382
13
Frame=9 idx=004572 GeodesicLength=0.894596153294726 rxn_smarts="[C:1]([C@@:2]1([H:10])[C:3]([H:11])([H:12])[N:4]1[C:5](=[O:6])[H:13])([H:7])([H:8])[H:9]>>[C:1]([C@@:2]1([H:10])[C-:3]([H:11])[N+:4]1=[C:5]([O:6][H:12])[H:13])([H:7])([H:8])[H:9]"
C       -1.73465706      -0.03248636       0.48749529
C       -0.50862650      -0.80051489       0.08429905
C        0.26631754      -0.43317369      -1.15768630
N        0.75417321      -0.13533948       0.17083252
C        1.68767619       0.72994616       0.43060863
O        2.13709552       1.37497930      -0.59226726
H       -1.85026922       0.02506290       1.57252084
H       -2.61733012      -0.53663711       0.08876716
H       -1.70269045       0.97631178       0.07406498
H       -0.41832179      -1.80400487       0.49835963
H        0.77495679      -1.29374519      -1.59589258
H        1.38060754       0.86702140      -1.51653146
H        1.83106836       1.06258005       1.45542950
13
Frame=10 idx=004572 GeodesicLength=0.9931786061720539 rxn_smarts="[C:1]([C@@:2]1([H:10])[C:3]([H:11])([H:12])[N:4]1[C:5](=[O:6])[H:13])([H:7])([H:8])[H:9]>>[C:1]([C@@:2]1([H:10])[C-:3]([H:11])[N+:4]1=[C:5]([O:6][H:12])[H:13])([H:7])([H:8])[H:9]"
C       -1.74853772      -0.03835668       0.48331701
C       -0.51010913      -0.79068876       0.08846286
C        0.26170015      -0.41975348      -1.15341101
N        0.73964191      -0.10466604       0.17290953
C        1.71073450       0.72141191       0.43206104
O        2.16208053       1.36578203      -0.58912395
H       -1.86686508       0.02545783       1.56768135
H       -2.62317277      -0.55864667       0.08754995
H       -1.73116775       0.96789987       0.06302038
H       -0.40180423      -1.78826389       0.51273678
H        0.77843195      -1.27528323      -1.59144210
H        1.36715162       0.85607443      -1.53465287
H        1.86191601       1.03903267       1.46089103
13
Frame=11 idx=004572 GeodesicLength=1.0917067592119492 rxn_smarts="[C:1]([C@@:2]1([H:10])[C:3]([H:11])([H:12])[N:4]1[C:5](=[O:6])[H:13])([H:7])([H:8])[H:9]>>[C:1]([C@@:2]1([H:10])[C-:3]([H:11])[N+:4]1=[C:5]([O:6][H:12])[H:13])([H:7])([H:8])[H:9]"
C       -1.76282688      -0.04458066       0.47877887
C       -0.51112056      -0.77962763       0.09325629
C        0.25691538      -0.40581101      -1.14910368
N        0.72428707      -0.07083321       0.17433658
C        1.73360495       0.71164172       0.43315120
O        2.18882647       1.35552438      -0.58527785
H       -1.88414668       0.02657576       1.56233752
H       -2.62839059      -0.58252738       0.08660692
H       -1.76133387       0.95837789       0.05043867
H       -0.38381492      -1.77026425       0.52873461
H        0.78184622      -1.25656513      -1.58612011
H        1.35217991       0.84645324      -1.55334891
H        1.89397350       1.01163629       1.46620989
13
Frame=12 idx=004572 GeodesicLength=1.190211288177852 rxn_smarts="[C:1]([C@@:2]1([H:10])[C:3]([H:11])([H:12])[N:4]1[C:5](=[O:6])[H:13])([H:7])([H:8])[H:9]>>[C:1]([C@@:2]1([H:10])[C-:3]([H:11])[N+:4]1=[C:5]([O:6][H:12])[H:13])([H:7])([H:8])[H:9]"
C       -1.77726446      -0.05113984       0.47402251
C       -0.51150355      -0.76721469       0.09867029
C        0.25196600      -0.39129842      -1.14487990
N        0.70827349      -0.03389283       0.17486283
C        1.75577588       0.70066360       0.43396917
O        2.21763021       1.34367469      -0.58057622
H       -1.90178077       0.02839979       1.55662248
H       -2.63268362      -0.60818204       0.08617711
H       -1.79288894       0.94769498       0.03651484
H       -0.36428385      -1.74984814       0.54621870
H        0.78505835      -1.23756847      -1.58017100
H        1.33581688       0.83807542      -1.57278238
H        1.92588437       0.98063595       1.47135158
13
Frame=13 idx=004572 GeodesicLength=1.28859795725772 rxn_smarts="[C:1]([C@@:2]1([H:10])[C:3]([H:11])([H:12])[N:4]1[C:5](=[O:6])[H:13])([H:7])([H:8])[H:9]>>[C:1]([C@@:2]1([H:10])[C-:3]([H:11])[N+:4]1=[C:5]([O:6][H:12])[H:13])([H:7])([H:8])[H:9]"
C       -1.79149691      -0.05793581       0.46923756
C       -0.51110167      -0.75345468       0.10461789
C        0.24693474      -0.37632456      -1.14089203
N        0.69200192       0.00569823       0.17415621
C        1.77663390       0.68863230       0.43466046
O        2.24856343       1.33002248      -0.57498321
H       -1.91929594       0.03093682       1.55069435
H       -2.63580350      -0.63524862       0.08657096
H       -1.82525694       0.93592598       0.02159371
H       -0.34331106      -1.72706837       0.56485542
H        0.78802366      -1.21840397      -1.57392724
H        1.31812358       0.83072673      -1.59306825
H        1.95598480       0.94649347       1.47648418
13
Frame=14 idx=004572 GeodesicLength=1.3862015526478704 rxn_smarts="[C:1]([C@@:2]1([H:10])[C:3]([H:11])([H:12])[N:4]1[C:5](=[O:6])[H:13])([H:7])([H:8])[H:9]>>[C:1]([C@@:2]1([H:10])[C-:3]([H:11])[N+:4]1=[C:5]([O:6][H:12])[H:13])([H:7])([H:8])[H:9]"
C       -1.80491444      -0.06500099       0.46473761
C       -0.50979584      -0.73840004       0.11080964
C        0.24174750      -0.36073680      -1.13743328
N        0.67565701       0.04714332       0.17196366
C        1.79545144       0.67576734       0.43568824
O        2.28280624       1.31149447      -0.56847214
H       -1.93585027       0.03382244       1.54493254
H       -2.63713036      -0.66333733       0.08814814
H       -1.85762067       0.92298254       0.00633644
H       -0.32109272      -1.70207778       0.58381014
H        0.79033552      -1.19878842      -1.56820934
H        1.29889739       0.82503457      -1.61416757
H        1.98150920       0.91209667       1.48185591
13
Frame=15 idx=004572 GeodesicLength=1.4843766301409187 rxn_smarts="[C:1]([C@@:2]1([H:10])[C:3]([H:11])([H:12])[N:4]1[C:5](=[O:6])[H:13])([H:7])([H:8])[H:9]>>[C:1]([C@@:2]1([H:10])[C-:3]([H:11])[N+:4]1=[C:5]([O:6][H:12])[H:13])([H:7])([H:8])[H:9]"
C       -1.81690973      -0.07167451       0.46043311
C       -0.50745083      -0.72256268       0.11723238
C        0.23691149      -0.34583100      -1.13446687
N        0.66035794       0.08889641       0.16826672
C        1.81165455       0.66251334       0.43686414
O        2.31657581       1.29342126      -0.56026705
H       -1.95081105       0.03768734       1.53922626
H       -2.63671096      -0.69092145       0.09056565
H       -1.88833937       0.90979319      -0.00911257
H       -0.29828978      -1.67567883       0.60309619
H        0.79285235      -1.18001623      -1.56265612
H        1.27760183       0.81940236      -1.63670430
H        2.00255773       0.87497079       1.48752246
13
Frame=16 idx=004572 GeodesicLength=1.5823094183701323 rxn_smarts="[C:1]([C@@:2]1([H:10])[C:3]([H:11])([H:12])[N:4]1[C:5](=[O:6])[H:13])([H:7])([H:8])[H:9]>>[C:1]([C@@:2]1([H:10])[C-:3]([H:11])[N+:4]1=[C:5]([O:6][H:12])[H:13])([H:7])([H:8])[H:9]"
C       -1.82734924      -0.07801408       0.45653397
C       -0.50419328      -0.70627170       0.12358428
C        0.23241286      -0.33160892      -1.13214588
N        0.64627725       0.13002252       0.16302364
C        1.82531263       0.64918122       0.43856919
O        2.35113046       1.27335260      -0.55053445
H       -1.96389049       0.04214993       1.53382463
H       -2.63461585      -0.71769821       0.09402566
H       -1.91704457       0.89645179      -0.02420547
H       -0.27530270      -1.64849507       0.62192602
H        0.79552819      -1.16192641      -1.55784354
H        1.25380151       0.81479508      -1.66048845
H        2.01793324       0.83806124       1.49373039
