17
Frame=0 idx=008382 GeodesicLength=0.0 rxn_smarts="[C:1]([C:2]12[C:3]([H:11])([H:12])[C:4]([H:13])([C:5]1([H:14])[H:15])[C:6]([H:16])=[C:7]2[H:17])([H:8])([H:9])[H:10]>>[C:1](/[C:7](=[C:6](\[C:4]1([H:13])[C:3]([H:11])([H:12])[C:2][C:5]1([H:14])[H:15])[H:16])[H:17])([H:8])([H:9])[H:10]"
C        1.88188310       0.43302907       0.19334513
C        0.58604645      -0.82755075      -0.34000281
C       -0.38767966      -1.15556310       0.80974721
C       -1.46535655      -0.35884710       0.06101134
C       -0.66725702      -0.71247521      -1.23073435
C       -1.05861170       1.07008327       0.22171760
C        0.22740641       1.30929763       0.05506989
H        2.44448289       0.52895009      -0.72950668
H        2.07936683       1.33885683       0.79527143
H        2.30418673      -0.35642512       0.80771762
H       -0.13929162      -0.87337537       1.83261020
H       -0.56933673      -2.23296733       0.76128869
H       -2.53052283      -0.57630668       0.17012082
H       -0.70279387      -0.02822462      -2.07477181
H       -0.85965511      -1.73507200      -1.57414126
H       -1.77929288       1.87622567       0.30402622
H        0.63642559       2.30036473      -0.06276931
17
Frame=1 idx=008382 GeodesicLength=0.07457991737283713 rxn_smarts="[C:1]([C:2]12[C:3]([H:11])([H:12])[C:4]([H:13])([C:5]1([H:14])[H:15])[C:6]([H:16])=[C:7]2[H:17])([H:8])([H:9])[H:10]>>[C:1](/[C:7](=[C:6](\[C:4]1([H:13])[C:3]([H:11])([H:12])[C:2][C:5]1([H:14])[H:15])[H:16])[H:17])([H:8])([H:9])[H:10]"
C        1.89042887       0.44193209       0.17762779
C        0.57295502      -0.82313160      -0.31301627
C       -0.40543390      -1.15969371       0.82372307
C       -1.46423828      -0.35454635       0.05146918
C       -0.65621710      -0.72468481      -1.23076339
C       -1.06126966       1.07526877       0.21626166
C        0.22783324       1.31292338       0.06516979
H        2.43382531       0.55610515      -0.75528018
H        2.10552239       1.33012061       0.79804982
H        2.33180881      -0.36240252       0.75897011
H       -0.16623968      -0.87388240       1.84761631
H       -0.59619710      -2.23542247       0.77323001
H       -2.52929094      -0.57678395       0.14421001
H       -0.67216336      -0.04592623      -2.07983717
H       -0.85423197      -1.74879693      -1.56578950
H       -1.78438516       1.87677491       0.31666822
H        0.62729351       2.31214607      -0.02830946
17
Frame=2 idx=008382 GeodesicLength=0.1490883720544477 rxn_smarts="[C:1]([C:2]12[C:3]([H:11])([H:12])[C:4]([H:13])([C:5]1([H:14])[H:15])[C:6]([H:16])=[C:7]2[H:17])([H:8])([H:9])[H:10]>>[C:1](/[C:7](=[C:6](\[C:4]1([H:13])[C:3]([H:11])([H:12])[C:2][C:5]1([H:14])[H:15])[H:16])[H:17])([H:8])([H:9])[H:10]"
C        1.89863152       0.45094792       0.16101474
C        0.55987879      -0.81829404      -0.28503623
C       -0.42392363      -1.16341563       0.83802197
C       -1.46285015      -0.35016510       0.04164825
C       -0.64395711      -0.73725909      -1.23006596
C       -1.06395261       1.08067382       0.21037343
C        0.22820112       1.31671832       0.07607156
H        2.42186188       0.58436731      -0.78150266
H        2.13276700       1.32017011       0.79971535
H        2.35847426      -0.36830503       0.70673055
H       -0.19505141      -0.87390629       1.86308379
H       -0.62362183      -2.23741165       0.78538507
H       -2.52757141      -0.57715382       0.11741340
H       -0.64003456      -0.06450237      -2.08406595
H       -0.84753639      -1.76277314      -1.55678057
H       -1.78962345       1.87693205       0.32941306
H        0.61830801       2.32337664       0.00858020
17
Frame=3 idx=008382 GeodesicLength=0.22350494806138443 rxn_smarts="[C:1]([C:2]12[C:3]([H:11])([H:12])[C:4]([H:13])([C:5]1([H:14])[H:15])[C:6]([H:16])=[C:7]2[H:17])([H:8])([H:9])[H:10]>>[C:1](/[C:7](=[C:6](\[C:4]1([H:13])[C:3]([H:11])([H:12])[C:2][C:5]1([H:14])[H:15])[H:16])[H:17])([H:8])([H:9])[H:10]"
C        1.90642362       0.46008718       0.14348069
C        0.54683110      -0.81300097      -0.25607326
C       -0.44312730      -1.16669350       0.85261354
C       -1.46112410      -0.34568957       0.03155254
C       -0.63041881      -0.75022408      -1.22856456
C       -1.06660025       1.08632425       0.20401034
C        0.22852544       1.32069621       0.08774930
H        2.40856440       0.61381648      -0.80805953
H        2.16109444       1.30889611       0.80015220
H        2.38381705      -0.37408187       0.65083705
H       -0.22578247      -0.87340027       1.87896006
H       -0.65157306      -2.23890639       0.79772584
H       -2.52526412      -0.57741444       0.08974048
H       -0.60639790      -0.08400742      -2.08737581
H       -0.83952247      -1.77702754      -1.54703635
H       -1.79496426       1.87666849       0.34217828
H        0.60951870       2.33395733       0.04810920
17
Frame=4 idx=008382 GeodesicLength=0.2978121942690527 rxn_smarts="[C:1]([C:2]12[C:3]([H:11])([H:12])[C:4]([H:13])([C:5]1([H:14])[H:15])[C:6]([H:16])=[C:7]2[H:17])([H:8])([H:9])[H:10]>>[C:1](/[C:7](=[C:6](\[C:4]1([H:13])[C:3]([H:11])([H:12])[C:2][C:5]1([H:14])[H:15])[H:16])[H:17])([H:8])([H:9])[H:10]"
C        1.91373181       0.46936233       0.12500995
C        0.53382769      -0.80721198      -0.22616766
C       -0.46299835      -1.16949032       0.86745720
C       -1.45898332      -0.34110631       0.02119927
C       -0.61556334      -0.76360231      -1.22617844
C       -1.06914188       1.09224596       0.19713920
C        0.22882440       1.32487386       0.10015295
H        2.39393764       0.64454900      -0.83480070
H        2.19047280       1.29616129       0.79926665
H        2.40742290      -0.37967378       0.59114849
H       -0.25845155      -0.87231685       1.89517175
H       -0.67999039      -2.23987679       0.81021950
H       -2.52225784      -0.57756842       0.06123588
H       -0.57127146      -0.10449145      -2.08968362
H       -0.83017026      -1.79158224      -1.53647309
H       -1.80036061       1.87596622       0.35480750
H        0.60097175       2.34376178       0.09049515
17
Frame=5 idx=008382 GeodesicLength=0.37198426524300265 rxn_smarts="[C:1]([C:2]12[C:3]([H:11])([H:12])[C:4]([H:13])([C:5]1([H:14])[H:15])[C:6]([H:16])=[C:7]2[H:17])([H:8])([H:9])[H:10]>>[C:1](/[C:7](=[C:6](\[C:4]1([H:13])[C:3]([H:11])([H:12])[C:2][C:5]1([H:14])[H:15])[H:16])[H:17])([H:8])([H:9])[H:10]"
C        1.92047933       0.47878484       0.10561633
C        0.52088564      -0.80088339      -0.19539629
C       -0.48345830      -1.17177234       0.88249471
C       -1.45634043      -0.33640387       0.01061627
C       -0.59937715      -0.77740675      -1.22283392
C       -1.07149374       1.09845910       0.18974671
C        0.22911928       1.32926903       0.11320040
H        2.37802215       0.67663382      -0.86152874
H        2.22085139       1.28184965       0.79693949
H        2.42879883      -0.38499932       0.52763146
H       -0.29302834      -0.87061663       1.91162015
H       -0.70877741      -2.24029588       0.82281433
H       -2.51842766      -0.57762107       0.03197302
H       -0.53472062      -0.12598829      -2.09091148
H       -0.81948976      -1.80644577      -1.52502026
H       -1.80575079       1.87481654       0.36712468
H        0.59270760       2.35262034       0.13591314
17
Frame=6 idx=008382 GeodesicLength=0.44601578668785763 rxn_smarts="[C:1]([C:2]12[C:3]([H:11])([H:12])[C:4]([H:13])([C:5]1([H:14])[H:15])[C:6]([H:16])=[C:7]2[H:17])([H:8])([H:9])[H:10]>>[C:1](/[C:7](=[C:6](\[C:4]1([H:13])[C:3]([H:11])([H:12])[C:2][C:5]1([H:14])[H:15])[H:16])[H:17])([H:8])([H:9])[H:10]"
C        1.92659343       0.48837092       0.08532885
C        0.50802764      -0.79397373      -0.16388038
C       -0.50439351      -1.17351553       0.89765991
C       -1.45311080      -0.33157627      -0.00013985
C       -0.58188501      -0.79163748      -1.21845688
C       -1.07357095       1.10497904       0.18185294
C        0.22943286       1.33390448       0.12678748
H        2.36092830       0.71017227      -0.88800127
H        2.25214725       1.26579212       0.79311361
H        2.44744350      -0.38996369       0.46027971
H       -0.32941782      -0.86827823       1.92818554
H       -0.73781200      -2.24014753       0.83545660
H       -2.51365581      -0.57759168       0.00209374
H       -0.49684815      -0.14850900      -2.09098185
H       -0.80754044      -1.82161158      -1.51260740
H       -1.81109076       1.87325248       0.37880061
H        0.58475227       2.36033340       0.18450864
17
Frame=7 idx=008382 GeodesicLength=0.5198955444290403 rxn_smarts="[C:1]([C:2]12[C:3]([H:11])([H:12])[C:4]([H:13])([C:5]1([H:14])[H:15])[C:6]([H:16])=[C:7]2[H:17])([H:8])([H:9])[H:10]>>[C:1](/[C:7](=[C:6](\[C:4]1([H:13])[C:3]([H:11])([H:12])[C:2][C:5]1([H:14])[H:15])[H:16])[H:17])([H:8])([H:9])[H:10]"
C        1.93200947       0.49813321       0.06423856
C        0.49527765      -0.78644762      -0.13178727
C       -0.52565268      -1.17471907       0.91286339
C       -1.44920880      -0.32662272      -0.01099971
C       -0.56315088      -0.80626908      -1.21299936
C       -1.07528398       1.11181168       0.17352600
C        0.22979017       1.33880729       0.14078345
H        2.34283623       0.74519412      -0.91390747
H        2.28424575       1.24788077       0.78771181
H        2.46279449      -0.39444018       0.38930912
H       -0.36745427      -0.86532029       1.94472453
H       -0.76693153      -2.23944117       0.84805446
H       -2.50782525      -0.57750358      -0.02822789
H       -0.45781346      -0.17201519      -2.08983435
H       -0.79442688      -1.83704290      -1.49921391
H       -1.81632017       1.87132524       0.38960290
H        0.57711413       2.36666950       0.23615575
17
Frame=8 idx=008382 GeodesicLength=0.5936378739704193 rxn_smarts="[C:1]([C:2]12[C:3]([H:11])([H:12])[C:4]([H:13])([C:5]1([H:14])[H:15])[C:6]([H:16])=[C:7]2[H:17])([H:8])([H:9])[H:10]>>[C:1](/[C:7](=[C:6](\[C:4]1([H:13])[C:3]([H:11])([H:12])[C:2][C:5]1([H:14])[H:15])[H:16])[H:17])([H:8])([H:9])[H:10]"
C        1.93667180       0.50808810       0.04245132
C        0.48266103      -0.77827627      -0.09932618
C       -0.54706282      -1.17538531       0.92801426
C       -1.44456186      -0.32155055      -0.02187291
C       -0.54327280      -0.82126123      -1.20642596
C       -1.07655457       1.11894523       0.16485334
C        0.23021268       1.34399878       0.15502933
H        2.32399210       0.78172495      -0.93892184
H        2.31700779       1.22796779       0.78069468
H        2.47432607      -0.39827377       0.31498807
H       -0.40691478      -0.86176942       1.96107855
H       -0.79596259      -2.23818316       0.86052946
H       -2.50083875      -0.57739348      -0.05876247
H       -0.41778630      -0.19645008      -2.08742374
H       -0.78029256      -1.85268091      -1.48482890
H       -1.82139822       1.86911826       0.39921208
H        0.56977377       2.37138107       0.29071091
17
Frame=9 idx=008382 GeodesicLength=0.6672428637047498 rxn_smarts="[C:1]([C:2]12[C:3]([H:11])([H:12])[C:4]([H:13])([C:5]1([H:14])[H:15])[C:6]([H:16])=[C:7]2[H:17])([H:8])([H:9])[H:10]>>[C:1](/[C:7](=[C:6](\[C:4]1([H:13])[C:3]([H:11])([H:12])[C:2][C:5]1([H:14])[H:15])[H:16])[H:17])([H:8])([H:9])[H:10]"
C        1.94055564       0.51824281       0.02014534
C        0.47020147      -0.76944053      -0.06673957
C       -0.56841963      -1.17552357       0.94299212
C       -1.43911821      -0.31637056      -0.03269136
C       -0.52240134      -0.83655761      -1.19874287
C       -1.07732363       1.12635667       0.15592286
C        0.23071927       1.34949911       0.16931997
H        2.30469313       0.81964676      -0.96267980
H        2.35029566       1.20602243       0.77197505
H        2.48154174      -0.40127354       0.23788376
H       -0.44749829      -0.85765918       1.97705518
H       -0.82469801      -2.23638489       0.87276608
H       -2.49263073      -0.57729732      -0.08930559
H       -0.37700318      -0.22172912      -2.08373395
H       -0.76533470      -1.86844630      -1.46950036
H       -1.82627012       1.86669079       0.40754714
H        0.56269092       2.37422405       0.34778599
17
Frame=10 idx=008382 GeodesicLength=0.7407758911462167 rxn_smarts="[C:1]([C:2]12[C:3]([H:11])([H:12])[C:4]([H:13])([C:5]1([H:14])[H:15])[C:6]([H:16])=[C:7]2[H:17])([H:8])([H:9])[H:10]>>[C:1](/[C:7](=[C:6](\[C:4]1([H:13])[C:3]([H:11])([H:12])[C:2][C:5]1([H:14])[H:15])[H:16])[H:17])([H:8])([H:9])[H:10]"
C        1.94366327       0.52860512      -0.00245522
C        0.45791641      -0.75995608      -0.03428936
C       -0.58953324      -1.17521990       0.95769541
C       -1.43285517      -0.31110871      -0.04334325
C       -0.50070843      -0.85205685      -1.18999043
C       -1.07755492       1.13402012       0.14692442
C        0.23132977       1.35534185       0.18351001
H        2.28534016       0.85883031      -0.98481028
H        2.38391446       1.18199657       0.76158169
H        2.48406269      -0.40324934       0.15867659
H       -0.48889007      -0.85314348       1.99250545
H       -0.85296513      -2.23414720       0.88463839
H       -2.48317808      -0.57726934      -0.11958209
H       -0.33566809      -0.24766434      -2.07877230
H       -0.74977978      -1.88421895      -1.45335242
H       -1.83089639       1.86413311       0.41462358
H        0.55580254       2.37510710       0.40643982
17
Frame=11 idx=008382 GeodesicLength=0.8142986452200435 rxn_smarts="[C:1]([C:2]12[C:3]([H:11])([H:12])[C:4]([H:13])([C:5]1([H:14])[H:15])[C:6]([H:16])=[C:7]2[H:17])([H:8])([H:9])[H:10]>>[C:1](/[C:7](=[C:6](\[C:4]1([H:13])[C:3]([H:11])([H:12])[C:2][C:5]1([H:14])[H:15])[H:16])[H:17])([H:8])([H:9])[H:10]"
C        1.94603845       0.53917464      -0.02510731
C        0.44581493      -0.74984919      -0.00222565
C       -0.61023015      -1.17455119       0.97202263
C       -1.42578626      -0.30579539      -0.05375405
C       -0.47838980      -0.86765819      -1.18023887
C       -1.07724603       1.14189212       0.13799928
C        0.23206010       1.36154140       0.19743225
H        2.26631648       0.89902226      -1.00501144
H        2.41771880       1.15593605       0.74947463
H        2.48166633      -0.40398652       0.07820016
H       -0.53076671      -0.84835463       2.00727663
H       -0.88061517      -2.23155058       0.89603131
H       -2.47250945      -0.57736323      -0.14937937
H       -0.29399550      -0.27407455      -2.07257313
H       -0.73387284      -1.89987368      -1.43653498
H       -1.83524310       1.86147218       0.42060872
H        0.54903994       2.37401850       0.46577918
17
Frame=12 idx=008382 GeodesicLength=0.8878408202768494 rxn_smarts="[C:1]([C:2]12[C:3]([H:11])([H:12])[C:4]([H:13])([C:5]1([H:14])[H:15])[C:6]([H:16])=[C:7]2[H:17])([H:8])([H:9])[H:10]>>[C:1](/[C:7](=[C:6](\[C:4]1([H:13])[C:3]([H:11])([H:12])[C:2][C:5]1([H:14])[H:15])[H:16])[H:17])([H:8])([H:9])[H:10]"
C        1.94767501       0.54990027      -0.04761625
C        0.43389643      -0.73914076       0.02920718
C       -0.63038286      -1.17352280       0.98587010
C       -1.41789897      -0.30043378      -0.06382105
C       -0.45554309      -0.88324352      -1.16954575
C       -1.07641757       1.14989189       0.12932798
C        0.23287174       1.36804418       0.21099300
H        2.24791836       0.93985244      -1.02308711
H        2.45146791       1.12780862       0.73556374
H        2.47423911      -0.40328576      -0.00284701
H       -0.57290551      -0.84334552       2.02120216
H       -0.90752441      -2.22855268       0.90681851
H       -2.46059195      -0.57757921      -0.17844423
H       -0.25202930      -0.30080661      -2.06512794
H       -0.71771197      -1.91522707      -1.41919423
H       -1.83930853       1.85868233       0.42571812
H        0.54224561       2.37095797       0.52498278
17
Frame=13 idx=008382 GeodesicLength=0.9615659505715689 rxn_smarts="[C:1]([C:2]12[C:3]([H:11])([H:12])[C:4]([H:13])([C:5]1([H:14])[H:15])[C:6]([H:16])=[C:7]2[H:17])([H:8])([H:9])[H:10]>>[C:1](/[C:7](=[C:6](\[C:4]1([H:13])[C:3]([H:11])([H:12])[C:2][C:5]1([H:14])[H:15])[H:16])[H:17])([H:8])([H:9])[H:10]"
C        1.94871392       0.56080988      -0.06986230
C        0.42217114      -0.72786067       0.05990129
C       -0.64986563      -1.17212626       0.99919427
C       -1.40928591      -0.29503990      -0.07364545
C       -0.43238619      -0.89882910      -1.15797217
C       -1.07513563       1.15803624       0.12071604
C        0.23378184       1.37490753       0.22392918
H        2.23023895       0.98105322      -1.03906046
H        2.48532872       1.09789575       0.71949517
H        2.46193409      -0.40095138      -0.08369770
H       -0.61504848      -0.83804338       2.03415114
H       -0.93361384      -2.22516855       0.91703851
H       -2.44757501      -0.57795993      -0.20685660
H       -0.20999512      -0.32788002      -2.05651054
H       -0.70154412      -1.93032140      -1.40135792
H       -1.84311221       1.85579010       0.42992619
H        0.53539349       2.36568788       0.58461134
17
Frame=14 idx=008382 GeodesicLength=1.0354357636843223 rxn_smarts="[C:1]([C:2]12[C:3]([H:11])([H:12])[C:4]([H:13])([C:5]1([H:14])[H:15])[C:6]([H:16])=[C:7]2[H:17])([H:8])([H:9])[H:10]>>[C:1](/[C:7](=[C:6](\[C:4]1([H:13])[C:3]([H:11])([H:12])[C:2][C:5]1([H:14])[H:15])[H:16])[H:17])([H:8])([H:9])[H:10]"
C        1.94924327       0.57181658      -0.09148209
C        0.41061903      -0.71614425       0.08961143
C       -0.66854645      -1.17062463       1.01191520
C       -1.40002131      -0.28965662      -0.08301884
C       -0.40913918      -0.91417440      -1.14566188
C       -1.07347338       1.16625067       0.11262190
C        0.23477545       1.38209844       0.23636497
H        2.21381730       1.02226313      -1.05261053
H        2.51882537       1.06604904       0.70173196
H        2.44498498      -0.39690405      -0.16340799
H       -0.65677613      -0.83292481       2.04608285
H       -0.95876716      -2.22166439       0.92648550
H       -2.43356069      -0.57853109      -0.23424704
H       -0.16807871      -0.35480485      -2.04672834
H       -0.68559849      -1.94488078      -1.38338904
H       -1.84668683       1.85280463       0.43372547
H        0.52838293       2.35902737       0.64200645
17
Frame=15 idx=008382 GeodesicLength=1.1096160046059171 rxn_smarts="[C:1]([C:2]12[C:3]([H:11])([H:12])[C:4]([H:13])([C:5]1([H:14])[H:15])[C:6]([H:16])=[C:7]2[H:17])([H:8])([H:9])[H:10]>>[C:1](/[C:7](=[C:6](\[C:4]1([H:13])[C:3]([H:11])([H:12])[C:2][C:5]1([H:14])[H:15])[H:16])[H:17])([H:8])([H:9])[H:10]"
C        1.94929002       0.58287682      -0.11253661
C        0.39921148      -0.70397864       0.11826308
C       -0.68645022      -1.16885756       1.02401721
C       -1.39011015      -0.28425881      -0.09198529
C       -0.38578036      -0.92930312      -1.13265921
C       -1.07146766       1.17449513       0.10492274
C        0.23580440       1.38956073       0.24815817
H        2.19859701       1.06314129      -1.06398134
H        2.55183717       1.03243849       0.68181078
H        2.42365530      -0.39098229      -0.24161055
H       -0.69815442      -0.82772951       2.05691099
H       -0.98302400      -2.21782189       0.93520346
H       -2.41852442      -0.57925679      -0.26063210
H       -0.12614105      -0.38170932      -2.03581710
H       -0.66980080      -1.95889567      -1.36530512
H       -1.85001950       1.84964172       0.43724855
H        0.52107720       2.35063943       0.69799234
17
Frame=16 idx=008382 GeodesicLength=1.1842719343914014 rxn_smarts="[C:1]([C:2]12[C:3]([H:11])([H:12])[C:4]([H:13])([C:5]1([H:14])[H:15])[C:6]([H:16])=[C:7]2[H:17])([H:8])([H:9])[H:10]>>[C:1](/[C:7](=[C:6](\[C:4]1([H:13])[C:3]([H:11])([H:12])[C:2][C:5]1([H:14])[H:15])[H:16])[H:17])([H:8])([H:9])[H:10]"
C        1.94905529       0.59404020      -0.13282448
C        0.38793895      -0.69149170       0.14585797
C       -0.70356983      -1.16702342       1.03556186
C       -1.37971412      -0.27891113      -0.10057440
C       -0.36253731      -0.94419555      -1.11907115
C       -1.06918274       1.18278573       0.09761183
C        0.23693010       1.39734041       0.25939642
H        2.18466744       1.10356722      -1.07323934
H        2.58453767       0.99726037       0.65972196
H        2.39847395      -0.38303602      -0.31777193
H       -0.73899715      -0.82269874       2.06672990
H       -1.00646997      -2.21390393       0.94324351
H       -2.40273072      -0.58022714      -0.28605238
H       -0.08437696      -0.40844868      -2.02388705
H       -0.65443632      -1.97240446      -1.34727916
H       -1.85314792       1.84640450       0.44041315
H        0.51355962       2.34094232       0.75216329
