17
Frame=0 idx=010898 GeodesicLength=0.0 rxn_smarts="[C:1]1([H:8])([H:9])[C@@:2]2([H:10])[C:3]([H:11])([H:12])[C@:4]3([H:13])[C:5]([H:14])([H:15])[C@@:6]2([H:16])[C@:7]13[H:17]>>[C:1](=[C:2]([C:3]([C@:4]1([H:13])[C:5]([H:14])([H:15])[C:6]([H:16])=[C:7]1[H:17])([H:11])[H:12])[H:10])([H:8])[H:9]"
C        1.61109609      -0.58054859      -0.01566761
C        1.37714152       0.65667137      -0.72858627
C       -0.01738371       1.12649045      -0.91219212
C       -0.89795282      -0.06780660      -0.51349635
C       -1.62230795       0.18229522       0.83086922
C       -0.51069250      -0.59455989       1.43014125
C        0.06459492      -1.05817617       0.20223938
H        2.27066496      -1.25193559      -0.59141926
H        2.00605724      -0.57029114       0.99822335
H        2.09555112       0.94834213      -1.49094465
H       -0.17214312       1.42167460      -1.95577466
H       -0.31077823       2.01051244      -0.31886440
H       -1.49363076      -0.43348108      -1.34958776
H       -1.68347165       1.25277301       1.09159361
H       -2.62778283      -0.24053862       0.94158576
H       -0.16271839      -0.68155717       2.45434084
H        0.07375614      -2.11986430      -0.07246028
17
Frame=1 idx=010898 GeodesicLength=0.08378099967531982 rxn_smarts="[C:1]1([H:8])([H:9])[C@@:2]2([H:10])[C:3]([H:11])([H:12])[C@:4]3([H:13])[C:5]([H:14])([H:15])[C@@:6]2([H:16])[C@:7]13[H:17]>>[C:1](=[C:2]([C:3]([C@:4]1([H:13])[C:5]([H:14])([H:15])[C:6]([H:16])=[C:7]1[H:17])([H:11])[H:12])[H:10])([H:8])[H:9]"
C        1.62530428      -0.59350062      -0.02863376
C        1.37397481       0.65948889      -0.70278715
C       -0.01980091       1.12324418      -0.90917745
C       -0.90121883      -0.07064846      -0.51647636
C       -1.62702978       0.18565441       0.82609692
C       -0.49747705      -0.56380884       1.43131436
C        0.05223104      -1.06372971       0.20619509
H        2.27308752      -1.25435941      -0.62778264
H        2.03814181      -0.59647030       0.97841122
H        2.09640532       0.97514877      -1.45276469
H       -0.16474452       1.41424401      -1.95506123
H       -0.31078021       2.01186946      -0.32285888
H       -1.49459764      -0.43774859      -1.35347379
H       -1.70837313       1.25632920       1.07746939
H       -2.62392789      -0.25497167       0.94172189
H       -0.16233580      -0.66161244       2.45851202
H        0.05114099      -2.12912888      -0.05070495
17
Frame=2 idx=010898 GeodesicLength=0.16748890389426396 rxn_smarts="[C:1]1([H:8])([H:9])[C@@:2]2([H:10])[C:3]([H:11])([H:12])[C@:4]3([H:13])[C:5]([H:14])([H:15])[C@@:6]2([H:16])[C@:7]13[H:17]>>[C:1](=[C:2]([C:3]([C@:4]1([H:13])[C:5]([H:14])([H:15])[C:6]([H:16])=[C:7]1[H:17])([H:11])[H:12])[H:10])([H:8])[H:9]"
C        1.63958322      -0.60549853      -0.04155535
C        1.37048299       0.66152057      -0.67742613
C       -0.02209368       1.11977577      -0.90647385
C       -0.90458082      -0.07346342      -0.51938407
C       -1.63130654       0.18922037       0.82166051
C       -0.48470185      -0.53410089       1.43160359
C        0.03962906      -1.06923991       0.21035251
H        2.27625320      -1.25509378      -0.66298152
H        2.06954570      -0.62079916       0.95851349
H        2.09647255       1.00050285      -1.41477781
H       -0.15719303       1.40633752      -1.95462112
H       -0.31041645       2.01310705      -0.32729548
H       -1.49590277      -0.44200422      -1.35709913
H       -1.73154461       1.25969187       1.06419869
H       -2.61976717      -0.26795719       0.94251247
H       -0.16353496      -0.64410374       2.46180736
H        0.02907514      -2.13789517      -0.02903416
17
Frame=3 idx=010898 GeodesicLength=0.25110478859068003 rxn_smarts="[C:1]1([H:8])([H:9])[C@@:2]2([H:10])[C:3]([H:11])([H:12])[C@:4]3([H:13])[C:5]([H:14])([H:15])[C@@:6]2([H:16])[C@:7]13[H:17]>>[C:1](=[C:2]([C:3]([C@:4]1([H:13])[C:5]([H:14])([H:15])[C:6]([H:16])=[C:7]1[H:17])([H:11])[H:12])[H:10])([H:8])[H:9]"
C        1.65395824      -0.61657514      -0.05442254
C        1.36669482       0.66271541      -0.65256545
C       -0.02424354       1.11609645      -0.90397601
C       -0.90802731      -0.07626615      -0.52221544
C       -1.63521236       0.19293733       0.81751626
C       -0.47243979      -0.50555620       1.43109416
C        0.02676684      -1.07474637       0.21469827
H        2.28018212      -1.25424688      -0.69700810
H        2.10035467      -0.64325334       0.93853130
H        2.09574418       1.02434163      -1.37714887
H       -0.14953320       1.39809479      -1.95430063
H       -0.30958212       2.01417904      -0.33196493
H       -1.49750055      -0.44622246      -1.36050337
H       -1.75311747       1.26283398       1.05176900
H       -2.61542168      -0.27958815       0.94379786
H       -0.16612414      -0.62852142       2.46422710
H        0.00750128      -2.14622250      -0.00752861
17
Frame=4 idx=010898 GeodesicLength=0.3346333291083288 rxn_smarts="[C:1]1([H:8])([H:9])[C@@:2]2([H:10])[C:3]([H:11])([H:12])[C@:4]3([H:13])[C:5]([H:14])([H:15])[C@@:6]2([H:16])[C@:7]13[H:17]>>[C:1](=[C:2]([C:3]([C@:4]1([H:13])[C:5]([H:14])([H:15])[C:6]([H:16])=[C:7]1[H:17])([H:11])[H:12])[H:10])([H:8])[H:9]"
C        1.66845483      -0.62679954      -0.06724383
C        1.36264040       0.66304241      -0.62822869
C       -0.02623990       1.11221446      -0.90158340
C       -0.91155306      -0.07907433      -0.52497357
C       -1.63883448       0.19674477       0.81361170
C       -0.46075907      -0.47827373       1.42986754
C        0.01360918      -1.08029457       0.21921346
H        2.28486838      -1.25194237      -0.72989735
H        2.13066665      -0.66388131       0.91845106
H        2.09424453       1.04667252      -1.33995144
H       -0.14179791       1.38963754      -1.95396390
H       -0.30820243       2.01504157      -0.33667166
H       -1.49934625      -0.45038151      -1.36373575
H       -1.77325127       1.26573163       1.04014818
H       -2.61101336      -0.28998085       0.94542343
H       -0.16982427      -0.61427808       2.46578907
H       -0.01366197      -2.15417861       0.01374516
17
Frame=5 idx=010898 GeodesicLength=0.41808011778793286 rxn_smarts="[C:1]1([H:8])([H:9])[C@@:2]2([H:10])[C:3]([H:11])([H:12])[C@:4]3([H:13])[C:5]([H:14])([H:15])[C@@:6]2([H:16])[C@:7]13[H:17]>>[C:1](=[C:2]([C:3]([C@:4]1([H:13])[C:5]([H:14])([H:15])[C:6]([H:16])=[C:7]1[H:17])([H:11])[H:12])[H:10])([H:8])[H:9]"
C        1.68309385      -0.63621815      -0.08000846
C        1.35834248       0.66245960      -0.60444425
C       -0.02807759       1.10813321      -0.89921138
C       -0.91516143      -0.08190367      -0.52766721
C       -1.64224514       0.20058842       0.80990342
C       -0.44973385      -0.45234781       1.42798486
C        0.00011220      -1.08593534       0.22386808
H        2.29031970      -1.24829406      -0.76166757
H        2.16055894      -0.68270476       0.89827715
H        2.09200603       1.06750549      -1.30323689
H       -0.13402220       1.38107252      -1.95349521
H       -0.30621323       2.01564981      -0.34124851
H       -1.50141498      -0.45445453      -1.36684426
H       -1.79207199       1.26836266       1.02931706
H       -2.60664965      -0.29922950       0.94725864
H       -0.17434761      -0.60085078       2.46650134
H       -0.03449554      -2.16183310       0.03471319
17
Frame=6 idx=010898 GeodesicLength=0.5014679650063324 rxn_smarts="[C:1]1([H:8])([H:9])[C@@:2]2([H:10])[C:3]([H:11])([H:12])[C@:4]3([H:13])[C:5]([H:14])([H:15])[C@@:6]2([H:16])[C@:7]13[H:17]>>[C:1](=[C:2]([C:3]([C@:4]1([H:13])[C:5]([H:14])([H:15])[C:6]([H:16])=[C:7]1[H:17])([H:11])[H:12])[H:10])([H:8])[H:9]"
C        1.69790683      -0.64490717      -0.09272996
C        1.35383204       0.66095436      -0.58121053
C       -0.02975680       1.10385542      -0.89678873
C       -0.91885146      -0.08476989      -0.53030341
C       -1.64553043       0.20443310       0.80633786
C       -0.43940594      -0.42781338       1.42552907
C       -0.01376205      -1.09170037       0.22865099
H        2.29651234      -1.24343297      -0.79242467
H        2.19016190      -0.69982172       0.87799004
H        2.08907912       1.08692592      -1.26698315
H       -0.12623324       1.37247850      -1.95280665
H       -0.30358564       2.01597522      -0.34556191
H       -1.50366818      -0.45843450      -1.36987430
H       -1.80974846       1.27073344       1.01920695
H       -2.60244171      -0.30744574       0.94917382
H       -0.17941164      -0.58777766       2.46644835
H       -0.05509668      -2.16925257       0.05534622
17
Frame=7 idx=010898 GeodesicLength=0.58486157303375 rxn_smarts="[C:1]1([H:8])([H:9])[C@@:2]2([H:10])[C:3]([H:11])([H:12])[C@:4]3([H:13])[C:5]([H:14])([H:15])[C@@:6]2([H:16])[C@:7]13[H:17]>>[C:1](=[C:2]([C:3]([C@:4]1([H:13])[C:5]([H:14])([H:15])[C:6]([H:16])=[C:7]1[H:17])([H:11])[H:12])[H:10])([H:8])[H:9]"
C        1.71294032      -0.65295039      -0.10543073
C        1.34913590       0.65853981      -0.55852112
C       -0.03129250       1.09937769      -0.89427883
C       -0.92263243      -0.08768548      -0.53289368
C       -1.64875956       0.20825827       0.80287094
C       -0.42979127      -0.40466162       1.42256429
C       -0.02806196      -1.09761970       0.23354670
H        2.30344824      -1.23749224      -0.82227982
H        2.21962466      -0.71533635       0.85759863
H        2.08551820       1.10507340      -1.23110091
H       -0.11845906       1.36388497      -1.95186554
H       -0.30032870       2.01600186      -0.34954070
H       -1.50609117      -0.46231882      -1.37286187
H       -1.82641683       1.27288459       1.00976493
H       -2.59847606      -0.31471792       0.95108193
H       -0.18477713      -0.57473913       2.46571092
H       -0.07558065      -2.17649893       0.07563487
17
Frame=8 idx=010898 GeodesicLength=0.6682757704971128 rxn_smarts="[C:1]1([H:8])([H:9])[C@@:2]2([H:10])[C:3]([H:11])([H:12])[C@:4]3([H:13])[C:5]([H:14])([H:15])[C@@:6]2([H:16])[C@:7]13[H:17]>>[C:1](=[C:2]([C:3]([C@:4]1([H:13])[C:5]([H:14])([H:15])[C:6]([H:16])=[C:7]1[H:17])([H:11])[H:12])[H:10])([H:8])[H:9]"
C        1.72823110      -0.66037133      -0.11811622
C        1.34427393       0.65520380      -0.53638927
C       -0.03268975       1.09469519      -0.89165911
C       -0.92650893      -0.09065598      -0.53544273
C       -1.65197491       0.21206554       0.79947571
C       -0.42089565      -0.38287639       1.41915105
C       -0.04282164      -1.10370843       0.23854610
H        2.31112842      -1.23053747      -0.85128635
H        2.24905015      -0.72926348       0.83708554
H        2.08135575       1.12199154      -1.19556709
H       -0.11072233       1.35531804      -1.95064606
H       -0.29642933       2.01571290      -0.35313745
H       -1.50867520      -0.46610248      -1.37582634
H       -1.84216640       1.27484997       1.00094179
H       -2.59481918      -0.32109515       0.95291931
H       -0.19030766      -0.56160655       2.46437877
H       -0.09602838      -2.18361972       0.09557235
17
Frame=9 idx=010898 GeodesicLength=0.7517609713071212 rxn_smarts="[C:1]1([H:8])([H:9])[C@@:2]2([H:10])[C:3]([H:11])([H:12])[C@:4]3([H:13])[C:5]([H:14])([H:15])[C@@:6]2([H:16])[C@:7]13[H:17]>>[C:1](=[C:2]([C:3]([C@:4]1([H:13])[C:5]([H:14])([H:15])[C:6]([H:16])=[C:7]1[H:17])([H:11])[H:12])[H:10])([H:8])[H:9]"
C        1.74383797      -0.66718742      -0.13074757
C        1.33924310       0.65096603      -0.51480423
C       -0.03396287       1.08979324      -0.88893189
C       -0.93050550      -0.09367942      -0.53796883
C       -1.65518823       0.21585600       0.79614843
C       -0.41272414      -0.36242460       1.41529422
C       -0.05810202      -1.11002814       0.24357288
H        2.31959362      -1.22260589      -0.87946714
H        2.27843581      -0.74159751       0.81656426
H        2.07662497       1.13772073      -1.16037711
H       -0.10303000       1.34676923      -1.94915995
H       -0.29189742       2.01509174      -0.35633754
H       -1.51146688      -0.46974830      -1.37879662
H       -1.85703650       1.27665202       0.99274947
H       -2.59146351      -0.32660344       0.95469379
H       -0.19582802      -0.54827982       2.46243759
H       -0.11653037      -2.19069444       0.11513025
17
Frame=10 idx=010898 GeodesicLength=0.8352605881527351 rxn_smarts="[C:1]1([H:8])([H:9])[C@@:2]2([H:10])[C:3]([H:11])([H:12])[C@:4]3([H:13])[C:5]([H:14])([H:15])[C@@:6]2([H:16])[C@:7]13[H:17]>>[C:1](=[C:2]([C:3]([C@:4]1([H:13])[C:5]([H:14])([H:15])[C:6]([H:16])=[C:7]1[H:17])([H:11])[H:12])[H:10])([H:8])[H:9]"
C        1.75978008      -0.67340854      -0.14337270
C        1.33408311       0.64580179      -0.49379945
C       -0.03510872       1.08467117      -0.88608775
C       -0.93460711      -0.09676235      -0.54045473
C       -1.65843575       0.21966016       0.79286193
C       -0.40523649      -0.34325707       1.41109425
C       -0.07389995      -1.11652775       0.24869803
H        2.32880722      -1.21374513      -0.90689329
H        2.30796865      -0.75230937       0.79589758
H        2.07135101       1.15229760      -1.12551212
H       -0.09541073       1.33824050      -1.94739792
H       -0.28671439       2.01413012      -0.35914290
H       -1.51442038      -0.47329650      -1.38175399
H       -1.87110158       1.27836915       0.98509413
H       -2.58849302      -0.33126356       0.95633955
H       -0.20142574      -0.53490001       2.46007530
H       -0.13713620      -2.19770020       0.13435406
17
Frame=11 idx=010898 GeodesicLength=0.918767632080868 rxn_smarts="[C:1]1([H:8])([H:9])[C@@:2]2([H:10])[C:3]([H:11])([H:12])[C@:4]3([H:13])[C:5]([H:14])([H:15])[C@@:6]2([H:16])[C@:7]13[H:17]>>[C:1](=[C:2]([C:3]([C@:4]1([H:13])[C:5]([H:14])([H:15])[C:6]([H:16])=[C:7]1[H:17])([H:11])[H:12])[H:10])([H:8])[H:9]"
C        1.77610274      -0.67905539      -0.15600456
C        1.32881676       0.63972918      -0.47336930
C       -0.03613476       1.07931786      -0.88313568
C       -0.93881611      -0.09990948      -0.54289744
C       -1.66173194       0.22349910       0.78960637
C       -0.39839455      -0.32530533       1.40660100
C       -0.09023755      -1.12320271       0.25392976
H        2.33875595      -1.20400107      -0.93365482
H        2.33775719      -0.76142767       0.77506832
H        2.06556439       1.16580636      -1.09090951
H       -0.08787322       1.32970023      -1.94538425
H       -0.28090069       2.01282414      -0.36157532
H       -1.51753472      -0.47676176      -1.38469454
H       -1.88441744       1.28006280       0.97793270
H       -2.58593694      -0.33509901       0.95784411
H       -0.20710096      -0.52151787       2.45736601
H       -0.15791813      -2.20465936       0.15327715
17
Frame=12 idx=010898 GeodesicLength=1.002281375853497 rxn_smarts="[C:1]1([H:8])([H:9])[C@@:2]2([H:10])[C:3]([H:11])([H:12])[C@:4]3([H:13])[C:5]([H:14])([H:15])[C@@:6]2([H:16])[C@:7]13[H:17]>>[C:1](=[C:2]([C:3]([C@:4]1([H:13])[C:5]([H:14])([H:15])[C:6]([H:16])=[C:7]1[H:17])([H:11])[H:12])[H:10])([H:8])[H:9]"
C        1.79284633      -0.68413369      -0.16865273
C        1.32345974       0.63274677      -0.45351653
C       -0.03704713       1.07371825      -0.88008703
C       -0.94313925      -0.10312395      -0.54529413
C       -1.66508008       0.22739449       0.78637733
C       -0.39216281      -0.30851559       1.40185321
C       -0.10714580      -1.13005465       0.25926940
H        2.34944514      -1.19340021      -0.95979618
H        2.36789190      -0.76892239       0.75405714
H        2.05928327       1.17829790      -1.05652341
H       -0.08042492       1.32111528      -1.94314229
H       -0.27446730       2.01116397      -0.36366241
H       -1.52082299      -0.48014843      -1.38761151
H       -1.89700328       1.28178648       0.97123463
H       -2.58381333      -0.33811122       0.95920940
H       -0.21287470      -0.50822075       2.45436692
H       -0.17894480      -2.21159225       0.17191817
17
Frame=13 idx=010898 GeodesicLength=1.0858072061700508 rxn_smarts="[C:1]1([H:8])([H:9])[C@@:2]2([H:10])[C:3]([H:11])([H:12])[C@:4]3([H:13])[C:5]([H:14])([H:15])[C@@:6]2([H:16])[C@:7]13[H:17]>>[C:1](=[C:2]([C:3]([C@:4]1([H:13])[C:5]([H:14])([H:15])[C:6]([H:16])=[C:7]1[H:17])([H:11])[H:12])[H:10])([H:8])[H:9]"
C        1.81005619      -0.68864452      -0.18133040
C        1.31802273       0.62484018      -0.43424955
C       -0.03784775       1.06785059      -0.87695509
C       -0.94758429      -0.10641202      -0.54764209
C       -1.66848225       0.23137096       0.78317328
C       -0.38650482      -0.29284268       1.39688616
C       -0.12465548      -1.13708988       0.26472025
H        2.36088069      -1.18195215      -0.98536439
H        2.39844825      -0.77474552       0.73283593
H        2.05252382       1.18981872      -1.02228720
H       -0.07306874       1.31244926      -1.94069441
H       -0.26740954       2.00913064      -0.36542780
H       -1.52430159      -0.48346432      -1.39049800
H       -1.90887941       1.28360010       0.96497646
H       -2.58213923      -0.34030206       0.96043759
H       -0.21876463      -0.49508330       2.45112211
H       -0.20029393      -2.21852400       0.19029714
17
Frame=14 idx=010898 GeodesicLength=1.169358924644479 rxn_smarts="[C:1]1([H:8])([H:9])[C@@:2]2([H:10])[C:3]([H:11])([H:12])[C@:4]3([H:13])[C:5]([H:14])([H:15])[C@@:6]2([H:16])[C@:7]13[H:17]>>[C:1](=[C:2]([C:3]([C@:4]1([H:13])[C:5]([H:14])([H:15])[C:6]([H:16])=[C:7]1[H:17])([H:11])[H:12])[H:10])([H:8])[H:9]"
C        1.82778831      -0.69261404      -0.19406246
C        1.31252066       0.61603848      -0.41553741
C       -0.03854692       1.06169443      -0.87376136
C       -0.95216041      -0.10978066      -0.54993981
C       -1.67194353       0.23545266       0.77999005
C       -0.38138129      -0.27822556       1.39172742
C       -0.14279960      -1.14430487       0.27029270
H        2.37305223      -1.16968249      -1.01049257
H        2.42955299      -0.77893997       0.71140221
H        2.04529548       1.20046778      -0.98805346
H       -0.06579160       1.30363451      -1.93808643
H       -0.25977508       2.00671787      -0.36692728
H       -1.52798340      -0.48672553      -1.39334765
H       -1.92007293       1.28556306       0.95913181
H       -2.58092599      -0.34167449       0.96153724
H       -0.22478294      -0.48214924       2.44766833
H       -0.22204599      -2.22547195       0.20845866
17
Frame=15 idx=010898 GeodesicLength=1.2529322199261295 rxn_smarts="[C:1]1([H:8])([H:9])[C@@:2]2([H:10])[C:3]([H:11])([H:12])[C@:4]3([H:13])[C:5]([H:14])([H:15])[C@@:6]2([H:16])[C@:7]13[H:17]>>[C:1](=[C:2]([C:3]([C@:4]1([H:13])[C:5]([H:14])([H:15])[C:6]([H:16])=[C:7]1[H:17])([H:11])[H:12])[H:10])([H:8])[H:9]"
C        1.84608708      -0.69603145      -0.20686166
C        1.30696032       0.60632841      -0.39737088
C       -0.03914442       1.05522854      -0.87051481
C       -0.95687583      -0.11323509      -0.55218401
C       -1.67546145       0.23965985       0.77682793
C       -0.37676418      -0.26463605       1.38640204
C       -0.16161151      -1.15170280       0.27598968
H        2.38596565      -1.15657542      -1.03522542
H        2.46127590      -0.78144319       0.68973533
H        2.03760233       1.21024018      -0.95377655
H       -0.05858537       1.29463193      -1.93533567
H       -0.25156427       2.00390540      -0.36818422
H       -1.53188514      -0.48993462      -1.39615409
H       -1.93058787       1.28772306       0.95368531
H       -2.58018671      -0.34221931       0.96251312
H       -0.23095258      -0.46948612       2.44403577
H       -0.24427196      -2.23245332       0.22641812
17
Frame=16 idx=010898 GeodesicLength=1.3365241368231893 rxn_smarts="[C:1]1([H:8])([H:9])[C@@:2]2([H:10])[C:3]([H:11])([H:12])[C@:4]3([H:13])[C:5]([H:14])([H:15])[C@@:6]2([H:16])[C@:7]13[H:17]>>[C:1](=[C:2]([C:3]([C@:4]1([H:13])[C:5]([H:14])([H:15])[C:6]([H:16])=[C:7]1[H:17])([H:11])[H:12])[H:10])([H:8])[H:9]"
C        1.86499827      -0.69888656      -0.21974224
C        1.30134729       0.59568350      -0.37974767
C       -0.03963915       1.04842397      -0.86723007
C       -0.96174228      -0.11678417      -0.55437330
C       -1.67903254       0.24401350       0.77368754
C       -0.37262765      -0.25205206       1.38092851
C       -0.18112903      -1.15929050       0.28181222
H        2.39962379      -1.14260970      -1.05961596
H        2.49368324      -0.78218720       0.66780932
H        2.02944574       1.21914994      -0.91936397
H       -0.05143885       1.28539488      -1.93246446
H       -0.24277094       2.00066361      -0.36922583
H       -1.53602980      -0.49309739      -1.39891180
H       -1.94042129       1.29012698       0.94862679
H       -2.57993499      -0.34192183       0.96337387
H       -0.23728215      -0.45713973       2.44024412
H       -0.26704965      -2.23948725       0.24419294
