17
Frame=0 idx=007811 GeodesicLength=0.0 rxn_smarts="[C:1]([C@@:2]1([H:11])[C:3]([H:12])([H:13])[C:4]([H:14])=[C:5]([H:15])[C@:6]1([O:7][H:17])[H:16])([H:8])([H:9])[H:10]>>[C:1]([C@@:2]1([H:11])[C:3]([H:12])([H:13])[C:4]([H:14])([H:17])[C@:5]2([H:15])[C@@:6]1([H:16])[O:7]2)([H:8])([H:9])[H:10]"
C        1.90375809      -0.60528843       0.12062117
C        0.61778179       0.07545695       0.55661851
C        0.14676115       1.21455629      -0.38161428
C       -1.32931407       0.90516993      -0.62391940
C       -1.76686719      -0.05864352       0.29146683
C       -0.58161144      -0.88736637       0.61076489
O       -0.83872910      -1.59200172      -0.56344813
H        1.76815491      -1.07732382      -0.85394814
H        2.72432251       0.11145114       0.04890322
H        2.19655881      -1.38277740       0.82934580
H        0.74207618       0.48121499       1.56641390
H        0.70460312       1.22168765      -1.31971742
H        0.27621760       2.19690944       0.07706073
H       -1.99971303       1.55375074      -1.17103737
H       -2.78362960      -0.38106034       0.47108370
H       -0.61096384      -1.51274277       1.50718730
H       -1.16940590      -0.26299268      -1.16578138
17
Frame=1 idx=007811 GeodesicLength=0.06942286888658095 rxn_smarts="[C:1]([C@@:2]1([H:11])[C:3]([H:12])([H:13])[C:4]([H:14])=[C:5]([H:15])[C@:6]1([O:7][H:17])[H:16])([H:8])([H:9])[H:10]>>[C:1]([C@@:2]1([H:11])[C:3]([H:12])([H:13])[C:4]([H:14])([H:17])[C@:5]2([H:15])[C@@:6]1([H:16])[O:7]2)([H:8])([H:9])[H:10]"
C        1.90584115      -0.60368689       0.12531535
C        0.61745189       0.07584132       0.55619857
C        0.14614752       1.21168643      -0.38488148
C       -1.32990521       0.90353228      -0.62712797
C       -1.76524910      -0.06332518       0.28841802
C       -0.57942822      -0.88885015       0.61130134
O       -0.84469503      -1.58939217      -0.56547558
H        1.77415512      -1.07819708      -0.84861609
H        2.72505712       0.11474967       0.05459680
H        2.19915719      -1.37849055       0.83674540
H        0.73833358       0.48479511       1.56511292
H        0.70136059       1.21053049      -1.32481422
H        0.28267566       2.19640300       0.06631242
H       -2.00568180       1.57465740      -1.13961023
H       -2.78260134      -0.38011527       0.47472824
H       -0.61039524      -1.51693731       1.50520735
H       -1.17222389      -0.27320110      -1.19341085
17
Frame=2 idx=007811 GeodesicLength=0.1388280353328441 rxn_smarts="[C:1]([C@@:2]1([H:11])[C:3]([H:12])([H:13])[C:4]([H:14])=[C:5]([H:15])[C@:6]1([O:7][H:17])[H:16])([H:8])([H:9])[H:10]>>[C:1]([C@@:2]1([H:11])[C:3]([H:12])([H:13])[C:4]([H:14])([H:17])[C@:5]2([H:15])[C@@:6]1([H:16])[O:7]2)([H:8])([H:9])[H:10]"
C        1.90787164      -0.60199272       0.13005389
C        0.61704923       0.07626149       0.55577324
C        0.14545963       1.20879427      -0.38821783
C       -1.33064105       0.90194642      -0.63043201
C       -1.76364433      -0.06779626       0.28557133
C       -0.57730559      -0.89033302       0.61176526
O       -0.85077255      -1.58642070      -0.56774576
H        1.78016769      -1.07899113      -0.84321912
H        2.72570451       0.11817292       0.06033623
H        2.20169492      -1.37407771       0.84420833
H        0.73446594       0.48842590       1.56378210
H        0.69800919       1.19924342      -1.32991876
H        0.28915666       2.19581492       0.05535116
H       -2.01073525       1.59476819      -1.10749627
H       -2.78152010      -0.37896881       0.47855102
H       -0.60984288      -1.52131217       1.50300582
H       -1.17511767      -0.28353501      -1.22136862
17
Frame=3 idx=007811 GeodesicLength=0.2082285577561465 rxn_smarts="[C:1]([C@@:2]1([H:11])[C:3]([H:12])([H:13])[C:4]([H:14])=[C:5]([H:15])[C@:6]1([O:7][H:17])[H:16])([H:8])([H:9])[H:10]>>[C:1]([C@@:2]1([H:11])[C:3]([H:12])([H:13])[C:4]([H:14])([H:17])[C@:5]2([H:15])[C@@:6]1([H:16])[O:7]2)([H:8])([H:9])[H:10]"
C        1.90984443      -0.60020577       0.13482634
C        0.61657636       0.07671791       0.55535202
C        0.14469654       1.20589195      -0.39159770
C       -1.33152742       0.90043876      -0.63378682
C       -1.76205659      -0.07204351       0.28295888
C       -0.57524411      -0.89181132       0.61216382
O       -0.85697477      -1.58306835      -0.57025282
H        1.78617620      -1.07969449      -0.83777067
H        2.72626134       0.12171821       0.06610982
H        2.20417036      -1.36954717       0.85171285
H        0.73048678       0.49209568       1.56243385
H        0.69453684       1.18784306      -1.33500903
H        0.29566548       2.19514838       0.04420799
H       -2.01484923       1.61400495      -1.07484662
H       -2.78038867      -0.37762053       0.48256444
H       -0.60930127      -1.52587302       1.50058040
H       -1.17807227      -0.29399474      -1.24964676
17
Frame=4 idx=007811 GeodesicLength=0.27762787434526676 rxn_smarts="[C:1]([C@@:2]1([H:11])[C:3]([H:12])([H:13])[C:4]([H:14])=[C:5]([H:15])[C@:6]1([O:7][H:17])[H:16])([H:8])([H:9])[H:10]>>[C:1]([C@@:2]1([H:11])[C:3]([H:12])([H:13])[C:4]([H:14])([H:17])[C@:5]2([H:15])[C@@:6]1([H:16])[O:7]2)([H:8])([H:9])[H:10]"
C        1.91175515      -0.59832733       0.13962085
C        0.61603715       0.07721010       0.55494550
C        0.14385826       1.20299255      -0.39499255
C       -1.33256866       0.89903393      -0.63714648
C       -1.76048854      -0.07605241       0.28061588
C       -0.57324338      -0.89328211       0.61250553
O       -0.86331585      -1.57931594      -0.57298858
H        1.79216331      -1.08029603      -0.83228656
H        2.72672577       0.12538097       0.07190489
H        2.20658283      -1.36491023       0.85923471
H        0.72641248       0.49579074       1.56108221
H        0.69093353       1.17634975      -1.34005986
H        0.30220419       2.19440776       0.03291951
H       -2.01801413       1.63229249      -1.04183362
H       -2.77921171      -0.37606799       0.48678355
H       -0.60876363      -1.53062688       1.49793011
H       -1.18106677      -0.30457937      -1.27823508
17
Frame=5 idx=007811 GeodesicLength=0.3470514769467937 rxn_smarts="[C:1]([C@@:2]1([H:11])[C:3]([H:12])([H:13])[C:4]([H:14])=[C:5]([H:15])[C@:6]1([O:7][H:17])[H:16])([H:8])([H:9])[H:10]>>[C:1]([C@@:2]1([H:11])[C:3]([H:12])([H:13])[C:4]([H:14])([H:17])[C@:5]2([H:15])[C@@:6]1([H:16])[O:7]2)([H:8])([H:9])[H:10]"
C        1.91360092      -0.59635944       0.14442688
C        0.61543623       0.07773724       0.55456405
C        0.14294626       1.20010848      -0.39837477
C       -1.33376587       0.89775982      -0.64045844
C       -1.75894237      -0.07981376       0.27857252
C       -0.57130237      -0.89474226       0.61279842
O       -0.86980689      -1.57514777      -0.57594144
H        1.79811404      -1.08078585      -0.82678117
H        2.72709725       0.12915584       0.07771068
H        2.20893243      -1.36017853       0.86675207
H        0.72225968       0.49949735       1.55974146
H        0.68718688       1.16478081      -1.34504818
H        0.30877924       2.19359629       0.02151881
H       -2.02023774       1.64957957      -1.00862586
H       -2.77799200      -0.37431484       0.49122088
H       -0.60822404      -1.53557663       1.49505343
H       -1.18408165      -0.31529631      -1.30712934
17
Frame=6 idx=007811 GeodesicLength=0.4164998167289522 rxn_smarts="[C:1]([C@@:2]1([H:11])[C:3]([H:12])([H:13])[C:4]([H:14])=[C:5]([H:15])[C@:6]1([O:7][H:17])[H:16])([H:8])([H:9])[H:10]>>[C:1]([C@@:2]1([H:11])[C:3]([H:12])([H:13])[C:4]([H:14])([H:17])[C@:5]2([H:15])[C@@:6]1([H:16])[O:7]2)([H:8])([H:9])[H:10]"
C        1.91537914      -0.59430574       0.14923314
C        0.61477879       0.07829776       0.55421810
C        0.14196211       1.19725222      -0.40171633
C       -1.33512001       0.89663476      -0.64368007
C       -1.75741858      -0.08331382       0.27686375
C       -0.56941963      -0.89618983       0.61305133
O       -0.87646175      -1.57054712      -0.57910038
H        1.80401280      -1.08115547      -0.82127026
H        2.72737618       0.13303555       0.08351554
H        2.21122020      -1.35536575       0.87424164
H        0.71804618       0.50320111       1.55842630
H        0.68328940       1.15315759      -1.34994911
H        0.31539008       2.19271873       0.01004342
H       -2.02154187       1.66582133      -0.97539797
H       -2.77673361      -0.37235855       0.49589309
H       -0.60767511      -1.54072940       1.49195044
H       -1.18708431      -0.32615337      -1.33632264
17
Frame=7 idx=007811 GeodesicLength=0.4859668096311672 rxn_smarts="[C:1]([C@@:2]1([H:11])[C:3]([H:12])([H:13])[C:4]([H:14])=[C:5]([H:15])[C@:6]1([O:7][H:17])[H:16])([H:8])([H:9])[H:10]>>[C:1]([C@@:2]1([H:11])[C:3]([H:12])([H:13])[C:4]([H:14])([H:17])[C@:5]2([H:15])[C@@:6]1([H:16])[O:7]2)([H:8])([H:9])[H:10]"
C        1.91708910      -0.59217036       0.15403055
C        0.61407042       0.07888958       0.55391747
C        0.14090852       1.19443424      -0.40499232
C       -1.33662860       0.89567355      -0.64677153
C       -1.75591678      -0.08654404       0.27551810
C       -0.56759269      -0.89762394       0.61327203
O       -0.88329088      -1.56550037      -0.58245136
H        1.80984743      -1.08139853      -0.81576707
H        2.72756458       0.13701262       0.08931030
H        2.21344834      -1.35048470       0.88168419
H        0.71378893       0.50688885       1.55714996
H        0.67923433       1.14149782      -1.35474028
H        0.32203574       2.19177773      -0.00147537
H       -2.02196144       1.68100001      -0.94230726
H       -2.77543873      -0.37020113       0.50081451
H       -0.60711069      -1.54608885       1.48861931
H       -1.19004760      -0.33716248      -1.36581124
17
Frame=8 idx=007811 GeodesicLength=0.5554544061478924 rxn_smarts="[C:1]([C@@:2]1([H:11])[C:3]([H:12])([H:13])[C:4]([H:14])=[C:5]([H:15])[C@:6]1([O:7][H:17])[H:16])([H:8])([H:9])[H:10]>>[C:1]([C@@:2]1([H:11])[C:3]([H:12])([H:13])[C:4]([H:14])([H:17])[C@:5]2([H:15])[C@@:6]1([H:16])[O:7]2)([H:8])([H:9])[H:10]"
C        1.91872977      -0.58995779       0.15880935
C        0.61331635       0.07951054       0.55367102
C        0.13978766       1.19166484      -0.40817906
C       -1.33828946       0.89489101      -0.64969479
C       -1.75443776      -0.08949476       0.27456236
C       -0.56581961      -0.89904374       0.61346806
O       -0.89030577      -1.55999652      -0.58598062
H        1.81560554      -1.08150904      -0.81028563
H        2.72766423       0.14107940       0.09508567
H        2.21561893      -1.34554881       0.88905988
H        0.70950434       0.51054769       1.55592550
H        0.67501518       1.12981945      -1.35940100
H        0.32871509       2.19077743      -0.01300590
H       -2.02153797       1.69510852      -0.90950188
H       -2.77411175      -0.36784259       0.50599861
H       -0.60652380      -1.55165965       1.48506116
H       -1.19293096      -0.34834599      -1.39559272
17
Frame=9 idx=007811 GeodesicLength=0.6250110098104851 rxn_smarts="[C:1]([C@@:2]1([H:11])[C:3]([H:12])([H:13])[C:4]([H:14])=[C:5]([H:15])[C@:6]1([O:7][H:17])[H:16])([H:8])([H:9])[H:10]>>[C:1]([C@@:2]1([H:11])[C:3]([H:12])([H:13])[C:4]([H:14])([H:17])[C@:5]2([H:15])[C@@:6]1([H:16])[O:7]2)([H:8])([H:9])[H:10]"
C        1.92030291      -0.58767753       0.16356472
C        0.61252274       0.08015824       0.55348028
C        0.13860707       1.18894662      -0.41127177
C       -1.34008542       0.89427274      -0.65243782
C       -1.75297403      -0.09217116       0.27399864
C       -0.56409905      -0.90044560       0.61364532
O       -0.89750415      -1.55404828      -0.58964877
H        1.82128077      -1.08149523      -0.80483140
H        2.72768041       0.14522224       0.10083430
H        2.21773128      -1.34057083       0.89636324
H        0.70520591       0.51417474       1.55475448
H        0.67063964       1.11813167      -1.36392423
H        0.33541475       2.18971606      -0.02453824
H       -2.02039893       1.70826436      -0.87699812
H       -2.77275238      -0.36529261       0.51142733
H       -0.60592101      -1.55741901       1.48128279
H       -1.19565050      -0.35976643      -1.42570075
17
Frame=10 idx=007811 GeodesicLength=0.6945886909184266 rxn_smarts="[C:1]([C@@:2]1([H:11])[C:3]([H:12])([H:13])[C:4]([H:14])=[C:5]([H:15])[C@:6]1([O:7][H:17])[H:16])([H:8])([H:9])[H:10]>>[C:1]([C@@:2]1([H:11])[C:3]([H:12])([H:13])[C:4]([H:14])([H:17])[C@:5]2([H:15])[C@@:6]1([H:16])[O:7]2)([H:8])([H:9])[H:10]"
C        1.92180633      -0.58533009       0.16828706
C        0.61169221       0.08083119       0.55335520
C        0.13736401       1.18629096      -0.41424391
C       -1.34202196       0.89384239      -0.65496581
C       -1.75153138      -0.09455879       0.27385817
C       -0.56242936      -0.90183158       0.61380882
O       -0.90490335      -1.54763356      -0.59346014
H        1.82686135      -1.08134468      -0.79942002
H        2.72761236       0.14943904       0.10654908
H        2.21978899      -1.33556074       0.90357191
H        0.70090623       0.51775520       1.55365268
H        0.66609327       1.10645295      -1.36828762
H        0.34213738       2.18859963      -0.03603842
H       -2.01853064       1.72041976      -0.84496279
H       -2.77136680      -0.36254502       0.51713144
H       -0.60529082      -1.56338449       1.47727845
H       -1.19818784      -0.37144219      -1.45611409
17
Frame=11 idx=007811 GeodesicLength=0.7641832526617061 rxn_smarts="[C:1]([C@@:2]1([H:11])[C:3]([H:12])([H:13])[C:4]([H:14])=[C:5]([H:15])[C@:6]1([O:7][H:17])[H:16])([H:8])([H:9])[H:10]>>[C:1]([C@@:2]1([H:11])[C:3]([H:12])([H:13])[C:4]([H:14])([H:17])[C@:5]2([H:15])[C@@:6]1([H:16])[O:7]2)([H:8])([H:9])[H:10]"
C        1.92324092      -0.58292074       0.17297060
C        0.61082872       0.08152723       0.55329989
C        0.13606120       1.18370238      -0.41708415
C       -1.34409149       0.89359864      -0.65726396
C       -1.75010811      -0.09665636       0.27415262
C       -0.56080855      -0.90320169       0.61396300
O       -0.91250751      -1.54075074      -0.59739633
H        1.83234120      -1.08105768      -0.79405991
H        2.72746291       0.15372173       0.11222417
H        2.22179389      -1.33052912       0.91067562
H        0.69661605       0.52128220       1.55262651
H        0.66137394       1.09479439      -1.37248054
H        0.34887689       2.18742715      -0.04749056
H       -2.01600536       1.73164613      -0.81345840
H       -2.76995720      -0.35960395       0.52311468
H       -0.60463193      -1.56955319       1.47304921
H       -1.20048555      -0.38342637      -1.48684246
17
Frame=12 idx=007811 GeodesicLength=0.8337905002841637 rxn_smarts="[C:1]([C@@:2]1([H:11])[C:3]([H:12])([H:13])[C:4]([H:14])=[C:5]([H:15])[C@:6]1([O:7][H:17])[H:16])([H:8])([H:9])[H:10]>>[C:1]([C@@:2]1([H:11])[C:3]([H:12])([H:13])[C:4]([H:14])([H:17])[C@:5]2([H:15])[C@@:6]1([H:16])[O:7]2)([H:8])([H:9])[H:10]"
C        1.92460521      -0.58045517       0.17760631
C        0.60993512       0.08224476       0.55331763
C        0.13469912       1.18118770      -0.41978052
C       -1.34628916       0.89354174      -0.65932041
C       -1.74870431      -0.09845820       0.27489171
C       -0.55923680      -0.90455464       0.61411212
O       -0.92032511      -1.53339958      -0.60143723
H        1.83771009      -1.08063305      -0.78876393
H        2.72723346       0.15806163       0.11785113
H        2.22374579      -1.32548872       0.91765915
H        0.69234661       0.52474868       1.55168233
H        0.65648018       1.08317231      -1.37649108
H        0.35562305       2.18620210      -0.05887356
H       -2.01288376       1.74199731      -0.78253698
H       -2.76852823      -0.35646635       0.52938082
H       -0.60394510      -1.57591860       1.46859775
H       -1.20246618      -0.39578192      -1.51789524
17
Frame=13 idx=007811 GeodesicLength=0.9034113243684845 rxn_smarts="[C:1]([C@@:2]1([H:11])[C:3]([H:12])([H:13])[C:4]([H:14])=[C:5]([H:15])[C@:6]1([O:7][H:17])[H:16])([H:8])([H:9])[H:10]>>[C:1]([C@@:2]1([H:11])[C:3]([H:12])([H:13])[C:4]([H:14])([H:17])[C@:5]2([H:15])[C@@:6]1([H:16])[O:7]2)([H:8])([H:9])[H:10]"
C        1.92589791      -0.57793871       0.18218663
C        0.60901347       0.08298251       0.55341047
C        0.13327829       1.17875225      -0.42232427
C       -1.34860970       0.89367309      -0.66112453
C       -1.74731940      -0.09996361       0.27608067
C       -0.55771481      -0.90588875       0.61425890
O       -0.92836277      -1.52558074      -0.60556211
H        1.84295968      -1.08007053      -0.78354306
H        2.72692533       0.16245061       0.12342344
H        2.22564409      -1.32045078       0.92451004
H        0.68810707       0.52814917       1.55082479
H        0.65140884       1.07159917      -1.38031073
H        0.36236864       2.18492632      -0.07017307
H       -2.00922915       1.75154644      -0.75222685
H       -2.76708299      -0.35313425       0.53593121
H       -0.60323314      -1.58247138       1.46392441
H       -1.20405138      -0.40858080      -1.54928595
17
Frame=14 idx=007811 GeodesicLength=0.9730275180938307 rxn_smarts="[C:1]([C@@:2]1([H:11])[C:3]([H:12])([H:13])[C:4]([H:14])=[C:5]([H:15])[C@:6]1([O:7][H:17])[H:16])([H:8])([H:9])[H:10]>>[C:1]([C@@:2]1([H:11])[C:3]([H:12])([H:13])[C:4]([H:14])([H:17])[C@:5]2([H:15])[C@@:6]1([H:16])[O:7]2)([H:8])([H:9])[H:10]"
C        1.92711718      -0.57537592       0.18670367
C        0.60806468       0.08373947       0.55357928
C        0.13179830       1.17640141      -0.42470823
C       -1.35104991       0.89399231      -0.66267032
C       -1.74595433      -0.10116926       0.27772333
C       -0.55624401      -0.90720270       0.61440445
O       -0.93662761      -1.51729419      -0.60975464
H        1.84808196      -1.07936918      -0.77840866
H        2.72653912       0.16688149       0.12893448
H        2.22748749      -1.31542552       0.93121532
H        0.68390442       0.53147866       1.55005714
H        0.64615756       1.06008777      -1.38393261
H        0.36910477       2.18360255      -0.08137491
H       -2.00509554       1.76036270      -0.72254374
H       -2.76562660      -0.34960431       0.54276867
H       -0.60249906      -1.58920514       1.45902908
H       -1.20515841      -0.42190013      -1.58102232
17
Frame=15 idx=007811 GeodesicLength=1.042629882520695 rxn_smarts="[C:1]([C@@:2]1([H:11])[C:3]([H:12])([H:13])[C:4]([H:14])=[C:5]([H:15])[C@:6]1([O:7][H:17])[H:16])([H:8])([H:9])[H:10]>>[C:1]([C@@:2]1([H:11])[C:3]([H:12])([H:13])[C:4]([H:14])([H:17])[C@:5]2([H:15])[C@@:6]1([H:16])[O:7]2)([H:8])([H:9])[H:10]"
C        1.92826001      -0.57277137       0.19114882
C        0.60708869       0.08451523       0.55382408
C        0.13025794       1.17414106      -0.42692624
C       -1.35360733       0.89450180      -0.66395143
C       -1.74461010      -0.10207297       0.27982210
C       -0.55482732      -0.90849366       0.61454893
O       -0.94512795      -1.50853865      -0.61399727
H        1.85306772      -1.07852799      -0.77337315
H        2.72607461       0.17134702       0.13437749
H        2.22927317      -1.31042380       0.93776172
H        0.67974497       0.53473291       1.54938220
H        0.64072228       1.04865125      -1.38735096
H        0.37582294       2.18223392      -0.09246716
H       -2.00053413       1.76851874      -0.69348957
H       -2.76416328      -0.34587444       0.54989599
H       -0.60174802      -1.59611167       1.45390941
H       -1.20569421      -0.43582741      -1.61311493
17
Frame=16 idx=007811 GeodesicLength=1.112207590972599 rxn_smarts="[C:1]([C@@:2]1([H:11])[C:3]([H:12])([H:13])[C:4]([H:14])=[C:5]([H:15])[C@:6]1([O:7][H:17])[H:16])([H:8])([H:9])[H:10]>>[C:1]([C@@:2]1([H:11])[C:3]([H:12])([H:13])[C:4]([H:14])([H:17])[C@:5]2([H:15])[C@@:6]1([H:16])[O:7]2)([H:8])([H:9])[H:10]"
C        1.92932215      -0.57012972       0.19551138
C        0.60608465       0.08530956       0.55414445
C        0.12865477       1.17197847      -0.42897147
C       -1.35628131       0.89520616      -0.66496100
C       -1.74328876      -0.10267071       0.28237880
C       -0.55346883      -0.90975865       0.61469180
O       -0.95387393      -1.49931156      -0.61827346
H        1.85790585      -1.07754469      -0.76845176
H        2.72553074       0.17583947       0.13974452
H        2.23099720      -1.30545791       0.94413243
H        0.67563502       0.53790704       1.54880266
H        0.63509787       1.03730515      -1.39055987
H        0.38251431       2.18082510      -0.10343537
H       -1.99559258       1.77608205      -0.66506148
H       -2.76269867      -0.34193845       0.55731723
H       -0.60098697      -1.60318102       1.44856280
H       -1.20555150      -0.45046028      -1.64557165
