10
Frame=0 idx=005474 GeodesicLength=0.0 rxn_smarts="[C:1]([c:2]1[n:3][o:4][c:5]([H:10])[n:6]1)([H:7])([H:8])[H:9]>>[C:1]([N:6]([C:2]#[N:3])[C:5](=[O:4])[H:10])([H:7])([H:8])[H:9]"
C       -1.25475766      -0.09779515       0.23555507
C        0.00041531       0.08745894      -1.22231813
N       -0.50867967      -0.42272459      -2.14682090
O        1.49255628      -1.00311139       0.85112236
C        1.52492235       0.16453760       0.53441019
N        0.67070213       0.82092178      -0.32289770
H       -2.01124930      -0.58558971      -0.35848923
H       -0.69100601      -0.73717642       0.90556326
H       -1.47996262       0.90636806       0.56408941
H        2.25705918       0.86711090       0.95978567
10
Frame=1 idx=005474 GeodesicLength=0.1355283274217073 rxn_smarts="[C:1]([c:2]1[n:3][o:4][c:5]([H:10])[n:6]1)([H:7])([H:8])[H:9]>>[C:1]([N:6]([C:2]#[N:3])[C:5](=[O:4])[H:10])([H:7])([H:8])[H:9]"
C       -1.27346159      -0.07060514       0.23934059
C       -0.01450021       0.10339673      -1.20274842
N       -0.40573886      -0.52768452      -2.11200527
O        1.54798944      -1.02467149       0.73110297
C        1.54464156       0.16742066       0.50453503
N        0.63667228       0.83129223      -0.28421096
H       -2.03668657      -0.53764794      -0.36419395
H       -0.73051309      -0.73263530       0.90534098
H       -1.50848119       0.92204458       0.59647354
H        2.24007824       0.86909019       0.98636550
10
Frame=2 idx=005474 GeodesicLength=0.2713148854355285 rxn_smarts="[C:1]([c:2]1[n:3][o:4][c:5]([H:10])[n:6]1)([H:7])([H:8])[H:9]>>[C:1]([N:6]([C:2]#[N:3])[C:5](=[O:4])[H:10])([H:7])([H:8])[H:9]"
C       -1.29288661      -0.04628808       0.24202997
C       -0.02652908       0.10563617      -1.18300762
N       -0.30960130      -0.61055122      -2.07190982
O        1.60574350      -1.03546490       0.61795438
C        1.56331496       0.17230915       0.47776007
N        0.60487379       0.83137720      -0.24745840
H       -2.06153802      -0.49240601      -0.37189149
H       -0.77490108      -0.72947450       0.90731405
H       -1.53605213       0.93626670       0.62247599
H        2.22757596       0.86859549       1.00673287
10
Frame=3 idx=005474 GeodesicLength=0.4069081581971369 rxn_smarts="[C:1]([c:2]1[n:3][o:4][c:5]([H:10])[n:6]1)([H:7])([H:8])[H:9]>>[C:1]([N:6]([C:2]#[N:3])[C:5](=[O:4])[H:10])([H:7])([H:8])[H:9]"
C       -1.31304323      -0.02405615       0.24363113
C       -0.03564603       0.09694939      -1.16166794
N       -0.22111784      -0.67675344      -2.03103477
O        1.66725232      -1.03737038       0.50938930
C        1.58173649       0.17819080       0.45419907
N        0.57533199       0.82277569      -0.21072194
H       -2.08594008      -0.44962901      -0.38097949
H       -0.82471483      -0.72648197       0.91203248
H       -1.56351267       0.94993018       0.64251163
H        2.21965388       0.86644489       1.02264054
10
Frame=4 idx=005474 GeodesicLength=0.5421123781870628 rxn_smarts="[C:1]([c:2]1[n:3][o:4][c:5]([H:10])[n:6]1)([H:7])([H:8])[H:9]>>[C:1]([N:6]([C:2]#[N:3])[C:5](=[O:4])[H:10])([H:7])([H:8])[H:9]"
C       -1.33420743      -0.00333048       0.24427012
C       -0.04242469       0.07951689      -1.13767449
N       -0.13916581      -0.73108617      -1.99101256
O        1.73346764      -1.03097136       0.40296751
C        1.60030782       0.18437163       0.43375084
N        0.54778708       0.80625994      -0.17229748
H       -2.11026944      -0.40828477      -0.39153684
H       -0.88076815      -0.72328644       0.91926141
H       -1.59125447       0.96359740       0.65749334
H        2.21652745       0.86321336       1.03477813
10
Frame=5 idx=005474 GeodesicLength=0.6768662095968926 rxn_smarts="[C:1]([c:2]1[n:3][o:4][c:5]([H:10])[n:6]1)([H:7])([H:8])[H:9]>>[C:1]([N:6]([C:2]#[N:3])[C:5](=[O:4])[H:10])([H:7])([H:8])[H:9]"
C       -1.35693460       0.01609244       0.24403510
C       -0.04728030       0.05459510      -1.10975425
N       -0.06199467      -0.77607105      -1.95238170
O        1.80429244      -1.01613140       0.29733105
C        1.61918006       0.19005883       0.41675055
N        0.52180924       0.78157399      -0.12989994
H       -2.13471814      -0.36758999      -0.40420116
H       -0.94449032      -0.71990993       0.92864620
H       -1.61985978       0.97751590       0.66798288
H        2.21999607       0.85986612       1.04149128
10
Frame=6 idx=005474 GeodesicLength=0.8111780655751024 rxn_smarts="[C:1]([c:2]1[n:3][o:4][c:5]([H:10])[n:6]1)([H:7])([H:8])[H:9]>>[C:1]([N:6]([C:2]#[N:3])[C:5](=[O:4])[H:10])([H:7])([H:8])[H:9]"
C       -1.38110772       0.03465643       0.24315519
C       -0.05067440       0.02174524      -1.07714690
N        0.01084810      -0.81509940      -1.91493266
O        1.88092033      -0.99137002       0.18933601
C        1.63876353       0.19479804       0.40264276
N        0.49749084       0.74767021      -0.08273582
H       -2.15949648      -0.32537656      -0.41922375
H       -1.01674080      -0.71641391       0.93922404
H       -1.64802977       0.99221624       0.67495184
H        2.22802637       0.85717373       1.04472928
10
Frame=7 idx=005474 GeodesicLength=0.9448768844109577 rxn_smarts="[C:1]([c:2]1[n:3][o:4][c:5]([H:10])[n:6]1)([H:7])([H:8])[H:9]>>[C:1]([N:6]([C:2]#[N:3])[C:5](=[O:4])[H:10])([H:7])([H:8])[H:9]"
C       -1.40734976       0.05216136       0.24167970
C       -0.05270524      -0.01961476      -1.03793174
N        0.08137433      -0.84788126      -1.87899010
O        1.96162950      -0.95554794       0.07908273
C        1.65897647       0.19716720       0.39279526
N        0.47442877       0.70198101      -0.02726436
H       -2.18423065      -0.28039636      -0.43804349
H       -1.10016321      -0.71345368       0.95014358
H       -1.67575113       1.00768807       0.67898556
H        2.24379091       0.85789636       1.03954287
10
Frame=8 idx=005474 GeodesicLength=1.077643274517229 rxn_smarts="[C:1]([c:2]1[n:3][o:4][c:5]([H:10])[n:6]1)([H:7])([H:8])[H:9]>>[C:1]([N:6]([C:2]#[N:3])[C:5](=[O:4])[H:10])([H:7])([H:8])[H:9]"
C       -1.43585530       0.06847127       0.23966170
C       -0.05328796      -0.07150882      -0.98971790
N        0.15123782      -0.87384519      -1.84483118
O        2.04496502      -0.90707089      -0.03365288
C        1.67943385       0.19460188       0.39000082
N        0.45253327       0.63982873       0.04082834
H       -2.20811654      -0.22935979      -0.46260511
H       -1.19812290      -0.71216969       0.95931614
H       -1.70130276       1.02373727       0.68164484
H        2.26851552       0.86731521       1.01935525
10
Frame=9 idx=005474 GeodesicLength=1.208221778616355 rxn_smarts="[C:1]([c:2]1[n:3][o:4][c:5]([H:10])[n:6]1)([H:7])([H:8])[H:9]>>[C:1]([N:6]([C:2]#[N:3])[C:5](=[O:4])[H:10])([H:7])([H:8])[H:9]"
C       -1.46303198       0.08471108       0.23819768
C       -0.05370852      -0.14082425      -0.93257057
N        0.21842730      -0.89720920      -1.81348942
O        2.13056950      -0.83796624      -0.15647116
C        1.70220611       0.19030153       0.38557159
N        0.43335443       0.55699713       0.11752968
H       -2.22811954      -0.17127448      -0.48929454
H       -1.30803911      -0.70766972       0.96821858
H       -1.71744825       1.04309287       0.68169365
H        2.28579007       0.87984126       1.00061451
10
Frame=10 idx=005474 GeodesicLength=1.333702435501012 rxn_smarts="[C:1]([c:2]1[n:3][o:4][c:5]([H:10])[n:6]1)([H:7])([H:8])[H:9]>>[C:1]([N:6]([C:2]#[N:3])[C:5](=[O:4])[H:10])([H:7])([H:8])[H:9]"
C       -1.48602372       0.10073789       0.23752356
C       -0.05456676      -0.23678473      -0.86369313
N        0.28252000      -0.91762244      -1.78632392
O        2.21183153      -0.74085523      -0.29044270
C        1.72563744       0.18714989       0.37647793
N        0.41743737       0.44547009       0.20469108
H       -2.23988912      -0.10304207      -0.51867881
H       -1.43109247      -0.69816610       0.97546573
H       -1.71642186       1.06689715       0.67940159
H        2.29056758       0.89621554       0.98557866
10
Frame=11 idx=005474 GeodesicLength=1.4471220701525662 rxn_smarts="[C:1]([c:2]1[n:3][o:4][c:5]([H:10])[n:6]1)([H:7])([H:8])[H:9]>>[C:1]([N:6]([C:2]#[N:3])[C:5](=[O:4])[H:10])([H:7])([H:8])[H:9]"
C       -1.49719015       0.11562014       0.23736684
C       -0.05557113      -0.36416943      -0.78525899
N        0.34015656      -0.93117154      -1.76382572
O        2.27074911      -0.61698039      -0.42658496
C        1.74178228       0.18938129       0.36097809
N        0.40626254       0.30328890       0.29839274
H       -2.23449714      -0.02522127      -0.54987097
H       -1.55925397      -0.68128905       0.97814535
H       -1.68839566       1.09268325       0.67641032
H        2.27595756       0.91785809       0.97424728
10
Frame=12 idx=005474 GeodesicLength=1.549630032252968 rxn_smarts="[C:1]([c:2]1[n:3][o:4][c:5]([H:10])[n:6]1)([H:7])([H:8])[H:9]>>[C:1]([N:6]([C:2]#[N:3])[C:5](=[O:4])[H:10])([H:7])([H:8])[H:9]"
C       -1.48792824       0.12719582       0.23641833
C       -0.05546329      -0.51323696      -0.70570274
N        0.38287521      -0.93880380      -1.74101857
O        2.29036307      -0.47373476      -0.55452448
C        1.74018253       0.19619965       0.34415591
N        0.40209338       0.13754743       0.39197476
H       -2.20326182       0.05905985      -0.58181802
H       -1.67761531      -0.65493134       0.97209471
H       -1.62574310       1.11414383       0.67396637
H        2.23449757       0.94656028       0.96445374
10
Frame=13 idx=005474 GeodesicLength=1.6602552006172695 rxn_smarts="[C:1]([c:2]1[n:3][o:4][c:5]([H:10])[n:6]1)([H:7])([H:8])[H:9]>>[C:1]([N:6]([C:2]#[N:3])[C:5](=[O:4])[H:10])([H:7])([H:8])[H:9]"
C       -1.45683202       0.13689324       0.23513665
C       -0.05623453      -0.65070197      -0.64434149
N        0.41499383      -0.97611322      -1.70705186
O        2.26171897      -0.31405081      -0.66899399
C        1.71374557       0.20991157       0.32676110
N        0.40404580      -0.02947972       0.47070283
H       -2.14443685       0.15061983      -0.60935752
H       -1.77062589      -0.62545958       0.94870557
H       -1.53161252       1.12652780       0.68471422
H        2.16523765       0.97185285       0.96372451
10
Frame=14 idx=005474 GeodesicLength=1.7818872081670525 rxn_smarts="[C:1]([c:2]1[n:3][o:4][c:5]([H:10])[n:6]1)([H:7])([H:8])[H:9]>>[C:1]([N:6]([C:2]#[N:3])[C:5](=[O:4])[H:10])([H:7])([H:8])[H:9]"
C       -1.41513621       0.14234886       0.23546436
C       -0.05692824      -0.76305400      -0.60027547
N        0.44529557      -1.01512120      -1.67373619
O        2.19894195      -0.18052641      -0.75313174
C        1.67458008       0.22165632       0.31272005
N        0.40966110      -0.16173777       0.52370245
H       -2.07263328       0.23176224      -0.62855587
H       -1.83423940      -0.59523324       0.92063233
H       -1.43986824       1.12676719       0.70198117
H        2.09032668       0.99313801       0.96119890
10
Frame=15 idx=005474 GeodesicLength=1.9061393909100466 rxn_smarts="[C:1]([c:2]1[n:3][o:4][c:5]([H:10])[n:6]1)([H:7])([H:8])[H:9]>>[C:1]([N:6]([C:2]#[N:3])[C:5](=[O:4])[H:10])([H:7])([H:8])[H:9]"
C       -1.37370828       0.14464878       0.23649585
C       -0.05718235      -0.85400810      -0.56563363
N        0.47646568      -1.05408812      -1.64054583
O        2.11961139      -0.06770920      -0.82006507
C        1.63423132       0.23155775       0.30021082
N        0.41631977      -0.25957143       0.56030472
H       -1.99908341       0.29925215      -0.64277844
H       -1.88094548      -0.56573540       0.89041125
H       -1.36303130       1.12098190       0.72156236
H        2.02732266       1.00467168       0.96003796
10
Frame=16 idx=005474 GeodesicLength=2.0306812847195634 rxn_smarts="[C:1]([c:2]1[n:3][o:4][c:5]([H:10])[n:6]1)([H:7])([H:8])[H:9]>>[C:1]([N:6]([C:2]#[N:3])[C:5](=[O:4])[H:10])([H:7])([H:8])[H:9]"
C       -1.33486922       0.14457333       0.23856238
C       -0.05692146      -0.92821136      -0.53732553
N        0.50880809      -1.08697555      -1.60858070
O        2.03461192       0.02275462      -0.87252995
C        1.59609335       0.23851209       0.28900578
N        0.42300062      -0.33440710       0.58757199
H       -1.92638759       0.35721350      -0.65268130
H       -1.91772221      -0.53843258       0.85803044
H       -1.30027423       1.11111261       0.74344249
H        1.97366073       1.01386043       0.95450439
