16
Frame=0 idx=008942 GeodesicLength=0.0 rxn_smarts="[C:1]([C@@:2]1([H:11])[C:3]([H:12])([H:13])[N:4]([C:5]([H:14])([H:15])[H:16])[C:6]1=[O:7])([H:8])([H:9])[H:10]>>[C:1]([C@@:2]1([H:11])[C-:3]([H:12])[N+:4]([C:5]([H:14])([H:15])[H:16])=[C:6]1[O:7][H:13])([H:8])([H:9])[H:10]"
C        2.33686671      -0.19588706       0.10145648
C        1.04961541       0.52945358      -0.17043289
C       -0.14277184      -0.10398890      -1.00629060
N       -1.09384473       0.57945525      -0.11172117
C       -2.43474348       0.11436493       0.14964450
C       -0.07918855       0.41189740       0.79301099
O       -0.12053679      -0.73084576       1.40068398
H        2.15548512      -1.19438402       0.49535263
H        2.94032779       0.35707480       0.82390235
H        2.91560975      -0.28540064      -0.81904862
H        1.20666603       1.53257217      -0.57081525
H       -0.22601411       0.21800914      -2.05296232
H       -0.16060955      -1.24948662       0.32779700
H       -2.88090979       0.73440605       0.92655419
H       -3.02422206       0.21296801      -0.76076457
H       -2.44172987      -0.93020835       0.47363330
16
Frame=1 idx=008942 GeodesicLength=0.08039985159108604 rxn_smarts="[C:1]([C@@:2]1([H:11])[C:3]([H:12])([H:13])[N:4]([C:5]([H:14])([H:15])[H:16])[C:6]1=[O:7])([H:8])([H:9])[H:10]>>[C:1]([C@@:2]1([H:11])[C-:3]([H:12])[N+:4]([C:5]([H:14])([H:15])[H:16])=[C:6]1[O:7][H:13])([H:8])([H:9])[H:10]"
C        2.33859285      -0.18861860       0.09705864
C        1.04554772       0.52888827      -0.17174132
C       -0.13963988      -0.12079547      -1.00142674
N       -1.08875193       0.56384131      -0.10992138
C       -2.43801458       0.12093280       0.14432910
C       -0.07865392       0.40860606       0.80218695
O       -0.11880800      -0.72796279       1.42250111
H        2.16652084      -1.19395531       0.47800698
H        2.93458278       0.36125678       0.82797781
H        2.92105656      -0.26485682      -0.82232645
H        1.20010047       1.53302685      -0.57069361
H       -0.22939981       0.19422186      -2.04932192
H       -0.15288416      -1.26829295       0.33416953
H       -2.86966445       0.73618904       0.93310684
H       -3.02417125       0.24582770      -0.76520824
H       -2.46641322      -0.92830872       0.45130270
16
Frame=2 idx=008942 GeodesicLength=0.16070016765841283 rxn_smarts="[C:1]([C@@:2]1([H:11])[C:3]([H:12])([H:13])[N:4]([C:5]([H:14])([H:15])[H:16])[C:6]1=[O:7])([H:8])([H:9])[H:10]>>[C:1]([C@@:2]1([H:11])[C-:3]([H:12])[N+:4]([C:5]([H:14])([H:15])[H:16])=[C:6]1[O:7][H:13])([H:8])([H:9])[H:10]"
C        2.34019410      -0.18130223       0.09259759
C        1.04133784       0.52821529      -0.17310404
C       -0.13652093      -0.13780026      -0.99635226
N       -1.08373601       0.54780212      -0.10779163
C       -2.44116807       0.12760159       0.13888369
C       -0.07810067       0.40538604       0.81143054
O       -0.11694299      -0.72460652       1.44480236
H        2.17762942      -1.19314501       0.46079410
H        2.92886333       0.36548351       0.83169325
H        2.92607744      -0.24442849      -0.82564150
H        1.19328667       1.53334914      -0.57073170
H       -0.23291675       0.17013197      -2.04541053
H       -0.14481686      -1.28738122       0.34062573
H       -2.85849916       0.73694552       0.93983629
H       -3.02320550       0.27963373      -0.76944446
H       -2.49148185      -0.92588519       0.42781256
16
Frame=3 idx=008942 GeodesicLength=0.2409297295937613 rxn_smarts="[C:1]([C@@:2]1([H:11])[C:3]([H:12])([H:13])[N:4]([C:5]([H:14])([H:15])[H:16])[C:6]1=[O:7])([H:8])([H:9])[H:10]>>[C:1]([C@@:2]1([H:11])[C-:3]([H:12])[N+:4]([C:5]([H:14])([H:15])[H:16])=[C:6]1[O:7][H:13])([H:8])([H:9])[H:10]"
C        2.34166086      -0.17393655       0.08805998
C        1.03697575       0.52742778      -0.17451915
C       -0.13341872      -0.15501315      -0.99105209
N       -1.07880603       0.53130692      -0.10530625
C       -2.44419127       0.13437135       0.13331261
C       -0.07752966       0.40223698       0.82074859
O       -0.11493154      -0.72073672       1.46762284
H        2.18880721      -1.19196303       0.44369535
H        2.92316404       0.36976000       0.83504217
H        2.93066385      -0.22410279      -0.82901648
H        1.18620476       1.53352971      -0.57092752
H       -0.23657638       0.14573105      -2.04120351
H       -0.13638550      -1.30677075       0.34716336
H       -2.84745762       0.73664219       0.94671069
H       -3.02123382       0.31438693      -0.77343883
H       -2.51694595      -0.92286991       0.40310824
16
Frame=4 idx=008942 GeodesicLength=0.3211332228503079 rxn_smarts="[C:1]([C@@:2]1([H:11])[C:3]([H:12])([H:13])[N:4]([C:5]([H:14])([H:15])[H:16])[C:6]1=[O:7])([H:8])([H:9])[H:10]>>[C:1]([C@@:2]1([H:11])[C-:3]([H:12])[N+:4]([C:5]([H:14])([H:15])[H:16])=[C:6]1[O:7][H:13])([H:8])([H:9])[H:10]"
C        2.34298271      -0.16651912       0.08343720
C        1.03244921       0.52651478      -0.17598814
C       -0.13033543      -0.17245112      -0.98551416
N       -1.07397230       0.51431879      -0.10244673
C       -2.44707240       0.14123238       0.12761206
C       -0.07694373       0.39916088       0.83014347
O       -0.11276277      -0.71629798       1.49100443
H        2.20004742      -1.19041315       0.42670315
H        2.91747293       0.37410005       0.83801548
H        2.93480137      -0.20387024      -0.83247198
H        1.17883116       1.53355395      -0.57128834
H       -0.24038653       0.12099736      -2.03668181
H       -0.12756518      -1.32648352       0.35377783
H       -2.83658957       0.73520133       0.95369594
H       -3.01814025       0.35012345      -0.77709400
H       -2.54281664      -0.91916784       0.37709561
16
Frame=5 idx=008942 GeodesicLength=0.40134095558327565 rxn_smarts="[C:1]([C@@:2]1([H:11])[C:3]([H:12])([H:13])[N:4]([C:5]([H:14])([H:15])[H:16])[C:6]1=[O:7])([H:8])([H:9])[H:10]>>[C:1]([C@@:2]1([H:11])[C-:3]([H:12])[N+:4]([C:5]([H:14])([H:15])[H:16])=[C:6]1[O:7][H:13])([H:8])([H:9])[H:10]"
C        2.34415271      -0.15904847       0.07872319
C        1.02774665       0.52546776      -0.17751252
C       -0.12727368      -0.19012394      -0.97973189
N       -1.06924313       0.49680433      -0.09919374
C       -2.44980737       0.14818998       0.12177074
C       -0.07634646       0.39615459       0.83961480
O       -0.11043117      -0.71123893       1.51497420
H        2.21134416      -1.18850337       0.40980348
H        2.91178400       0.37850814       0.84061928
H        2.93849003      -0.18371830      -0.83601804
H        1.17114314       1.53341632      -0.57181731
H       -0.24435496       0.09591905      -2.03183396
H       -0.11833450      -1.34654562       0.36044923
H       -2.82592380       0.73260390       0.96079948
H       -3.01385825       0.38683081      -0.78036940
H       -2.56908737      -0.91471625       0.34972246
16
Frame=6 idx=008942 GeodesicLength=0.48157040878567203 rxn_smarts="[C:1]([C@@:2]1([H:11])[C:3]([H:12])([H:13])[N:4]([C:5]([H:14])([H:15])[H:16])[C:6]1=[O:7])([H:8])([H:9])[H:10]>>[C:1]([C@@:2]1([H:11])[C-:3]([H:12])[N+:4]([C:5]([H:14])([H:15])[H:16])=[C:6]1[O:7][H:13])([H:8])([H:9])[H:10]"
C        2.34515651      -0.15151735       0.07390566
C        1.02285094       0.52427234      -0.17909531
C       -0.12423678      -0.20806277      -0.97368501
N       -1.06462947       0.47871334      -0.09552039
C       -2.45237604       0.15524599       0.11578901
C       -0.07574089       0.39321870       0.84916785
O       -0.10791992      -0.70549884       1.53958192
H        2.22269565      -1.18622895       0.39299319
H        2.90608210       0.38301061       0.84283780
H        2.94170916      -0.16363757      -0.83968052
H        1.16310502       1.53309299      -0.57253059
H       -0.24849531       0.07045244      -2.02663504
H       -0.10865858      -1.36698421       0.36718670
H       -2.81552510       0.72871433       0.96798742
H       -3.00824787       0.42457388      -0.78314710
H       -2.59576941      -0.90936492       0.32084442
16
Frame=7 idx=008942 GeodesicLength=0.5618398742748488 rxn_smarts="[C:1]([C@@:2]1([H:11])[C:3]([H:12])([H:13])[N:4]([C:5]([H:14])([H:15])[H:16])[C:6]1=[O:7])([H:8])([H:9])[H:10]>>[C:1]([C@@:2]1([H:11])[C-:3]([H:12])[N+:4]([C:5]([H:14])([H:15])[H:16])=[C:6]1[O:7][H:13])([H:8])([H:9])[H:10]"
C        2.34598349      -0.14392074       0.06897845
C        1.01774445       0.52291400      -0.18073949
C       -0.12122759      -0.22628906      -0.96736449
N       -1.06014150       0.45999882      -0.09140550
C       -2.45476860       0.16240708       0.10965178
C       -0.07513410       0.39034617       0.85880070
O       -0.10522168      -0.69901718       1.56485724
H        2.23409881      -1.18359061       0.37626313
H        2.90035444       0.38762263       0.84467261
H        2.94445075      -0.14361181      -0.84347151
H        1.15468271       1.53256997      -0.57343649
H       -0.25281533       0.04457042      -2.02106926
H       -0.09850801      -1.38783444       0.37397037
H       -2.80543743       0.72348192       0.97525402
H       -3.00121069       0.46336057      -0.78533831
H       -2.62284972      -0.90300774       0.29037675
16
Frame=8 idx=008942 GeodesicLength=0.6421663731656891 rxn_smarts="[C:1]([C@@:2]1([H:11])[C:3]([H:12])([H:13])[N:4]([C:5]([H:14])([H:15])[H:16])[C:6]1=[O:7])([H:8])([H:9])[H:10]>>[C:1]([C@@:2]1([H:11])[C-:3]([H:12])[N+:4]([C:5]([H:14])([H:15])[H:16])=[C:6]1[O:7][H:13])([H:8])([H:9])[H:10]"
C        2.34662063      -0.13625061       0.06393057
C        1.01240396       0.52137558      -0.18244587
C       -0.11825116      -0.24483831      -0.96074806
N       -1.05578954       0.44060108      -0.08681347
C       -2.45695995       0.16968936       0.10336014
C       -0.07452899       0.38753164       0.86852043
O       -0.10230775      -0.69172194       1.59084559
H        2.24555614      -1.18058318       0.35960416
H        2.89458569       0.39237213       0.84611219
H        2.94669455      -0.12362939      -0.84741538
H        1.14582503       1.53182357      -0.57454660
H       -0.25733304       0.01822385      -2.01510740
H       -0.08784499      -1.40913468       0.38079849
H       -2.79572816       0.71677550       0.98257066
H       -2.99261322       0.50321649      -0.78683076
H       -2.65032921      -0.89545107       0.25816531
16
Frame=9 idx=008942 GeodesicLength=0.7225705119602358 rxn_smarts="[C:1]([C@@:2]1([H:11])[C:3]([H:12])([H:13])[N:4]([C:5]([H:14])([H:15])[H:16])[C:6]1=[O:7])([H:8])([H:9])[H:10]>>[C:1]([C@@:2]1([H:11])[C-:3]([H:12])[N+:4]([C:5]([H:14])([H:15])[H:16])=[C:6]1[O:7][H:13])([H:8])([H:9])[H:10]"
C        2.34706590      -0.12852057       0.05877296
C        1.00682992       0.51963820      -0.18420407
C       -0.11530282      -0.26371163      -0.95383670
N       -1.05155577       0.42047405      -0.08169423
C       -2.45893476       0.17714454       0.09690242
C       -0.07393120       0.38475830       0.87832296
O       -0.09918191      -0.68350469       1.61754744
H        2.25704478      -1.17721672       0.34302260
H        2.88877969       0.39725760       0.84716999
H        2.94844506      -0.10371708      -0.85150053
H        1.13652730       1.53084228      -0.57586510
H       -0.26203814      -0.00858006      -2.00876536
H       -0.07661391      -1.43092069       0.38758441
H       -2.78647967       0.70848865       0.98984170
H       -2.98263334       0.54412653      -0.78754267
H       -2.67802113      -0.88655871       0.22424417
16
Frame=10 idx=008942 GeodesicLength=0.8030363204113661 rxn_smarts="[C:1]([C@@:2]1([H:11])[C:3]([H:12])([H:13])[N:4]([C:5]([H:14])([H:15])[H:16])[C:6]1=[O:7])([H:8])([H:9])[H:10]>>[C:1]([C@@:2]1([H:11])[C-:3]([H:12])[N+:4]([C:5]([H:14])([H:15])[H:16])=[C:6]1[O:7][H:13])([H:8])([H:9])[H:10]"
C        2.34728331      -0.12068862       0.05347751
C        1.00096360       0.51767822      -0.18603503
C       -0.11239930      -0.28299966      -0.94659419
N       -1.04748321       0.39950674      -0.07602725
C       -2.46065714       0.18474587       0.09027269
C       -0.07335837       0.38201604       0.88821617
O       -0.09581667      -0.67432918       1.64504947
H        2.26859183      -1.17345404       0.32652559
H        2.88289066       0.40236783       0.84780328
H        2.94964708      -0.08381914      -0.85577613
H        1.12667511       1.52958499      -0.57743695
H       -0.26697625      -0.03598216      -2.00198727
H       -0.06477799      -1.45325183       0.39439996
H       -2.77774412       0.69845353       0.99708496
H       -2.97079670       0.58625605      -0.78723906
H       -2.70604183      -0.87608465       0.18826625
16
Frame=11 idx=008942 GeodesicLength=0.8835222913228733 rxn_smarts="[C:1]([C@@:2]1([H:11])[C:3]([H:12])([H:13])[N:4]([C:5]([H:14])([H:15])[H:16])[C:6]1=[O:7])([H:8])([H:9])[H:10]>>[C:1]([C@@:2]1([H:11])[C-:3]([H:12])[N+:4]([C:5]([H:14])([H:15])[H:16])=[C:6]1[O:7][H:13])([H:8])([H:9])[H:10]"
C        2.34725122      -0.11273929       0.04803132
C        0.99477260       0.51547039      -0.18793739
C       -0.10954803      -0.30274630      -0.93899330
N       -1.04358393       0.37761439      -0.06975737
C       -2.46209468       0.19253695       0.08346707
C       -0.07282341       0.37928025       0.89820827
O       -0.09220937      -0.66412507       1.67338084
H        2.28019333      -1.16927986       0.31010232
H        2.87689344       0.40773993       0.84799133
H        2.95026674      -0.06390970      -0.86026840
H        1.11620509       1.52801962      -0.57927214
H       -0.27216747      -0.06403779      -1.99473531
H       -0.05228217      -1.47618140       0.40123901
H       -2.76958680       0.68660179       1.00426246
H       -2.95696995       0.62965151      -0.78582387
H       -2.73431662      -0.86389541       0.15010516
16
Frame=12 idx=008942 GeodesicLength=0.9640505053990788 rxn_smarts="[C:1]([C@@:2]1([H:11])[C:3]([H:12])([H:13])[N:4]([C:5]([H:14])([H:15])[H:16])[C:6]1=[O:7])([H:8])([H:9])[H:10]>>[C:1]([C@@:2]1([H:11])[C-:3]([H:12])[N+:4]([C:5]([H:14])([H:15])[H:16])=[C:6]1[O:7][H:13])([H:8])([H:9])[H:10]"
C        2.34693479      -0.10464866       0.04242069
C        0.98820932       0.51298215      -0.18991847
C       -0.10675767      -0.32302262      -0.93100706
N       -1.03987801       0.35468224      -0.06283718
C       -2.46321048       0.20053808       0.07646480
C       -0.07234761       0.37652678       0.90830420
O       -0.08835073      -0.65279468       1.70259890
H        2.29185282      -1.16466602       0.29377068
H        2.87075068       0.41344414       0.84770656
H        2.95025336      -0.04396884      -0.86500762
H        1.10502256       1.52610586      -0.58140990
H       -0.27763701      -0.09285030      -1.98698267
H       -0.03906303      -1.49977790       0.40809874
H       -2.76209677       0.67275880       1.01130572
H       -2.94091682       0.67442378      -0.78303874
H       -2.76276541      -0.84973282       0.10953133
16
Frame=13 idx=008942 GeodesicLength=1.0445672818627423 rxn_smarts="[C:1]([C@@:2]1([H:11])[C:3]([H:12])([H:13])[N:4]([C:5]([H:14])([H:15])[H:16])[C:6]1=[O:7])([H:8])([H:9])[H:10]>>[C:1]([C@@:2]1([H:11])[C-:3]([H:12])[N+:4]([C:5]([H:14])([H:15])[H:16])=[C:6]1[O:7][H:13])([H:8])([H:9])[H:10]"
C        2.34630651      -0.09639350       0.03662596
C        0.98122503       0.51017911      -0.19197336
C       -0.10403851      -0.34388413      -0.92259515
N       -1.03637897       0.33059824      -0.05518759
C       -2.46395497       0.20880159       0.06926476
C       -0.07195039       0.37370934       0.91851678
O       -0.08422203      -0.64026697       1.73272779
H        2.30357647      -1.15958409       0.27751135
H        2.86442949       0.41952741       0.84691730
H        2.94956587      -0.02395557      -0.87002333
H        1.09303113       1.52379850      -0.58384938
H       -0.28341371      -0.12249262      -1.97867085
H       -0.02505052      -1.52411806       0.41496300
H       -2.75536146       0.65685262       1.01813875
H       -2.92247955       0.72061796      -0.77880129
H       -2.79128439      -0.83338982       0.06643527
16
Frame=14 idx=008942 GeodesicLength=1.1250740421673429 rxn_smarts="[C:1]([C@@:2]1([H:11])[C:3]([H:12])([H:13])[N:4]([C:5]([H:14])([H:15])[H:16])[C:6]1=[O:7])([H:8])([H:9])[H:10]>>[C:1]([C@@:2]1([H:11])[C-:3]([H:12])[N+:4]([C:5]([H:14])([H:15])[H:16])=[C:6]1[O:7][H:13])([H:8])([H:9])[H:10]"
C        2.34532297      -0.08794088       0.03063064
C        0.97375624       0.50701746      -0.19410734
C       -0.10140299      -0.36542777      -0.91371942
N       -1.03311100       0.30521361      -0.04674513
C       -2.46426430       0.21736267       0.06185037
C       -0.07165932       0.37078830       0.92885704
O       -0.07981032      -0.62644161       1.76382810
H        2.31537203      -1.15399559       0.26133830
H        2.85788065       0.42608539       0.84558767
H        2.94812976      -0.00383763      -0.87535939
H        1.08010071       1.52104546      -0.58663750
H       -0.28953061      -0.15310927      -1.96975951
H       -0.01015777      -1.54928213       0.42183798
H       -2.74950462       0.63864902       1.02464106
H       -2.90138134       0.76833276      -0.77279838
H       -2.81974009      -0.81445980       0.02055550
16
Frame=15 idx=008942 GeodesicLength=1.2055463428673845 rxn_smarts="[C:1]([C@@:2]1([H:11])[C:3]([H:12])([H:13])[N:4]([C:5]([H:14])([H:15])[H:16])[C:6]1=[O:7])([H:8])([H:9])[H:10]>>[C:1]([C@@:2]1([H:11])[C-:3]([H:12])[N+:4]([C:5]([H:14])([H:15])[H:16])=[C:6]1[O:7][H:13])([H:8])([H:9])[H:10]"
C        2.34393884      -0.07925541       0.02441624
C        0.96573271       0.50344976      -0.19631539
C       -0.09886699      -0.38774092      -0.90434197
N       -1.03009822       0.27837097      -0.03743032
C       -2.46406400       0.22628681       0.05420484
C       -0.07150924       0.36769855       0.93933733
O       -0.07510226      -0.61124064       1.79593277
H        2.32725026      -1.14785813       0.24524702
H        2.85105105       0.43320162       0.84368490
H        2.94587534       0.01643557      -0.88105061
H        1.06609030       1.51779420      -0.58978982
H       -0.29602360      -0.18482234      -1.96020117
H        0.00570814      -1.57536844       0.42869617
H       -2.74464028       0.61802977       1.03066444
H       -2.87738427       0.81759069      -0.76480115
H       -2.84795779      -0.79257206      -0.02825327
16
Frame=16 idx=008942 GeodesicLength=1.2859965045057962 rxn_smarts="[C:1]([C@@:2]1([H:11])[C:3]([H:12])([H:13])[N:4]([C:5]([H:14])([H:15])[H:16])[C:6]1=[O:7])([H:8])([H:9])[H:10]>>[C:1]([C@@:2]1([H:11])[C-:3]([H:12])[N+:4]([C:5]([H:14])([H:15])[H:16])=[C:6]1[O:7][H:13])([H:8])([H:9])[H:10]"
C        2.34210172      -0.07029445       0.01796557
C        0.95707081       0.49942671      -0.19860100
C       -0.09645367      -0.41093773      -0.89442267
N       -1.02737084       0.24988394      -0.02715755
C       -2.46325185       0.23564842       0.04632856
C       -0.07153568       0.36436926       0.94997919
O       -0.07008350      -0.59458191       1.82910008
H        2.33922269      -1.14112783       0.22925191
H        2.84388966       0.44099415       0.84117545
H        2.94270961       0.03691011      -0.88714374
H        1.05083249       1.51399694      -0.59335061
H       -0.30294734      -0.21779669      -1.94996304
H        0.02265657      -1.60248649       0.43552207
H       -2.74092029       0.59481589       1.03600903
H       -2.85021456       0.86842080      -0.75448438
H       -2.87570581      -0.76724113      -0.08020886
