14
Frame=0 idx=007383 GeodesicLength=0.0 rxn_smarts="[C:1]1([H:8])([H:9])[C@@:2]2([H:10])[C:3]([H:11])([H:12])[O:4][C:5]([H:13])=[N:6][C@@:7]12[H:14]>>[C:1]1([H:8])([H:9])[C@@:2]2([H:10])[C:3]([H:11])([H:12])[O+:4]=[C:5]([H:13])[N:6]([H:14])[C-:7]12"
C       -1.65849710      -0.23056806       0.23537672
C       -0.67079500       0.52861638      -0.63599417
C        0.43532829       1.28213492       0.04805072
O        1.71359352       0.58965733      -0.00652048
C        1.68843969      -0.70342760       0.25637267
N        0.60943822      -1.40246878       0.28931090
C       -0.56792529      -0.94529979      -0.46381648
H       -1.58506469      -0.06319063       1.30685135
H       -2.66841038      -0.35416865      -0.13493972
H       -1.00883638       0.92744253      -1.58426022
H        0.21688106       1.43460352       1.10773347
H        0.63848598       2.24522391      -0.41307242
H        2.66348262      -1.13983209       0.43688118
H        0.19387951      -2.16872294      -0.44197347
14
Frame=1 idx=007383 GeodesicLength=0.045967595266799915 rxn_smarts="[C:1]1([H:8])([H:9])[C@@:2]2([H:10])[C:3]([H:11])([H:12])[O:4][C:5]([H:13])=[N:6][C@@:7]12[H:14]>>[C:1]1([H:8])([H:9])[C@@:2]2([H:10])[C:3]([H:11])([H:12])[O+:4]=[C:5]([H:13])[N:6]([H:14])[C-:7]12"
C       -1.65224126      -0.23385830       0.23971224
C       -0.67105102       0.52941401      -0.63390148
C        0.43578111       1.28567907       0.04473793
O        1.71243264       0.59139468       0.01297477
C        1.68477369      -0.70450712       0.26210100
N        0.60896174      -1.40715132       0.27615829
C       -0.56553793      -0.94507304      -0.47082336
H       -1.57107280      -0.07410482       1.31175860
H       -2.66454115      -0.35744916      -0.12402373
H       -1.01620171       0.93078107      -1.57863143
H        0.21285277       1.45825863       1.10033966
H        0.64492447       2.24061025      -0.43117940
H        2.65747218      -1.13986308       0.45766144
H        0.18344726      -2.17413087      -0.46688453
14
Frame=2 idx=007383 GeodesicLength=0.09195218566667454 rxn_smarts="[C:1]1([H:8])([H:9])[C@@:2]2([H:10])[C:3]([H:11])([H:12])[O:4][C:5]([H:13])=[N:6][C@@:7]12[H:14]>>[C:1]1([H:8])([H:9])[C@@:2]2([H:10])[C:3]([H:11])([H:12])[O+:4]=[C:5]([H:13])[N:6]([H:14])[C-:7]12"
C       -1.64584417      -0.23724188       0.24414061
C       -0.67130345       0.53018280      -0.63175100
C        0.43620927       1.28924056       0.04146086
O        1.71087049       0.59317300       0.03331697
C        1.68103485      -0.70552600       0.26801898
N        0.60871220      -1.41170451       0.26280957
C       -0.56310123      -0.94482142      -0.47778573
H       -1.55678063      -0.08502849       1.31662540
H       -2.66050499      -0.36091910      -0.11291480
H       -1.02362573       0.93406645      -1.57285693
H        0.20851613       1.48238943       1.09242016
H        0.65178743       2.23544767      -0.44948538
H        2.65114793      -1.14004522       0.47820573
H        0.17288191      -2.17921330      -0.49220445
14
Frame=3 idx=007383 GeodesicLength=0.13793933702603198 rxn_smarts="[C:1]1([H:8])([H:9])[C@@:2]2([H:10])[C:3]([H:11])([H:12])[O:4][C:5]([H:13])=[N:6][C@@:7]12[H:14]>>[C:1]1([H:8])([H:9])[C@@:2]2([H:10])[C:3]([H:11])([H:12])[O+:4]=[C:5]([H:13])[N:6]([H:14])[C-:7]12"
C       -1.63932737      -0.24071111       0.24862755
C       -0.67153460       0.53091422      -0.62954296
C        0.43660058       1.29282068       0.03826201
O        1.70885628       0.59500840       0.05459903
C        1.67722852      -0.70646264       0.27414923
N        0.60869983      -1.41608372       0.24935700
C       -0.56059755      -0.94455153      -0.48465957
H       -1.54226850      -0.09591688       1.32141593
H       -2.65630195      -0.36458039      -0.10170180
H       -1.03103335       0.93726441      -1.56696757
H        0.20383339       1.50698307       1.08397423
H        0.65909289       2.22971175      -0.46791122
H        2.64460200      -1.14040843       0.49814934
H        0.16214982      -2.18398782      -0.51775120
14
Frame=4 idx=007383 GeodesicLength=0.18392684280063304 rxn_smarts="[C:1]1([H:8])([H:9])[C@@:2]2([H:10])[C:3]([H:11])([H:12])[O:4][C:5]([H:13])=[N:6][C@@:7]12[H:14]>>[C:1]1([H:8])([H:9])[C@@:2]2([H:10])[C:3]([H:11])([H:12])[O+:4]=[C:5]([H:13])[N:6]([H:14])[C-:7]12"
C       -1.63272247      -0.24425817       0.25313495
C       -0.67172747       0.53160148      -0.62727941
C        0.43694265       1.29642346       0.03518704
O        1.70633676       0.59691226       0.07692138
C        1.67336086      -0.70729415       0.28052978
N        0.60892857      -1.42024546       0.23590791
C       -0.55800911      -0.94427176      -0.49139780
H       -1.52763677      -0.10672706       1.32609435
H       -2.65194306      -0.36843267      -0.09048420
H       -1.03834511       0.94034564      -1.56100210
H        0.19876371       1.53202803       1.07500133
H        0.66687083       2.22338832      -0.48637045
H        2.63796625      -1.14097881       0.51708231
H        0.15121436      -2.18849110      -0.54332509
14
Frame=5 idx=007383 GeodesicLength=0.22986631563764476 rxn_smarts="[C:1]1([H:8])([H:9])[C@@:2]2([H:10])[C:3]([H:11])([H:12])[O:4][C:5]([H:13])=[N:6][C@@:7]12[H:14]>>[C:1]1([H:8])([H:9])[C@@:2]2([H:10])[C:3]([H:11])([H:12])[O+:4]=[C:5]([H:13])[N:6]([H:14])[C-:7]12"
C       -1.62604043      -0.24786928       0.25764877
C       -0.67188268       0.53224237      -0.62496150
C        0.43722759       1.30003729       0.03224928
O        1.70324792       0.59892123       0.10027996
C        1.66944493      -0.70801346       0.28705729
N        0.60942055      -1.42417817       0.22247811
C       -0.55534278      -0.94398747      -0.49798911
H       -1.51290104      -0.11742192       1.33064450
H       -2.64743527      -0.37245804      -0.07929227
H       -1.04553566       0.94328933      -1.55496923
H        0.19334151       1.55747702       1.06547810
H        0.67509643       2.21641860      -0.50477635
H        2.63132871      -1.14175389       0.53501071
H        0.14003022      -2.19270362      -0.56885825
14
Frame=6 idx=007383 GeodesicLength=0.2757632789083535 rxn_smarts="[C:1]1([H:8])([H:9])[C@@:2]2([H:10])[C:3]([H:11])([H:12])[O:4][C:5]([H:13])=[N:6][C@@:7]12[H:14]>>[C:1]1([H:8])([H:9])[C@@:2]2([H:10])[C:3]([H:11])([H:12])[O+:4]=[C:5]([H:13])[N:6]([H:14])[C-:7]12"
C       -1.61932131      -0.25152088       0.26208956
C       -0.67194067       0.53281765      -0.62258989
C        0.43745836       1.30365615       0.02954035
O        1.69956003       0.60093991       0.12480145
C        1.66546602      -0.70858261       0.29391128
N        0.61012015      -1.42779483       0.20929023
C       -0.55254735      -0.94370151      -0.50435149
H       -1.49827062      -0.12793900       1.33501016
H       -2.64276598      -0.37663389      -0.06833736
H       -1.05241811       0.94604040      -1.54895709
H        0.18747156       1.58324084       1.05552231
H        0.68380719       2.20886756      -0.52302767
H        2.62483032      -1.14262026       0.55103835
H        0.12855041      -2.19676953      -0.59394019
14
Frame=7 idx=007383 GeodesicLength=0.3216149534118682 rxn_smarts="[C:1]1([H:8])([H:9])[C@@:2]2([H:10])[C:3]([H:11])([H:12])[O:4][C:5]([H:13])=[N:6][C@@:7]12[H:14]>>[C:1]1([H:8])([H:9])[C@@:2]2([H:10])[C:3]([H:11])([H:12])[O+:4]=[C:5]([H:13])[N:6]([H:14])[C-:7]12"
C       -1.61257997      -0.25521659       0.26649017
C       -0.67194598       0.53334486      -0.62016673
C        0.43762615       1.30728116       0.02702395
O        1.69518818       0.60304851       0.15050360
C        1.66142733      -0.70901571       0.30102293
N        0.61107312      -1.43115326       0.19625367
C       -0.54966036      -0.94342383      -0.51051938
H       -1.48367139      -0.13829854       1.33921950
H       -2.63798614      -0.38096078      -0.05753249
H       -1.05908846       0.94863867      -1.54293175
H        0.18120936       1.60938619       1.04498993
H        0.69304655       2.20061347      -0.54111565
H        2.61859536      -1.14363561       0.56552042
H        0.11676623      -2.20060857      -0.61875816
14
Frame=8 idx=007383 GeodesicLength=0.36746144536774505 rxn_smarts="[C:1]1([H:8])([H:9])[C@@:2]2([H:10])[C:3]([H:11])([H:12])[O:4][C:5]([H:13])=[N:6][C@@:7]12[H:14]>>[C:1]1([H:8])([H:9])[C@@:2]2([H:10])[C:3]([H:11])([H:12])[O+:4]=[C:5]([H:13])[N:6]([H:14])[C-:7]12"
C       -1.60579179      -0.25898059       0.27088985
C       -0.67193146       0.53383830      -0.61768697
C        0.43775159       1.31090026       0.02466138
O        1.69005060       0.60516558       0.17734307
C        1.65732969      -0.70931168       0.30828461
N        0.61228979      -1.43423604       0.18322200
C       -0.54669953      -0.94313459      -0.51654876
H       -1.46901341      -0.14857611       1.34331399
H       -2.63309003      -0.38545826      -0.04677484
H       -1.06563580       0.95114160      -1.53685530
H        0.17462609       1.63590674       1.03381223
H        0.70291757       2.19159980      -0.55907984
H        2.61254475      -1.14465272       0.57886998
H        0.10465193      -2.20420229      -0.64345142
14
Frame=9 idx=007383 GeodesicLength=0.4133636085393203 rxn_smarts="[C:1]1([H:8])([H:9])[C@@:2]2([H:10])[C:3]([H:11])([H:12])[O:4][C:5]([H:13])=[N:6][C@@:7]12[H:14]>>[C:1]1([H:8])([H:9])[C@@:2]2([H:10])[C:3]([H:11])([H:12])[O+:4]=[C:5]([H:13])[N:6]([H:14])[C-:7]12"
C       -1.59892270      -0.26281644       0.27532720
C       -0.67192731       0.53430796      -0.61513456
C        0.43784696       1.31448757       0.02242168
O        1.68404766       0.60725368       0.20536507
C        1.65316568      -0.70946899       0.31559045
N        0.61379101      -1.43706006       0.17005689
C       -0.54369360      -0.94283233      -0.52248294
H       -1.45417866      -0.15879539       1.34732051
H       -2.62805557      -0.39012056      -0.03596277
H       -1.07213907       0.95358632      -1.53066836
H        0.16774799       1.66280561       1.02187678
H        0.71350854       2.18168674      -0.57695389
H        2.60663313      -1.14552478       0.59144474
H        0.09217592      -2.20750934      -0.66820081
14
Frame=10 idx=007383 GeodesicLength=0.4592509093554513 rxn_smarts="[C:1]1([H:8])([H:9])[C@@:2]2([H:10])[C:3]([H:11])([H:12])[O:4][C:5]([H:13])=[N:6][C@@:7]12[H:14]>>[C:1]1([H:8])([H:9])[C@@:2]2([H:10])[C:3]([H:11])([H:12])[O+:4]=[C:5]([H:13])[N:6]([H:14])[C-:7]12"
C       -1.59201583      -0.26671678       0.27975341
C       -0.67191093       0.53475529      -0.61252410
C        0.43792165       1.31804858       0.02033591
O        1.67717679       0.60931775       0.23443080
C        1.64895969      -0.70946876       0.32296008
N        0.61556974      -1.43958555       0.15687056
C       -0.54061738      -0.94251722      -0.52829401
H       -1.43929929      -0.16894306       1.35121076
H       -2.62291295      -0.39494123      -0.02521642
H       -1.07851633       0.95596279      -1.52443154
H        0.16065854       1.68997021       1.00926281
H        0.72474135       2.17096609      -0.59459162
H        2.60094888      -1.14625056       0.60298841
H        0.07929606      -2.21059756      -0.69275505
14
Frame=11 idx=007383 GeodesicLength=0.505155788716511 rxn_smarts="[C:1]1([H:8])([H:9])[C@@:2]2([H:10])[C:3]([H:11])([H:12])[O:4][C:5]([H:13])=[N:6][C@@:7]12[H:14]>>[C:1]1([H:8])([H:9])[C@@:2]2([H:10])[C:3]([H:11])([H:12])[O+:4]=[C:5]([H:13])[N:6]([H:14])[C-:7]12"
C       -1.58506046      -0.27069265       0.28419599
C       -0.67191725       0.53518939      -0.60984532
C        0.43798726       1.32156590       0.01837919
O        1.66928372       0.61125251       0.26454621
C        1.64470150      -0.70929099       0.33035897
N        0.61766084      -1.44178975       0.14355323
C       -0.53749398      -0.94217645      -0.53401490
H       -1.42429570      -0.17905281       1.35500366
H       -2.61766964      -0.39993966      -0.01445859
H       -1.08484516       0.95830100      -1.51810218
H        0.15341822       1.71741435       0.99587209
H        0.73673698       2.15932334      -0.61199981
H        2.59549188      -1.14670599       0.61375694
H        0.06600177      -2.21339818      -0.71724549
14
Frame=12 idx=007383 GeodesicLength=0.551148596204513 rxn_smarts="[C:1]1([H:8])([H:9])[C@@:2]2([H:10])[C:3]([H:11])([H:12])[O:4][C:5]([H:13])=[N:6][C@@:7]12[H:14]>>[C:1]1([H:8])([H:9])[C@@:2]2([H:10])[C:3]([H:11])([H:12])[O+:4]=[C:5]([H:13])[N:6]([H:14])[C-:7]12"
C       -1.57800469      -0.27476304       0.28870086
C       -0.67198278       0.53563404      -0.60708285
C        0.43806380       1.32502131       0.01649311
O        1.66037346       0.61309935       0.29555054
C        1.64039850      -0.70893494       0.33765561
N        0.62008665      -1.44369222       0.12992500
C       -0.53434365      -0.94180209      -0.53971043
H       -1.40902440      -0.18918688       1.35872678
H       -2.61228254      -0.40512582      -0.00356419
H       -1.09123216       0.96067705      -1.51160510
H        0.14615722       1.74507129       0.98161755
H        0.74947246       2.14666840      -0.62918500
H        2.59005505      -1.14677760       0.62435317
H        0.05226308      -2.21588886      -0.74187503
14
Frame=13 idx=007383 GeodesicLength=0.5971985445927186 rxn_smarts="[C:1]1([H:8])([H:9])[C@@:2]2([H:10])[C:3]([H:11])([H:12])[O:4][C:5]([H:13])=[N:6][C@@:7]12[H:14]>>[C:1]1([H:8])([H:9])[C@@:2]2([H:10])[C:3]([H:11])([H:12])[O+:4]=[C:5]([H:13])[N:6]([H:14])[C-:7]12"
C       -1.57092360      -0.27891284       0.29319510
C       -0.67208065       0.53607493      -0.60424960
C        0.43815257       1.32841398       0.01474117
O        1.65036758       0.61477935       0.32734844
C        1.63602331      -0.70834982       0.34503519
N        0.62282914      -1.44522536       0.11618182
C       -0.53114678      -0.94140370      -0.54531538
H       -1.39367929      -0.19929274       1.36232878
H       -2.60680436      -0.41049604       0.00728478
H       -1.09754477       0.96303045      -1.50502782
H        0.13895534       1.77285494       0.96659767
H        0.76292759       2.13306310      -0.64596428
H        2.58487374      -1.14642629       0.63419061
H        0.03805018      -2.21810996      -0.76634648
14
Frame=14 idx=007383 GeodesicLength=0.6432597957907186 rxn_smarts="[C:1]1([H:8])([H:9])[C@@:2]2([H:10])[C:3]([H:11])([H:12])[O:4][C:5]([H:13])=[N:6][C@@:7]12[H:14]>>[C:1]1([H:8])([H:9])[C@@:2]2([H:10])[C:3]([H:11])([H:12])[O+:4]=[C:5]([H:13])[N:6]([H:14])[C-:7]12"
C       -1.56388832      -0.28309550       0.29759725
C       -0.67216439       0.53649723      -0.60135357
C        0.43825381       1.33172291       0.01319613
O        1.63921743       0.61629279       0.35988547
C        1.63151534      -0.70751707       0.35275696
N        0.62585047      -1.44637169       0.10256694
C       -0.52787536      -0.94100094      -0.55074652
H       -1.37846971      -0.20927692       1.36575042
H       -2.60127293      -0.41599071       0.01787690
H       -1.10361084       0.96529669      -1.49846660
H        0.13181441       1.80059988       0.95089719
H        0.77706162       2.11855739      -0.66213408
H        2.58023321      -1.14557794       0.64250160
H        0.02333527      -2.22013613      -0.79032811
14
Frame=15 idx=007383 GeodesicLength=0.6894013066010312 rxn_smarts="[C:1]1([H:8])([H:9])[C@@:2]2([H:10])[C:3]([H:11])([H:12])[O:4][C:5]([H:13])=[N:6][C@@:7]12[H:14]>>[C:1]1([H:8])([H:9])[C@@:2]2([H:10])[C:3]([H:11])([H:12])[O+:4]=[C:5]([H:13])[N:6]([H:14])[C-:7]12"
C       -1.55686272      -0.28734442       0.30194914
C       -0.67228463       0.53692158      -0.59838844
C        0.43838909       1.33494255       0.01178157
O        1.62700118       0.61761919       0.39277381
C        1.62686473      -0.70644595       0.36075444
N        0.62917841      -1.44711984       0.08889272
C       -0.52455416      -0.94057694      -0.55608028
H       -1.36326473      -0.21922761       1.36902038
H       -2.59567456      -0.42164994       0.02833922
H       -1.10956906       0.96754034      -1.49185349
H        0.12498031       1.82822055       0.93451549
H        0.79177484       2.10317013      -0.67769969
H        2.57591166      -1.14414342       0.65005225
H        0.00810965      -2.22190622      -0.81405712
14
Frame=16 idx=007383 GeodesicLength=0.7356472345550232 rxn_smarts="[C:1]1([H:8])([H:9])[C@@:2]2([H:10])[C:3]([H:11])([H:12])[O:4][C:5]([H:13])=[N:6][C@@:7]12[H:14]>>[C:1]1([H:8])([H:9])[C@@:2]2([H:10])[C:3]([H:11])([H:12])[O+:4]=[C:5]([H:13])[N:6]([H:14])[C-:7]12"
C       -1.54982654      -0.29167373       0.30626883
C       -0.67246468       0.53736233      -0.59535026
C        0.43857954       1.33806577       0.01044671
O        1.61374523       0.61874174       0.42573430
C        1.62204418      -0.70514689       0.36903973
N        0.63283509      -1.44745461       0.07506197
C       -0.52118871      -0.94011678      -0.56135981
H       -1.34799645      -0.22919089       1.37215211
H       -2.58999965      -0.42750141       0.03873400
H       -1.11549298       0.96980011      -1.48515156
H        0.11860322       1.85562326       0.91746254
H        0.80699389       2.08694162      -0.69264695
H        2.57179595      -1.14207679       0.65724591
H       -0.00762809      -2.22337373      -0.83763753
