10
Frame=0 idx=007766 GeodesicLength=0.0 rxn_smarts="[O:1]=[C:2]([n:3]1[c:4]([H:9])[n:5][c:6]([H:10])[n:7]1)[H:8]>>[O:1]=[C:2]([N+:3]([C@:4]1([H:9])[N:5]=[C:6]1[H:10])=[N-:7])[H:8]"
O        2.52697419       0.34988230      -0.34530037
C        1.75826408      -0.35028032       0.23241271
N        0.35919579      -0.22179301       0.09097004
C       -0.40305210       0.82265947      -0.34081717
N       -1.63043798       0.97558320       0.49638104
C       -1.63246024      -0.22135387      -0.00837612
N       -0.51454686      -1.04991531       0.62323424
H        2.00110411      -1.17482396       0.91911125
H       -0.10472723       1.59968861      -1.02362781
H       -2.36031374      -0.72964711      -0.64398780
10
Frame=1 idx=007766 GeodesicLength=0.053326397949812705 rxn_smarts="[O:1]=[C:2]([n:3]1[c:4]([H:9])[n:5][c:6]([H:10])[n:7]1)[H:8]>>[O:1]=[C:2]([N+:3]([C@:4]1([H:9])[N:5]=[C:6]1[H:10])=[N-:7])[H:8]"
O        2.52360988       0.36203852      -0.33989288
C        1.76073265      -0.34827443       0.23286516
N        0.35952523      -0.22093903       0.10305538
C       -0.40337476       0.82236438      -0.34086134
N       -1.63087547       0.98064884       0.48217223
C       -1.64030621      -0.22100501      -0.01238538
N       -0.50972971      -1.05786276       0.62322291
H        2.00728202      -1.18073061       0.90865574
H       -0.08991143       1.59504104      -1.02194629
H       -2.37695221      -0.73128095      -0.63488553
10
Frame=2 idx=007766 GeodesicLength=0.10667748891724924 rxn_smarts="[O:1]=[C:2]([n:3]1[c:4]([H:9])[n:5][c:6]([H:10])[n:7]1)[H:8]>>[O:1]=[C:2]([N+:3]([C@:4]1([H:9])[N:5]=[C:6]1[H:10])=[N-:7])[H:8]"
O        2.52017406       0.37358562      -0.33503127
C        1.76316483      -0.34610354       0.23351651
N        0.35984298      -0.21946523       0.11633780
C       -0.40363240       0.82221516      -0.34073358
N       -1.63168042       0.98560866       0.46744154
C       -1.64809806      -0.22065930      -0.01683151
N       -0.50475394      -1.06573934       0.62335915
H        2.01352334      -1.18677135       0.89769569
H       -0.07514146       1.59042396      -1.01992331
H       -2.39339894      -0.73309465      -0.62583102
10
Frame=3 idx=007766 GeodesicLength=0.15999844999178975 rxn_smarts="[O:1]=[C:2]([n:3]1[c:4]([H:9])[n:5][c:6]([H:10])[n:7]1)[H:8]>>[O:1]=[C:2]([N+:3]([C@:4]1([H:9])[N:5]=[C:6]1[H:10])=[N-:7])[H:8]"
O        2.51664250       0.38455920      -0.33068410
C        1.76553372      -0.34350151       0.23474928
N        0.36013513      -0.21705913       0.13127656
C       -0.40382908       0.82225857      -0.34042033
N       -1.63304315       0.99052984       0.45188074
C       -1.65579503      -0.22034195      -0.02177028
N       -0.49960992      -1.07327390       0.62401838
H        2.01983082      -1.19361027       0.88543978
H       -0.06039264       1.58576547      -1.01764689
H       -2.40947235      -0.73532632      -0.61684314
10
Frame=4 idx=007766 GeodesicLength=0.21338418477355162 rxn_smarts="[O:1]=[C:2]([n:3]1[c:4]([H:9])[n:5][c:6]([H:10])[n:7]1)[H:8]>>[O:1]=[C:2]([N+:3]([C@:4]1([H:9])[N:5]=[C:6]1[H:10])=[N-:7])[H:8]"
O        2.51299295       0.39492907      -0.32687453
C        1.76780547      -0.34046314       0.23662848
N        0.36037122      -0.21361502       0.14822859
C       -0.40393953       0.82251516      -0.33984379
N       -1.63503149       0.99545066       0.43534498
C       -1.66335440      -0.22007197      -0.02727043
N       -0.49428722      -1.08038576       0.62539350
H        2.02614729      -1.20132410       0.87150793
H       -0.04563686       1.58103526      -1.01511821
H       -2.42506743      -0.73807017      -0.60799652
10
Frame=5 idx=007766 GeodesicLength=0.26684838955442425 rxn_smarts="[O:1]=[C:2]([n:3]1[c:4]([H:9])[n:5][c:6]([H:10])[n:7]1)[H:8]>>[O:1]=[C:2]([N+:3]([C@:4]1([H:9])[N:5]=[C:6]1[H:10])=[N-:7])[H:8]"
O        2.50924105       0.40500805      -0.32317097
C        1.76994122      -0.33708128       0.23907002
N        0.36052830      -0.20905105       0.16736326
C       -0.40391934       0.82293864      -0.33905701
N       -1.63759535       1.00041376       0.41769669
C       -1.67074166      -0.21985104      -0.03333482
N       -0.48876070      -1.08698215       0.62763917
H        2.03236086      -1.21011494       0.85544185
H       -0.03084265       1.57609210      -1.01250394
H       -2.44021172      -0.74137209      -0.59914424
10
Frame=6 idx=007766 GeodesicLength=0.32039962446375947 rxn_smarts="[O:1]=[C:2]([n:3]1[c:4]([H:9])[n:5][c:6]([H:10])[n:7]1)[H:8]>>[O:1]=[C:2]([N+:3]([C@:4]1([H:9])[N:5]=[C:6]1[H:10])=[N-:7])[H:8]"
O        2.50539081       0.41482347      -0.31952483
C        1.77188756      -0.33337985       0.24206113
N        0.36058691      -0.20330591       0.18877235
C       -0.40371593       0.82351300      -0.33802491
N       -1.64067012       1.00539308       0.39887756
C       -1.67790656      -0.21971210      -0.04001527
N       -0.48298550      -1.09303256       0.63078161
H        2.03830620      -1.21993719       0.83709586
H       -0.01598136       1.57090300      -1.00978951
H       -2.45491201      -0.74526493      -0.59023400
10
Frame=7 idx=007766 GeodesicLength=0.3738107562818217 rxn_smarts="[O:1]=[C:2]([n:3]1[c:4]([H:9])[n:5][c:6]([H:10])[n:7]1)[H:8]>>[O:1]=[C:2]([N+:3]([C@:4]1([H:9])[N:5]=[C:6]1[H:10])=[N-:7])[H:8]"
O        2.50167717       0.42568211      -0.31391435
C        1.77360909      -0.33006492       0.24453227
N        0.36050792      -0.19683863       0.21140693
C       -0.40324066       0.82392378      -0.33722749
N       -1.64360877       1.01038180       0.37913984
C       -1.68490909      -0.21955758      -0.04703185
N       -0.47693183      -1.09874344       0.63435182
H        2.04375886      -1.23047957       0.81665963
H       -0.00105518       1.56503184      -1.00761326
H       -2.46980752      -0.74933538      -0.58030355
10
Frame=8 idx=007766 GeodesicLength=0.4274104202497895 rxn_smarts="[O:1]=[C:2]([n:3]1[c:4]([H:9])[n:5][c:6]([H:10])[n:7]1)[H:8]>>[O:1]=[C:2]([N+:3]([C@:4]1([H:9])[N:5]=[C:6]1[H:10])=[N-:7])[H:8]"
O        2.49811283       0.43962591      -0.30316728
C        1.77493840      -0.32706540       0.24651153
N        0.36038031      -0.19032027       0.23440111
C       -0.40236227       0.82371149      -0.33742703
N       -1.64574198       1.01582856       0.35824530
C       -1.69177825      -0.21921846      -0.05397492
N       -0.47050730      -1.10404690       0.63861356
H        2.04845248      -1.24273474       0.79218540
H        0.01397385       1.55758869      -1.00733885
H       -2.48546808      -0.75336889      -0.56804881
10
Frame=9 idx=007766 GeodesicLength=0.4808083338444754 rxn_smarts="[O:1]=[C:2]([n:3]1[c:4]([H:9])[n:5][c:6]([H:10])[n:7]1)[H:8]>>[O:1]=[C:2]([N+:3]([C@:4]1([H:9])[N:5]=[C:6]1[H:10])=[N-:7])[H:8]"
O        2.49461696       0.45408152      -0.29067149
C        1.77608588      -0.32432521       0.24791698
N        0.36021727      -0.18445244       0.25592359
C       -0.40117574       0.82304238      -0.33820499
N       -1.64683557       1.02084490       0.33762395
C       -1.69866767      -0.21880730      -0.06120977
N       -0.46362895      -1.11010809       0.64128476
H        2.05278324      -1.25358305       0.76854470
H        0.02901834       1.54981044      -1.00727919
H       -2.50241376      -0.75650314      -0.55392855
10
Frame=10 idx=007766 GeodesicLength=0.5344658392361071 rxn_smarts="[O:1]=[C:2]([n:3]1[c:4]([H:9])[n:5][c:6]([H:10])[n:7]1)[H:8]>>[O:1]=[C:2]([N+:3]([C@:4]1([H:9])[N:5]=[C:6]1[H:10])=[N-:7])[H:8]"
O        2.49132420       0.46866689      -0.27740871
C        1.77709751      -0.32089982       0.25027433
N        0.36002799      -0.17956605       0.27609461
C       -0.39970129       0.82190300      -0.33945643
N       -1.64703630       1.02558208       0.31715907
C       -1.70562716      -0.21834290      -0.06890347
N       -0.45632862      -1.11705147       0.64245174
H        2.05671299      -1.26326964       0.74515714
H        0.04413135       1.54175749      -1.00729983
H       -2.52060067      -0.75877959      -0.53806846
10
Frame=11 idx=007766 GeodesicLength=0.588094684420188 rxn_smarts="[O:1]=[C:2]([n:3]1[c:4]([H:9])[n:5][c:6]([H:10])[n:7]1)[H:8]>>[O:1]=[C:2]([N+:3]([C@:4]1([H:9])[N:5]=[C:6]1[H:10])=[N-:7])[H:8]"
O        2.48833339       0.48435880      -0.26149587
C        1.77810915      -0.31686033       0.25366994
N        0.35965658      -0.17542664       0.29493229
C       -0.39798843       0.82014158      -0.34167085
N       -1.64637662       1.03013068       0.29635654
C       -1.71273392      -0.21778185      -0.07693535
N       -0.44874402      -1.12453653       0.64255446
H        2.06043886      -1.27275685       0.72036632
H        0.05941363       1.53295033      -1.00811236
H       -2.54010862      -0.76021919      -0.51966512
10
Frame=12 idx=007766 GeodesicLength=0.6418458513054021 rxn_smarts="[O:1]=[C:2]([n:3]1[c:4]([H:9])[n:5][c:6]([H:10])[n:7]1)[H:8]>>[O:1]=[C:2]([N+:3]([C@:4]1([H:9])[N:5]=[C:6]1[H:10])=[N-:7])[H:8]"
O        2.48540582       0.49965604      -0.24557443
C        1.77917348      -0.31234533       0.25787170
N        0.35918402      -0.17250544       0.31189574
C       -0.39607387       0.81797739      -0.34434406
N       -1.64487253       1.03417998       0.27601030
C       -1.72003634      -0.21716648      -0.08567585
N       -0.44078009      -1.13330308       0.64031197
H        2.06419236      -1.28032039       0.69735814
H        0.07474876       1.52425633      -1.00860267
H       -2.56094161      -0.76042901      -0.49925082
10
Frame=13 idx=007766 GeodesicLength=0.6957979318758808 rxn_smarts="[O:1]=[C:2]([n:3]1[c:4]([H:9])[n:5][c:6]([H:10])[n:7]1)[H:8]>>[O:1]=[C:2]([N+:3]([C@:4]1([H:9])[N:5]=[C:6]1[H:10])=[N-:7])[H:8]"
O        2.48246901       0.51492692      -0.22906317
C        1.78027657      -0.30730566       0.26309902
N        0.35859571      -0.17069449       0.32733419
C       -0.39395947       0.81538040      -0.34756944
N       -1.64268097       1.03790329       0.25574943
C       -1.72754956      -0.21647894      -0.09518814
N       -0.43248565      -1.14310996       0.63613564
H        2.06798978      -1.28654518       0.67510355
H        0.09019446       1.51547333      -1.00902123
H       -2.58284989      -0.75954971      -0.47657985
10
Frame=14 idx=007766 GeodesicLength=0.7496311317064615 rxn_smarts="[O:1]=[C:2]([n:3]1[c:4]([H:9])[n:5][c:6]([H:10])[n:7]1)[H:8]>>[O:1]=[C:2]([N+:3]([C@:4]1([H:9])[N:5]=[C:6]1[H:10])=[N-:7])[H:8]"
O        2.47948500       0.53039971      -0.21165815
C        1.78141457      -0.30222331       0.26857557
N        0.35775262      -0.17007810       0.34086244
C       -0.39171493       0.81233718      -0.35148276
N       -1.63969766       1.04111368       0.23578475
C       -1.73531918      -0.21568188      -0.10552156
N       -0.42388622      -1.15417792       0.62938339
H        2.07211599      -1.29114810       0.65466062
H        0.10566986       1.50665687      -1.00941821
H       -2.60582007      -0.75719814      -0.45118607
10
Frame=15 idx=007766 GeodesicLength=0.8034564899573657 rxn_smarts="[O:1]=[C:2]([n:3]1[c:4]([H:9])[n:5][c:6]([H:10])[n:7]1)[H:8]>>[O:1]=[C:2]([N+:3]([C@:4]1([H:9])[N:5]=[C:6]1[H:10])=[N-:7])[H:8]"
O        2.47621917       0.54508611      -0.19519630
C        1.78245362      -0.29705033       0.27432158
N        0.35673909      -0.17058413       0.35290899
C       -0.38939453       0.80911897      -0.35551172
N       -1.63629098       1.04384415       0.21631006
C       -1.74332376      -0.21480081      -0.11681415
N       -0.41496852      -1.16632370       0.62039361
H        2.07649345      -1.29390216       0.63682858
H        0.12103077       1.49825873      -1.00910693
H       -2.62895830      -0.75364681      -0.42413372
10
Frame=16 idx=007766 GeodesicLength=0.8573588027774648 rxn_smarts="[O:1]=[C:2]([n:3]1[c:4]([H:9])[n:5][c:6]([H:10])[n:7]1)[H:8]>>[O:1]=[C:2]([N+:3]([C@:4]1([H:9])[N:5]=[C:6]1[H:10])=[N-:7])[H:8]"
O        2.47277343       0.55953938      -0.17877113
C        1.78344951      -0.29197330       0.28004078
N        0.35548171      -0.17219897       0.36340628
C       -0.38708213       0.80568316      -0.35987934
N       -1.63245822       1.04617542       0.19724970
C       -1.75168896      -0.21379298      -0.12894640
N       -0.40575164      -1.17954538       0.60913596
H        2.08128620      -1.29520515       0.62134968
H        0.13618291       1.49007691      -1.00852425
H       -2.65219281      -0.74875909      -0.39506130
