15
Frame=0 idx=010618 GeodesicLength=0.0 rxn_smarts="[O:1]=[C:2]1[C:3]([H:8])([H:9])[C:4]([H:10])([H:11])[C@@:5]2([H:12])[C:6]([H:13])([H:14])[C@@:7]12[H:15]>>[C:3](=[C:4]([H:10])[H:11])([H:8])[H:9].[C:5]1([H:12])=[C:7]([H:15])[C:6]1([H:13])[H:14].[O+:1]#[C-:2]"
O       -0.02862889       2.85857607       0.25314947
C       -0.00183793       1.75873987      -0.04258460
C       -1.77632881       0.29861870      -0.42215333
C       -1.40013200      -0.88317938       0.12095381
C        0.86604255      -0.82275403       0.64992702
C        1.57565053      -0.50264176      -0.60817069
C        1.38153298       0.40401323       0.56178312
H       -1.75791852       0.45757262      -1.49258683
H       -2.33230890       1.02546253       0.15700806
H       -1.65395368      -1.11750876       1.14696091
H       -1.11461696      -1.71427567      -0.50988180
H        0.74330758      -1.62871217       1.34866903
H        0.97931126      -0.28983905      -1.50062881
H        2.55360361      -0.93007678      -0.81766377
H        1.96627719       1.08600454       1.15521846
15
Frame=1 idx=010618 GeodesicLength=0.042559091192318856 rxn_smarts="[O:1]=[C:2]1[C:3]([H:8])([H:9])[C:4]([H:10])([H:11])[C@@:5]2([H:12])[C:6]([H:13])([H:14])[C@@:7]12[H:15]>>[C:3](=[C:4]([H:10])[H:11])([H:8])[H:9].[C:5]1([H:12])=[C:7]([H:15])[C:6]1([H:13])[H:14].[O+:1]#[C-:2]"
O       -0.03116100       2.85838028       0.26428630
C       -0.00468181       1.76439664      -0.05713860
C       -1.76732717       0.30871992      -0.42266629
C       -1.39401212      -0.87447546       0.12989845
C        0.86801864      -0.83360633       0.64591744
C        1.57749591      -0.50213444      -0.61019009
C        1.37365622       0.40136725       0.56145157
H       -1.75801423       0.45169773      -1.49590326
H       -2.34623491       1.02768486       0.14405899
H       -1.66276006      -1.10244067       1.15385719
H       -1.12690694      -1.71358828      -0.49889269
H        0.77149501      -1.64575461       1.34206835
H        0.98074241      -0.30108797      -1.50449627
H        2.56217171      -0.91467907      -0.81713128
H        1.95751833       1.07552016       1.16488018
15
Frame=2 idx=010618 GeodesicLength=0.08503492890250194 rxn_smarts="[O:1]=[C:2]1[C:3]([H:8])([H:9])[C:4]([H:10])([H:11])[C@@:5]2([H:12])[C:6]([H:13])([H:14])[C@@:7]12[H:15]>>[C:3](=[C:4]([H:10])[H:11])([H:8])[H:9].[C:5]1([H:12])=[C:7]([H:15])[C:6]1([H:13])[H:14].[O+:1]#[C-:2]"
O       -0.03352677       2.85791102       0.27485740
C       -0.00751277       1.77006837      -0.07119393
C       -1.75842288       0.31878631      -0.42319279
C       -1.38785116      -0.86571621       0.13892000
C        0.87000626      -0.84462569       0.64190753
C        1.57913360      -0.50150515      -0.61217134
C        1.36568927       0.39851985       0.56133849
H       -1.75767591       0.44576239      -1.49893235
H       -2.36001491       1.02939033       0.13067551
H       -1.67156088      -1.08710236       1.16061765
H       -1.13928611      -1.71259289      -0.48758488
H        0.80002535      -1.66246867       1.33504885
H        0.98209560      -0.31210091      -1.50823180
H        2.57026556      -0.89906517      -0.81669698
H        1.94863576       1.06473876       1.17463863
15
Frame=3 idx=010618 GeodesicLength=0.12741406380126788 rxn_smarts="[O:1]=[C:2]1[C:3]([H:8])([H:9])[C:4]([H:10])([H:11])[C@@:5]2([H:12])[C:6]([H:13])([H:14])[C@@:7]12[H:15]>>[C:3](=[C:4]([H:10])[H:11])([H:8])[H:9].[C:5]1([H:12])=[C:7]([H:15])[C:6]1([H:13])[H:14].[O+:1]#[C-:2]"
O       -0.03571649       2.85721637       0.28487171
C       -0.01033552       1.77576079      -0.08478726
C       -1.74963080       0.32882080      -0.42370484
C       -1.38164436      -0.85693107       0.14797076
C        0.87198804      -0.85577514       0.63792584
C        1.58056001      -0.50078725      -0.61409537
C        1.35764717       0.39549212       0.56143163
H       -1.75696357       0.43982174      -1.50165562
H       -2.37360282       1.03054666       0.11697284
H       -1.68037418      -1.07161937       1.16716137
H       -1.15170424      -1.71126588      -0.47605438
H        0.82884897      -1.67875213       1.32768455
H        0.98338671      -0.32289874      -1.51183487
H        2.57786623      -0.88333337      -0.81631715
H        1.93967485       1.05370447       1.18443079
15
Frame=4 idx=010618 GeodesicLength=0.16965565494037874 rxn_smarts="[O:1]=[C:2]1[C:3]([H:8])([H:9])[C:4]([H:10])([H:11])[C@@:5]2([H:12])[C:6]([H:13])([H:14])[C@@:7]12[H:15]>>[C:3](=[C:4]([H:10])[H:11])([H:8])[H:9].[C:5]1([H:12])=[C:7]([H:15])[C:6]1([H:13])[H:14].[O+:1]#[C-:2]"
O       -0.03774304       2.85632346       0.29438982
C       -0.01313869       1.78145253      -0.09795246
C       -1.74096063       0.33881836      -0.42418546
C       -1.37538554      -0.84814839       0.15699852
C        0.87394909      -0.86701236       0.63398976
C        1.58176765      -0.50001270      -0.61594486
C        1.34955703       0.39230528       0.56169344
H       -1.75593979       0.43392458      -1.50405569
H       -2.38695260       1.03115304       0.10305553
H       -1.68921382      -1.05610915       1.17340449
H       -1.16410035      -1.70960346      -0.46439549
H        0.85789534      -1.69447942       1.32007318
H        0.98462662      -0.33349492      -1.51529743
H        2.58494499      -0.86758390      -0.81594054
H        1.93069372       1.04246706       1.19416717
15
Frame=5 idx=010618 GeodesicLength=0.21180942757116317 rxn_smarts="[O:1]=[C:2]1[C:3]([H:8])([H:9])[C:4]([H:10])([H:11])[C@@:5]2([H:12])[C:6]([H:13])([H:14])[C@@:7]12[H:15]>>[C:3](=[C:4]([H:10])[H:11])([H:8])[H:9].[C:5]1([H:12])=[C:7]([H:15])[C:6]1([H:13])[H:14].[O+:1]#[C-:2]"
O       -0.03961953       2.85524304       0.30349706
C       -0.01594123       1.78715742      -0.11069502
C       -1.73241688       0.34878228      -0.42465757
C       -1.36909190      -0.83935184       0.16603869
C        0.87589058      -0.87835106       0.63009103
C        1.58275609      -0.49918810      -0.61773498
C        1.34141239       0.38895090       0.56212960
H       -1.75454679       0.42803245      -1.50618144
H       -2.40008595       1.03120110       0.08885284
H       -1.69806070      -1.04048781       1.17940219
H       -1.17650299      -1.70760627      -0.45254546
H        0.88719704      -1.70967878       1.31216180
H        0.98580385      -0.34391328      -1.51864080
H        2.59152440      -0.85179392      -0.81559613
H        1.92168160       1.03100387       1.20387818
15
Frame=6 idx=010618 GeodesicLength=0.25390389166166055 rxn_smarts="[O:1]=[C:2]1[C:3]([H:8])([H:9])[C:4]([H:10])([H:11])[C@@:5]2([H:12])[C:6]([H:13])([H:14])[C@@:7]12[H:15]>>[C:3](=[C:4]([H:10])[H:11])([H:8])[H:9].[C:5]1([H:12])=[C:7]([H:15])[C:6]1([H:13])[H:14].[O+:1]#[C-:2]"
O       -0.04138392       2.85396627       0.31233966
C       -0.01874512       1.79286660      -0.12301386
C       -1.72399118       0.35870227      -0.42515788
C       -1.36277832      -0.83052366       0.17512591
C        0.87781082      -0.88980183       0.62620443
C        1.58351569      -0.49831604      -0.61948446
C        1.33321401       0.38541910       0.56272285
H       -1.75271245       0.42209059      -1.50808423
H       -2.41301503       1.03070400       0.07426557
H       -1.70688203      -1.02464712       1.18521781
H       -1.18893603      -1.70529390      -0.44042543
H        0.91676278      -1.72435302       1.30390830
H        0.98689978      -0.35417021      -1.52188243
H        2.59760757      -0.83593336      -0.81530906
H        1.91263344       1.01929029       1.21357282
15
Frame=7 idx=010618 GeodesicLength=0.2959658509786421 rxn_smarts="[O:1]=[C:2]1[C:3]([H:8])([H:9])[C:4]([H:10])([H:11])[C@@:5]2([H:12])[C:6]([H:13])([H:14])[C@@:7]12[H:15]>>[C:3](=[C:4]([H:10])[H:11])([H:8])[H:9].[C:5]1([H:12])=[C:7]([H:15])[C:6]1([H:13])[H:14].[O+:1]#[C-:2]"
O       -0.04308399       2.85247011       0.32105357
C       -0.02155594       1.79857844      -0.13490099
C       -1.71567796       0.36857250      -0.42572301
C       -1.35645867      -0.82164035       0.18429303
C        0.87971114      -0.90137570       0.62230595
C        1.58403987      -0.49739946      -0.62121479
C        1.32496506       0.38169756       0.56345985
H       -1.75036491       0.41605119      -1.50981528
H       -2.42575193       1.02966076       0.05919735
H       -1.71564111      -1.00847436       1.19091249
H       -1.20142294      -1.70268056      -0.42795516
H        0.94659576      -1.73849862       1.29527457
H        0.98789940      -0.36427916      -1.52504388
H        2.60319805      -0.81997985      -0.81510509
H        1.90354816       1.00729748       1.22326139
15
Frame=8 idx=010618 GeodesicLength=0.3379734479916575 rxn_smarts="[O:1]=[C:2]1[C:3]([H:8])([H:9])[C:4]([H:10])([H:11])[C@@:5]2([H:12])[C:6]([H:13])([H:14])[C@@:7]12[H:15]>>[C:3](=[C:4]([H:10])[H:11])([H:8])[H:9].[C:5]1([H:12])=[C:7]([H:15])[C:6]1([H:13])[H:14].[O+:1]#[C-:2]"
O       -0.04469062       2.85078933       0.32959694
C       -0.02437882       1.80429147      -0.14637925
C       -1.70749327       0.37839432      -0.42631968
C       -1.35012648      -0.81273365       0.19349310
C        0.88157757      -0.91303857       0.61842568
C        1.58432595      -0.49646214      -0.62290441
C        1.31668327       0.37781004       0.56433362
H       -1.74757562       0.40996991      -1.51134677
H       -2.43825220       1.02805472       0.04377269
H       -1.72435501      -0.99210377       1.19640662
H       -1.21390768      -1.69974732      -0.41523948
H        0.97662851      -1.75203299       1.28632672
H        0.98881366      -0.37424595      -1.52811499
H        2.60828192      -0.80401902      -0.81494471
H        1.89446882       0.99507365       1.23289392
15
Frame=9 idx=010618 GeodesicLength=0.3798996742576485 rxn_smarts="[O:1]=[C:2]1[C:3]([H:8])([H:9])[C:4]([H:10])([H:11])[C@@:5]2([H:12])[C:6]([H:13])([H:14])[C@@:7]12[H:15]>>[C:3](=[C:4]([H:10])[H:11])([H:8])[H:9].[C:5]1([H:12])=[C:7]([H:15])[C:6]1([H:13])[H:14].[O+:1]#[C-:2]"
O       -0.04619031       2.84894808       0.33794719
C       -0.02721469       1.81000214      -0.15747650
C       -1.69945125       0.38817310      -0.42691889
C       -1.34377519      -0.80383397       0.20267396
C        0.88340028      -0.92475375       0.61459586
C        1.58437342      -0.49553182      -0.62453487
C        1.30839232       0.37378074       0.56532899
H       -1.74442265       0.40390968      -1.51265194
H       -2.45047367       1.02587500       0.02812434
H       -1.73304313      -0.97567681       1.20161454
H       -1.22633108      -1.69647958      -0.40239400
H        1.00678400      -1.76485705       1.27715980
H        0.98965372      -0.38408125      -1.53108585
H        2.61284704      -0.78814313      -0.81479336
H        1.88545119       0.98266861       1.24241073
15
Frame=10 idx=010618 GeodesicLength=0.4217717770794386 rxn_smarts="[O:1]=[C:2]1[C:3]([H:8])([H:9])[C:4]([H:10])([H:11])[C@@:5]2([H:12])[C:6]([H:13])([H:14])[C@@:7]12[H:15]>>[C:3](=[C:4]([H:10])[H:11])([H:8])[H:9].[C:5]1([H:12])=[C:7]([H:15])[C:6]1([H:13])[H:14].[O+:1]#[C-:2]"
O       -0.04761523       2.84693164       0.34621308
C       -0.03007169       1.81571347      -0.16817475
C       -1.69154899       0.39790107      -0.42754998
C       -1.33742048      -0.79492147       0.21187354
C        0.88518006      -0.93653129       0.61079702
C        1.58417469      -0.49460604      -0.62612446
C        1.30009454       0.36960290       0.56643988
H       -1.74082640       0.39781487      -1.51378211
H       -2.46242967       1.02312177       0.01215472
H       -1.74167383      -0.95908504       1.20660091
H       -1.23872092      -1.69289309      -0.38934148
H        1.03706543      -1.77698921       1.26771839
H        0.99040075      -0.39379401      -1.53397547
H        2.61689890      -0.77232538      -0.81467940
H        1.87649283       0.97005982       1.25183012
15
Frame=11 idx=010618 GeodesicLength=0.4635770215694201 rxn_smarts="[O:1]=[C:2]1[C:3]([H:8])([H:9])[C:4]([H:10])([H:11])[C@@:5]2([H:12])[C:6]([H:13])([H:14])[C@@:7]12[H:15]>>[C:3](=[C:4]([H:10])[H:11])([H:8])[H:9].[C:5]1([H:12])=[C:7]([H:15])[C:6]1([H:13])[H:14].[O+:1]#[C-:2]"
O       -0.04893050       2.84477107       0.35433475
C       -0.03295968       1.82141809      -0.17851174
C       -1.68379567       0.40758299      -0.42818848
C       -1.33104870      -0.78603103       0.22103527
C        0.88690637      -0.94834141       0.60706134
C        1.58373178      -0.49370747      -0.62765220
C        1.29180505       0.36530048       0.56766165
H       -1.73688484       0.39175560      -1.51470023
H       -2.47407339       1.01979079      -0.00398810
H       -1.75025674      -0.94247382       1.21128789
H       -1.25101162      -1.68897536      -0.37620244
H        1.06738216      -1.78835317       1.25809036
H        0.99106535      -0.40339153      -1.53676752
H        2.62043392      -0.75664030      -0.81457231
H        1.86763651       0.95729505       1.26111177
15
Frame=12 idx=010618 GeodesicLength=0.5053241415395429 rxn_smarts="[O:1]=[C:2]1[C:3]([H:8])([H:9])[C:4]([H:10])([H:11])[C@@:5]2([H:12])[C:6]([H:13])([H:14])[C@@:7]12[H:15]>>[C:3](=[C:4]([H:10])[H:11])([H:8])[H:9].[C:5]1([H:12])=[C:7]([H:15])[C:6]1([H:13])[H:14].[O+:1]#[C-:2]"
O       -0.05018593       2.84244464       0.36239711
C       -0.03587493       1.82712063      -0.18847216
C       -1.67619038       0.41721519      -0.42884975
C       -1.32467543      -0.77713978       0.23020245
C        0.88858655      -0.96019246       0.60336907
C        1.58304071      -0.49283124      -0.62913271
C        1.28353028       0.36086596       0.56898508
H       -1.73252357       0.38568184      -1.51545054
H       -2.48541432       1.01588703      -0.02039266
H       -1.75875736      -0.92574528       1.21573163
H       -1.26322604      -1.68473691      -0.36290625
H        1.09772448      -1.79897948       1.24821458
H        0.99163237      -0.41288096      -1.53947703
H        2.62345895      -0.74106195      -0.81448856
H        1.85887464       0.94435276       1.27026973
15
Frame=13 idx=010618 GeodesicLength=0.5470074826747344 rxn_smarts="[O:1]=[C:2]1[C:3]([H:8])([H:9])[C:4]([H:10])([H:11])[C@@:5]2([H:12])[C:6]([H:13])([H:14])[C@@:7]12[H:15]>>[C:3](=[C:4]([H:10])[H:11])([H:8])[H:9].[C:5]1([H:12])=[C:7]([H:15])[C:6]1([H:13])[H:14].[O+:1]#[C-:2]"
O       -0.05134222       2.83998742       0.37036001
C       -0.03883308       1.83281499      -0.19808278
C       -1.66874481       0.42680289      -0.42951431
C       -1.31829144      -0.76828201       0.23931633
C        0.89021116      -0.97205393       0.59975277
C        1.58210586      -0.49200053      -0.63055055
C        1.27528696       0.35632614       0.57040526
H       -1.72783459       0.37965831      -1.51600329
H       -2.49642207       1.01140666      -0.03692234
H       -1.76719064      -0.90903587       1.21986150
H       -1.27530181      -1.68017450      -0.34957401
H        1.12800868      -1.80878790       1.23819153
H        0.99211282      -0.42227072      -1.54209317
H        2.62597407      -0.72567356      -0.81441079
H        1.85026112       0.93128261       1.27926384
15
Frame=14 idx=010618 GeodesicLength=0.5886404117210878 rxn_smarts="[O:1]=[C:2]1[C:3]([H:8])([H:9])[C:4]([H:10])([H:11])[C@@:5]2([H:12])[C:6]([H:13])([H:14])[C@@:7]12[H:15]>>[C:3](=[C:4]([H:10])[H:11])([H:8])[H:9].[C:5]1([H:12])=[C:7]([H:15])[C:6]1([H:13])[H:14].[O+:1]#[C-:2]"
O       -0.05242685       2.83738372       0.37828499
C       -0.04183319       1.83850577      -0.20733413
C       -1.66145384       0.43633563      -0.43020052
C       -1.31190832      -0.75944080       0.24841925
C        0.89178530      -0.98393416       0.59619234
C        1.58092525      -0.49120282      -0.63192139
C        1.26708024       0.35167762       0.57191963
H       -1.72274975       0.37363560      -1.51639645
H       -2.50710117       1.00635205      -0.05365939
H       -1.77552330      -0.89225462       1.22374179
H       -1.28726627      -1.67530273      -0.33613302
H        1.15820751      -1.81782457       1.22795515
H        0.99249215      -0.43156256      -1.54463216
H        2.62799174      -0.71043347      -0.81436066
H        1.84178050       0.91806536       1.28812456
15
Frame=15 idx=010618 GeodesicLength=0.630267091064004 rxn_smarts="[O:1]=[C:2]1[C:3]([H:8])([H:9])[C:4]([H:10])([H:11])[C@@:5]2([H:12])[C:6]([H:13])([H:14])[C@@:7]12[H:15]>>[C:3](=[C:4]([H:10])[H:11])([H:8])[H:9].[C:5]1([H:12])=[C:7]([H:15])[C:6]1([H:13])[H:14].[O+:1]#[C-:2]"
O       -0.05350048       2.83459315       0.38631094
C       -0.04488980       1.84419883      -0.21620016
C       -1.65430482       0.44580419      -0.43095768
C       -1.30553586      -0.75058622       0.25754872
C        0.89331215      -0.99584717       0.59265802
C        1.57949138      -0.49043305      -0.63327358
C        1.25891619       0.34691035       0.57351980
H       -1.71717424       0.36755138      -1.51668315
H       -2.51746576       1.00071803      -0.07073440
H       -1.78370267      -0.87525714       1.22745756
H       -1.29915205      -1.67014239      -0.32248133
H        1.18830324      -1.82610947       1.21746528
H        0.99275194      -0.44075823      -1.54711886
H        2.62951501      -0.69530990      -0.81438351
H        1.83343576       0.90466762       1.29687235
15
Frame=16 idx=010618 GeodesicLength=0.6719010281908236 rxn_smarts="[O:1]=[C:2]1[C:3]([H:8])([H:9])[C:4]([H:10])([H:11])[C@@:5]2([H:12])[C:6]([H:13])([H:14])[C@@:7]12[H:15]>>[C:3](=[C:4]([H:10])[H:11])([H:8])[H:9].[C:5]1([H:12])=[C:7]([H:15])[C:6]1([H:13])[H:14].[O+:1]#[C-:2]"
O       -0.05456908       2.83160636       0.39446426
C       -0.04800518       1.84989442      -0.22467579
C       -1.64727998       0.45519637      -0.43180435
C       -1.29917507      -0.74170514       0.26673165
C        0.89478616      -1.00779468       0.58913335
C        1.57779641      -0.48967419      -0.63461079
C        1.25079150       0.34202437       0.57520955
H       -1.71106098       0.36136158      -1.51687729
H       -2.52749802       0.99448746      -0.08820409
H       -1.79168966      -0.85796656       1.23105820
H       -1.31097241      -1.66470148      -0.30855948
H        1.21824766      -1.83368918       1.20664476
H        0.99288169      -0.44985576      -1.54955366
H        2.63054140      -0.68025811      -0.81449039
H        1.82520557       0.89107455       1.30553408
