18
Frame=0 idx=011581 GeodesicLength=0.0 rxn_smarts="[C:1]([C:2]([C@@:3]([C:4]([H:14])([H:15])[H:16])([N:5]([C:6](=[O:7])[H:18])[H:17])[H:13])([H:11])[H:12])([H:8])([H:9])[H:10]>>[C:1](=[C:2]([H:11])[H:12])([H:8])[H:10].[C:3](\[C:4]([H:14])([H:15])[H:16])(=[N:5]\[H:17])[H:13].[C:6](=[O:7])([H:9])[H:18]"
C       -1.59863182      -0.75112650      -0.95901452
C       -1.39291424       0.54260473      -0.57553745
C        0.81150625       0.64141989       0.34451889
C        0.61972910       1.54518277       1.51308500
N        1.02168340      -0.63724292       0.48255102
C        0.99764440      -1.46278204      -0.74493832
O        1.34414572      -0.88907473      -1.80396794
H       -1.46587243      -1.03385059      -1.99738308
H       -0.25416250      -1.56728354      -0.66286051
H       -2.20892841      -1.41030322      -0.34964384
H       -1.09006127       1.28504723      -1.30121247
H       -1.80655922       0.90896838       0.35644414
H        1.14144627       1.02311984      -0.61502333
H        0.04111781       2.42338740       1.23054240
H        0.11377868       1.04386487       2.33990369
H        1.59327067       1.89437253       1.86848632
H        0.75881376      -1.08518197       1.35098908
H        1.37399387      -2.47112208      -0.47693907
18
Frame=1 idx=011581 GeodesicLength=0.11090291525257431 rxn_smarts="[C:1]([C:2]([C@@:3]([C:4]([H:14])([H:15])[H:16])([N:5]([C:6](=[O:7])[H:18])[H:17])[H:13])([H:11])[H:12])([H:8])([H:9])[H:10]>>[C:1](=[C:2]([H:11])[H:12])([H:8])[H:10].[C:3](\[C:4]([H:14])([H:15])[H:16])(=[N:5]\[H:17])[H:13].[C:6](=[O:7])([H:9])[H:18]"
C       -1.59691439      -0.74532905      -0.97112282
C       -1.40378063       0.54480262      -0.55767440
C        0.79415564       0.63745202       0.34475445
C        0.62864650       1.55356705       1.50864041
N        1.02512937      -0.63982269       0.49498757
C        1.01214451      -1.48170831      -0.74421041
O        1.37564480      -0.91478594      -1.79820441
H       -1.44841575      -0.99927844      -2.01506903
H       -0.26150583      -1.58765103      -0.67311617
H       -2.23572381      -1.40780865      -0.39533998
H       -1.12798434       1.30801759      -1.27313729
H       -1.83478436       0.88775518       0.37583980
H        1.12688693       1.01403008      -0.61655702
H        0.04260739       2.42811892       1.22934552
H        0.14038309       1.06079864       2.35116334
H        1.60895947       1.90778374       1.83912189
H        0.75893965      -1.08168837       1.36568114
H        1.39561174      -2.48425334      -0.46510260
18
Frame=2 idx=011581 GeodesicLength=0.2211214678844458 rxn_smarts="[C:1]([C:2]([C@@:3]([C:4]([H:14])([H:15])[H:16])([N:5]([C:6](=[O:7])[H:18])[H:17])[H:13])([H:11])[H:12])([H:8])([H:9])[H:10]>>[C:1](=[C:2]([H:11])[H:12])([H:8])[H:10].[C:3](\[C:4]([H:14])([H:15])[H:16])(=[N:5]\[H:17])[H:13].[C:6](=[O:7])([H:9])[H:18]"
C       -1.59517571      -0.73913799      -0.98273773
C       -1.41490897       0.54674428      -0.53948238
C        0.77678099       0.63312689       0.34534922
C        0.63744712       1.56184136       1.50367382
N        1.02865697      -0.64235998       0.50763388
C        1.02686171      -1.50073496      -0.74355347
O        1.40700430      -0.94001007      -1.79201222
H       -1.43029772      -0.96397848      -2.03118545
H       -0.26925667      -1.60815368      -0.68410967
H       -2.26214288      -1.40365381      -0.44211152
H       -1.16592132       1.32978511      -1.24395880
H       -1.86303270       0.86586991       0.39493859
H        1.11210013       1.00456362      -0.61779897
H        0.04419484       2.43280266       1.22763877
H        0.16705930       1.07805162       2.36150967
H        1.62398597       1.92078926       1.80906950
H        0.75917070      -1.07827799       1.38047342
H        1.41747395      -2.49726775      -0.45333665
18
Frame=3 idx=011581 GeodesicLength=0.33071283783866484 rxn_smarts="[C:1]([C:2]([C@@:3]([C:4]([H:14])([H:15])[H:16])([N:5]([C:6](=[O:7])[H:18])[H:17])[H:13])([H:11])[H:12])([H:8])([H:9])[H:10]>>[C:1](=[C:2]([H:11])[H:12])([H:8])[H:10].[C:3](\[C:4]([H:14])([H:15])[H:16])(=[N:5]\[H:17])[H:13].[C:6](=[O:7])([H:9])[H:18]"
C       -1.59344898      -0.73256957      -0.99381158
C       -1.42626964       0.54842194      -0.52097337
C        0.75939182       0.62844920       0.34631748
C        0.64609618       1.56998598       1.49819935
N        1.03228094      -0.64484829       0.52048827
C        1.04180125      -1.51985418      -0.74299409
O        1.43821048      -0.96473484      -1.78543496
H       -1.41158369      -0.92802799      -2.04564751
H       -0.27743193      -1.62876871      -0.69590472
H       -2.28809354      -1.39771645      -0.48981491
H       -1.20379113       1.35028022      -1.21378619
H       -1.89131849       0.84338464       0.41365688
H        1.09711479       0.99472324      -0.61872959
H        0.04585827       2.43742694       1.22541714
H        0.19373897       1.09559505       2.37093151
H        1.63831680       1.93335823       1.77838431
H        0.75955096      -1.07495359       1.39537182
H        1.43957696      -2.51015180      -0.44166984
18
Frame=4 idx=011581 GeodesicLength=0.4397485638741518 rxn_smarts="[C:1]([C:2]([C@@:3]([C:4]([H:14])([H:15])[H:16])([N:5]([C:6](=[O:7])[H:18])[H:17])[H:13])([H:11])[H:12])([H:8])([H:9])[H:10]>>[C:1](=[C:2]([H:11])[H:12])([H:8])[H:10].[C:3](\[C:4]([H:14])([H:15])[H:16])(=[N:5]\[H:17])[H:13].[C:6](=[O:7])([H:9])[H:18]"
C       -1.59176368      -0.72564046      -1.00431971
C       -1.43783618       0.54982558      -0.50215276
C        0.74199724       0.62342386       0.34767212
C        0.65456701       1.57798730       1.49222870
N        1.03601233      -0.64728085       0.53355183
C        1.05697351      -1.53906170      -0.74255023
O        1.46925894      -0.98895817      -1.77850993
H       -1.39233409      -0.89149933      -2.05838660
H       -0.28605728      -1.64947752      -0.70857415
H       -2.31349472      -1.38989630      -0.53831534
H       -1.24152779       1.36947214      -1.18271901
H       -1.91966122       0.82035315       0.43193207
H        1.08195527       0.98450981      -0.61933276
H        0.04757786       2.44198262       1.22267321
H        0.22036584       1.11340637       2.37942333
H        1.65192664       1.94546761       1.74710918
H        0.76011912      -1.07171433       1.41038557
H        1.46192120      -2.52289979      -0.43011549
18
Frame=5 idx=011581 GeodesicLength=0.5482748189159574 rxn_smarts="[C:1]([C:2]([C@@:3]([C:4]([H:14])([H:15])[H:16])([N:5]([C:6](=[O:7])[H:18])[H:17])[H:13])([H:11])[H:12])([H:8])([H:9])[H:10]>>[C:1](=[C:2]([H:11])[H:12])([H:8])[H:10].[C:3](\[C:4]([H:14])([H:15])[H:16])(=[N:5]\[H:17])[H:13].[C:6](=[O:7])([H:9])[H:18]"
C       -1.59015163      -0.71837485      -1.01422718
C       -1.44957743       0.55095044      -0.48303532
C        0.72460825       0.61805615       0.34942526
C        0.66283002       1.58582850       1.48577693
N        1.03986437      -0.64965128       0.54682277
C        1.07239126      -1.55834921      -0.74224653
O        1.50015069      -1.01266848      -1.77128011
H       -1.37262343      -0.85448961      -2.06933232
H       -0.29514989      -1.67025429      -0.72219708
H       -2.33827281      -1.38009856      -0.58743279
H       -1.27905483       1.38732798      -1.15087131
H       -1.94807539       0.79684901       0.44967809
H        1.06665101       0.97392615      -0.61958894
H        0.04933798       2.44645916       1.21940048
H        0.24687451       1.13146312       2.38697703
H        1.66478349       1.95708355       1.71530937
H        0.76090695      -1.06855912       1.42552036
H        1.48450686      -2.53549868      -0.41869873
18
Frame=6 idx=011581 GeodesicLength=0.6563589965538683 rxn_smarts="[C:1]([C:2]([C@@:3]([C:4]([H:14])([H:15])[H:16])([N:5]([C:6](=[O:7])[H:18])[H:17])[H:13])([H:11])[H:12])([H:8])([H:9])[H:10]>>[C:1](=[C:2]([H:11])[H:12])([H:8])[H:10].[C:3](\[C:4]([H:14])([H:15])[H:16])(=[N:5]\[H:17])[H:13].[C:6](=[O:7])([H:9])[H:18]"
C       -1.58865173      -0.71080117      -1.02349975
C       -1.46146267       0.55179131      -0.46363691
C        0.70723307       0.61234939       0.35159246
C        0.67086192       1.59349377       1.47886448
N        1.04384987      -0.65195312       0.56030426
C        1.08807165      -1.57771149      -0.74210365
O        1.53087372      -1.03586109      -1.76378769
H       -1.35253714      -0.81710595      -2.07841104
H       -0.30473889      -1.69108588      -0.73684717
H       -2.36233953      -1.36821422      -0.63703129
H       -1.31630329       1.40382296      -1.11835480
H       -1.97658707       0.77295523       0.46681640
H        1.05122735       0.96297368      -0.61947809
H        0.05111742       2.45084806       1.21559259
H        0.27320126       1.14974127       2.39359656
H        1.67687067       1.96817914       1.68303541
H        0.76195527      -1.06548775       1.44078817
H        1.50735814      -2.54793415      -0.40743995
18
Frame=7 idx=011581 GeodesicLength=0.7640622477844843 rxn_smarts="[C:1]([C:2]([C@@:3]([C:4]([H:14])([H:15])[H:16])([N:5]([C:6](=[O:7])[H:18])[H:17])[H:13])([H:11])[H:12])([H:8])([H:9])[H:10]>>[C:1](=[C:2]([H:11])[H:12])([H:8])[H:10].[C:3](\[C:4]([H:14])([H:15])[H:16])(=[N:5]\[H:17])[H:13].[C:6](=[O:7])([H:9])[H:18]"
C       -1.58729503      -0.70294594      -1.03210508
C       -1.47346404       0.55233863      -0.44395575
C        0.68988357       0.60630852       0.35418872
C        0.67863959       1.60097419       1.47150647
N        1.04798617      -0.65417738       0.57400598
C        1.10403232      -1.59714647      -0.74213880
O        1.56142451      -1.05853241      -1.75607382
H       -1.33216182      -0.77945242      -2.08555826
H       -0.31485225      -1.71195657      -0.75259799
H       -2.38564054      -1.35415305      -0.68701418
H       -1.35321290       1.41893676      -1.08526162
H       -2.00521390       0.74873920       0.48327294
H        1.03570849       0.95165056      -0.61898321
H        0.05290012       2.45513879       1.21124235
H        0.29930682       1.16823112       2.39928597
H        1.68816819       1.97873799       1.65033439
H        0.76329518      -1.06249369       1.45620413
H        1.53049552      -2.56019784      -0.39635223
18
Frame=8 idx=011581 GeodesicLength=0.8714398536125938 rxn_smarts="[C:1]([C:2]([C@@:3]([C:4]([H:14])([H:15])[H:16])([N:5]([C:6](=[O:7])[H:18])[H:17])[H:13])([H:11])[H:12])([H:8])([H:9])[H:10]>>[C:1](=[C:2]([H:11])[H:12])([H:8])[H:10].[C:3](\[C:4]([H:14])([H:15])[H:16])(=[N:5]\[H:17])[H:13].[C:6](=[O:7])([H:9])[H:18]"
C       -1.58611808      -0.69484909      -1.04001951
C       -1.48555904       0.55259044      -0.42400161
C        0.67256669       0.59993592       0.35722805
C        0.68614557       1.60825736       1.46372132
N        1.05228054      -0.65631919       0.58793575
C        1.12029605      -1.61664675      -0.74236813
O        1.59180547      -1.08067851      -1.74816948
H       -1.31157875      -0.74165144      -2.09072364
H       -0.32551652      -1.73285051      -0.76955187
H       -2.40810232      -1.33784245      -0.73723667
H       -1.38971889       1.43268576      -1.05170146
H       -2.03398995       0.72427756       0.49898461
H        1.02011350       0.93995169      -0.61808579
H        0.05466557       2.45932644       1.20634059
H        0.32515740       1.18692104       2.40406379
H        1.69867161       1.98873402       1.61724974
H        0.76493925      -1.05957094       1.47178132
H        1.55394191      -2.57227134      -0.38544699
18
Frame=9 idx=011581 GeodesicLength=0.9786781006136036 rxn_smarts="[C:1]([C:2]([C@@:3]([C:4]([H:14])([H:15])[H:16])([N:5]([C:6](=[O:7])[H:18])[H:17])[H:13])([H:11])[H:12])([H:8])([H:9])[H:10]>>[C:1](=[C:2]([H:11])[H:12])([H:8])[H:10].[C:3](\[C:4]([H:14])([H:15])[H:16])(=[N:5]\[H:17])[H:13].[C:6](=[O:7])([H:9])[H:18]"
C       -1.58510567      -0.68649544      -1.04731918
C       -1.49773424       0.55252419      -0.40372361
C        0.65528994       0.59324495       0.36071804
C        0.69340631       1.61537514       1.45549344
N        1.05676282      -0.65835415       0.60214529
C        1.13686304      -1.63626698      -0.74273864
O        1.62198684      -1.10239344      -1.74007968
H       -1.29085447      -0.70363723      -2.09398978
H       -0.33685418      -1.75374182      -0.78775726
H       -2.42973644      -1.31942457      -0.78795291
H       -1.42587991       1.44517232      -1.01752346
H       -2.06287736       0.69947622       0.51400718
H        1.00443732       0.92785315      -0.61680396
H        0.05641532       2.46339926       1.20086535
H        0.35084231       1.20587790       2.40794041
H        1.70838633       1.99824297       1.58374159
H        0.76692894      -1.05665638       1.48760477
H        1.57772311      -2.58419608      -0.37462759
18
Frame=10 idx=011581 GeodesicLength=1.085670812673702 rxn_smarts="[C:1]([C:2]([C@@:3]([C:4]([H:14])([H:15])[H:16])([N:5]([C:6](=[O:7])[H:18])[H:17])[H:13])([H:11])[H:12])([H:8])([H:9])[H:10]>>[C:1](=[C:2]([H:11])[H:12])([H:8])[H:10].[C:3](\[C:4]([H:14])([H:15])[H:16])(=[N:5]\[H:17])[H:13].[C:6](=[O:7])([H:9])[H:18]"
C       -1.58432906      -0.67795330      -1.05392444
C       -1.50996970       0.55214742      -0.38317426
C        0.63805362       0.58622380       0.36467742
C        0.70036758       1.62228276       1.44685620
N        1.06141255      -0.66029363       0.61661319
C        1.15376819      -1.65596622      -0.74331502
O        1.65202992      -1.12360353      -1.73184880
H       -1.27006296      -0.66564330      -2.09525456
H       -0.34880279      -1.77458699      -0.80739033
H       -2.45040733      -1.29867822      -0.83862287
H       -1.46154115       1.45634380      -0.98301666
H       -2.09195367       0.67453278       0.52820176
H        0.98871147       0.91535683      -0.61509295
H        0.05811400       2.46734949       1.19481113
H        0.37621172       1.22503223       2.41092201
H        1.71729804       2.00717016       1.54990048
H        0.76924918      -1.05379337       1.50363485
H        1.60185038      -2.59592071      -0.36397716
18
Frame=11 idx=011581 GeodesicLength=1.1924472728411344 rxn_smarts="[C:1]([C:2]([C@@:3]([C:4]([H:14])([H:15])[H:16])([N:5]([C:6](=[O:7])[H:18])[H:17])[H:13])([H:11])[H:12])([H:8])([H:9])[H:10]>>[C:1](=[C:2]([H:11])[H:12])([H:8])[H:10].[C:3](\[C:4]([H:14])([H:15])[H:16])(=[N:5]\[H:17])[H:13].[C:6](=[O:7])([H:9])[H:18]"
C       -1.58381490      -0.66924836      -1.05982726
C       -1.52224570       0.55146286      -0.36235842
C        0.62086438       0.57887430       0.36911906
C        0.70701029       1.62896968       1.43782386
N        1.06623582      -0.66212993       0.63135221
C        1.17103007      -1.67574912      -0.74411308
O        1.68195323      -1.14430757      -1.72350880
H       -1.24929580      -0.62777882      -2.09451356
H       -0.36139401      -1.79534116      -0.82856654
H       -2.47003595      -1.27558660      -0.88904217
H       -1.49663840       1.46621239      -0.94826668
H       -2.12123231       0.64953892       0.54149820
H        0.97295121       0.90245738      -0.61294014
H        0.05975284       2.47116592       1.18816262
H        0.40121056       1.24437534       2.41301309
H        1.72539827       2.01549331       1.51577966
H        0.77190761      -1.05097230       1.51989113
H        1.62634277      -2.60743624      -0.35350318
18
Frame=12 idx=011581 GeodesicLength=1.2990408033871828 rxn_smarts="[C:1]([C:2]([C@@:3]([C:4]([H:14])([H:15])[H:16])([N:5]([C:6](=[O:7])[H:18])[H:17])[H:13])([H:11])[H:12])([H:8])([H:9])[H:10]>>[C:1](=[C:2]([H:11])[H:12])([H:8])[H:10].[C:3](\[C:4]([H:14])([H:15])[H:16])(=[N:5]\[H:17])[H:13].[C:6](=[O:7])([H:9])[H:18]"
C       -1.58359242      -0.66041092      -1.06502919
C       -1.53455038       0.55047211      -0.34128597
C        0.60372314       0.57119421       0.37405607
C        0.71332280       1.63542499       1.42840698
N        1.07122967      -0.66385901       0.64637983
C        1.18867640      -1.69561931      -0.74513451
O        1.71177210      -1.16451116      -1.71507932
H       -1.22863055      -0.59014268      -2.09177592
H       -0.37465905      -1.81596223      -0.85142242
H       -2.48855130      -1.25015160      -0.93903055
H       -1.53111853       1.47483789      -0.91334778
H       -2.15073906       0.62456476       0.55386281
H        0.95716498       0.88913753      -0.61033203
H        0.06131895       2.47483969       1.18089968
H        0.42580508       1.26390660       2.41422630
H        1.73269431       2.02319084       1.48140398
H        0.77490095      -1.04818344       1.53639743
H        1.65123290      -2.61872825      -0.34319538
18
Frame=13 idx=011581 GeodesicLength=1.4055267882092946 rxn_smarts="[C:1]([C:2]([C@@:3]([C:4]([H:14])([H:15])[H:16])([N:5]([C:6](=[O:7])[H:18])[H:17])[H:13])([H:11])[H:12])([H:8])([H:9])[H:10]>>[C:1](=[C:2]([H:11])[H:12])([H:8])[H:10].[C:3](\[C:4]([H:14])([H:15])[H:16])(=[N:5]\[H:17])[H:13].[C:6](=[O:7])([H:9])[H:18]"
C       -1.58365512      -0.65144217      -1.06954996
C       -1.54686272       0.54917236      -0.31993444
C        0.58664253       0.56318881       0.37949962
C        0.71929723       1.64165418       1.41860817
N        1.07642346      -0.66546366       0.66172741
C        1.20671792      -1.71561246      -0.74636803
O        1.74147525      -1.18425829      -1.70658705
H       -1.20815986      -0.55277870      -2.08709109
H       -0.38867546      -1.83638751      -0.87605679
H       -2.50593115      -1.22245017      -0.98856386
H       -1.56497071       1.48227194      -0.87823578
H       -2.18044861       0.59963858       0.56527260
H        0.94136302       0.87538389      -0.60726758
H        0.06281055       2.47836325       1.17298761
H        0.44997481       1.28365829       2.41456492
H        1.73917801       2.03026908       1.44681270
H        0.77826368      -1.04539027       1.55320377
H        1.67655717      -2.62981717      -0.33302220
18
Frame=14 idx=011581 GeodesicLength=1.5118593332470325 rxn_smarts="[C:1]([C:2]([C@@:3]([C:4]([H:14])([H:15])[H:16])([N:5]([C:6](=[O:7])[H:18])[H:17])[H:13])([H:11])[H:12])([H:8])([H:9])[H:10]>>[C:1](=[C:2]([H:11])[H:12])([H:8])[H:10].[C:3](\[C:4]([H:14])([H:15])[H:16])(=[N:5]\[H:17])[H:13].[C:6](=[O:7])([H:9])[H:18]"
C       -1.58405240      -0.64239549      -1.07337087
C       -1.55919100       0.54755682      -0.29831335
C        0.56961388       0.55484677       0.38546496
C        0.72491792       1.64763647       1.40843433
N        1.08178216      -0.66695137       0.67740438
C        1.22519881      -1.73571088      -0.74782955
O        1.77114461      -1.20351687      -1.69802752
H       -1.18792940      -0.51583813      -2.08044367
H       -0.40340822      -1.85654580      -0.90268467
H       -2.52211924      -1.19241941      -1.03730196
H       -1.59810533       1.48855404      -0.84308705
H       -2.21041639       0.57487096       0.57569648
H        0.92554590       0.86117286      -0.60372594
H        0.06420054       2.48172616       1.16441207
H        0.47368096       1.30360528       2.41404455
H        1.74486575       2.03668595       1.41200666
H        0.78194443      -1.04260940       1.57030814
H        1.70232704      -2.64066795      -0.32298701
18
Frame=15 idx=011581 GeodesicLength=1.6180560221309885 rxn_smarts="[C:1]([C:2]([C@@:3]([C:4]([H:14])([H:15])[H:16])([N:5]([C:6](=[O:7])[H:18])[H:17])[H:13])([H:11])[H:12])([H:8])([H:9])[H:10]>>[C:1](=[C:2]([H:11])[H:12])([H:8])[H:10].[C:3](\[C:4]([H:14])([H:15])[H:16])(=[N:5]\[H:17])[H:13].[C:6](=[O:7])([H:9])[H:18]"
C       -1.58479468      -0.63328488      -1.07649435
C       -1.57152184       0.54562922      -0.27641912
C        0.55264360       0.54616690       0.39196322
C        0.73016817       1.65336245       1.39789007
N        1.08731098      -0.66831471       0.69343435
C        1.24414098      -1.75593060      -0.74952137
O        1.80079793      -1.22229789      -1.68941835
H       -1.16802538      -0.47939938      -2.07187784
H       -0.41889522      -1.87635491      -0.93145399
H       -2.53705399      -1.16013061      -1.08504497
H       -1.63047566       1.49373276      -0.80795472
H       -2.24064178       0.55034888       0.58510538
H        0.90972416       0.84648675      -0.59969774
H        0.06548838       2.48491981       1.15513425
H        0.49686243       1.32375409       2.41266343
H        1.74976079       2.04241436       1.37703162
H        0.78594108      -1.03982415       1.58773993
H        1.72857006      -2.65127809      -0.31307979
18
Frame=16 idx=011581 GeodesicLength=1.7241268049540683 rxn_smarts="[C:1]([C:2]([C@@:3]([C:4]([H:14])([H:15])[H:16])([N:5]([C:6](=[O:7])[H:18])[H:17])[H:13])([H:11])[H:12])([H:8])([H:9])[H:10]>>[C:1](=[C:2]([H:11])[H:12])([H:8])[H:10].[C:3](\[C:4]([H:14])([H:15])[H:16])(=[N:5]\[H:17])[H:13].[C:6](=[O:7])([H:9])[H:18]"
C       -1.58589324      -0.62412694      -1.07893207
C       -1.58385434       0.54338863      -0.25424574
C        0.53573050       0.53714585       0.39900651
C        0.73504017       1.65882453       1.38697380
N        1.09300116      -0.66954840       0.70984777
C        1.26356857      -1.77629040      -0.75143635
O        1.83046316      -1.24061559      -1.68075947
H       -1.14851788      -0.44353361      -2.06144181
H       -0.43516291      -1.89571321      -0.96254689
H       -2.55068382      -1.12566808      -1.13162050
H       -1.66204397       1.49787671      -0.77286797
H       -2.27111977       0.52613575       0.59349508
H        0.89389902       0.83129748      -0.59517517
H        0.06666364       2.48793248       1.14511769
H        0.51950015       1.34411923       2.41042695
H        1.75387351       2.04743516       1.34189750
H        0.79022614      -1.03701683       1.60553245
H        1.75530989      -2.66164275      -0.30327179
