17
Frame=0 idx=007096 GeodesicLength=0.0 rxn_smarts="[C:1]([C@@:2]([O:3][H:12])([C:4]([C:5]([C:6](=[O:7])[H:17])([H:15])[H:16])([H:13])[H:14])[H:11])([H:8])([H:9])[H:10]>>[C:1]([C@@:2]1([H:11])[O:3][C@:6]([O:7][H:12])([H:17])[C:5]([H:15])([H:16])[C:4]1([H:13])[H:14])([H:8])([H:9])[H:10]"
C       -2.11052856      -0.18986398      -0.24394224
C       -0.63342416      -0.44473296      -0.43771987
O       -0.01266056       0.68500504      -1.08225220
C        0.16300302      -0.67416017       0.84388858
C        1.59780670      -0.33649607       0.45134922
C        1.48381486       0.92693525      -0.38300698
O        1.12002392       2.03999767       0.19997529
H       -2.57852592      -1.05971241       0.22021952
H       -2.26884435       0.67178386       0.40798693
H       -2.60393973      -0.00262150      -1.19783571
H       -0.48574663      -1.28756806      -1.12050849
H        0.01588652       1.63901609      -0.42077124
H       -0.18042856       0.00988506       1.62299409
H        0.04873925      -1.69440747       1.21077696
H        2.04415849      -1.14244208      -0.13692879
H        2.23802486      -0.13441606       1.30990737
H        2.16264091       0.99379784      -1.24413252
17
Frame=1 idx=007096 GeodesicLength=0.06465014838723031 rxn_smarts="[C:1]([C@@:2]([O:3][H:12])([C:4]([C:5]([C:6](=[O:7])[H:17])([H:15])[H:16])([H:13])[H:14])[H:11])([H:8])([H:9])[H:10]>>[C:1]([C@@:2]1([H:11])[O:3][C@:6]([O:7][H:12])([H:17])[C:5]([H:15])([H:16])[C:4]1([H:13])[H:14])([H:8])([H:9])[H:10]"
C       -2.11430370      -0.19600841      -0.24293807
C       -0.63617127      -0.44398009      -0.43917822
O       -0.02035848       0.68733894      -1.08366810
C        0.16131404      -0.66978746       0.84255336
C        1.59730132      -0.33739721       0.45018242
C        1.49444390       0.92733030      -0.38306312
O        1.12969710       2.04192292       0.19601665
H       -2.57833542      -1.06775651       0.22178116
H       -2.27598539       0.66502849       0.40902343
H       -2.60886219      -0.01022363      -1.19652919
H       -0.48720792      -1.28788424      -1.12060760
H        0.01308097       1.65254242      -0.41610651
H       -0.18075349       0.01791500       1.61926653
H        0.04491127      -1.68841202       1.21318693
H        2.03815395      -1.14383973      -0.14176345
H        2.24044837      -0.14258217       1.30830595
H        2.18262691       0.99579339      -1.23646217
17
Frame=2 idx=007096 GeodesicLength=0.1292925187041657 rxn_smarts="[C:1]([C@@:2]([O:3][H:12])([C:4]([C:5]([C:6](=[O:7])[H:17])([H:15])[H:16])([H:13])[H:14])[H:11])([H:8])([H:9])[H:10]>>[C:1]([C@@:2]1([H:11])[O:3][C@:6]([O:7][H:12])([H:17])[C:5]([H:15])([H:16])[C:4]1([H:13])[H:14])([H:8])([H:9])[H:10]"
C       -2.11810773      -0.20221638      -0.24188880
C       -0.63897882      -0.44321388      -0.44067058
O       -0.02823609       0.68971054      -1.08513981
C        0.15961553      -0.66534725       0.84114758
C        1.59677217      -0.33827909       0.44894226
C        1.50523775       0.92765703      -0.38318598
O        1.13930620       2.04379674       0.19179482
H       -2.57810045      -1.07586976       0.22340775
H       -2.28316218       0.65818363       0.41011979
H       -2.61387290      -0.01791953      -1.19514892
H       -0.48870755      -1.28817482      -1.12074391
H        0.01016856       1.66625786      -0.41125096
H       -0.18106075       0.02603364       1.61543481
H        0.04108520      -1.68231156       1.21558005
H        2.03209609      -1.14519659      -0.14665226
H        2.24278671      -0.15081372       1.30662828
H        2.20315826       0.99770315      -1.22837411
17
Frame=3 idx=007096 GeodesicLength=0.1939305713378576 rxn_smarts="[C:1]([C@@:2]([O:3][H:12])([C:4]([C:5]([C:6](=[O:7])[H:17])([H:15])[H:16])([H:13])[H:14])[H:11])([H:8])([H:9])[H:10]>>[C:1]([C@@:2]1([H:11])[O:3][C@:6]([O:7][H:12])([H:17])[C:5]([H:15])([H:16])[C:4]1([H:13])[H:14])([H:8])([H:9])[H:10]"
C       -2.12194140      -0.20848920      -0.24079215
C       -0.64184926      -0.44243437      -0.44219866
O       -0.03630029       0.69211866      -1.08667169
C        0.15790780      -0.66083749       0.83966739
C        1.59621868      -0.33914039       0.44762424
C        1.51620155       0.92791210      -0.38338072
O        1.14884625       2.04561725       0.18729009
H       -2.57781946      -1.08405313       0.22510244
H       -2.29037423       0.65124744       0.41127914
H       -2.61897516      -0.02571145      -1.19369101
H       -0.49024835      -1.28844000      -1.12091893
H        0.00714496       1.68016700      -0.40619488
H       -0.18134876       0.03424350       1.61149422
H        0.03726271      -1.67610287       1.21795404
H        2.02598405      -1.14651142      -0.15159906
H        2.24503653      -0.15911047       1.30487048
H        2.22425440       0.99952485      -1.21983493
17
Frame=4 idx=007096 GeodesicLength=0.25856635677570483 rxn_smarts="[C:1]([C@@:2]([O:3][H:12])([C:4]([C:5]([C:6](=[O:7])[H:17])([H:15])[H:16])([H:13])[H:14])[H:11])([H:8])([H:9])[H:10]>>[C:1]([C@@:2]1([H:11])[O:3][C@:6]([O:7][H:12])([H:17])[C:5]([H:15])([H:16])[C:4]1([H:13])[H:14])([H:8])([H:9])[H:10]"
C       -2.12580535      -0.21482817      -0.23964551
C       -0.64478515      -0.44164162      -0.44376436
O       -0.04455822       0.69456194      -1.08826852
C        0.15619143      -0.65625605       0.83810845
C        1.59564017      -0.33997988       0.44622311
C        1.52734061       0.92809209      -0.38365350
O        1.15831170       2.04738212       0.18248097
H       -2.57749065      -1.09230739       0.22686906
H       -2.29762076       0.64421816       0.41250481
H       -2.62417246      -0.03360194      -1.19215114
H       -0.49183350      -1.28868001      -1.12113437
H        0.00400586       1.69427443      -0.40092891
H       -0.18161556       0.04254733       1.60743960
H        0.03344579      -1.66978237       1.22030635
H        2.01981638      -1.14778342      -0.15660796
H        2.24719432      -0.16747201       1.30302791
H        2.24593538       1.00125679      -1.21080601
17
Frame=5 idx=007096 GeodesicLength=0.3231983681244441 rxn_smarts="[C:1]([C@@:2]([O:3][H:12])([C:4]([C:5]([C:6](=[O:7])[H:17])([H:15])[H:16])([H:13])[H:14])[H:11])([H:8])([H:9])[H:10]>>[C:1]([C@@:2]1([H:11])[O:3][C@:6]([O:7][H:12])([H:17])[C:5]([H:15])([H:16])[C:4]1([H:13])[H:14])([H:8])([H:9])[H:10]"
C       -2.12970024      -0.22123462      -0.23844654
C       -0.64778897      -0.44083566      -0.44536930
O       -0.05301711       0.69703970      -1.08993431
C        0.15446676      -0.65160066       0.83646690
C        1.59503626      -0.34079636       0.44473386
C        1.53866105       0.92819307      -0.38400914
O        1.16769733       2.04908855       0.17734558
H       -2.57711209      -1.10063352       0.22871099
H       -2.30490120       0.63709412       0.41379983
H       -2.62946822      -0.04159392      -1.19052541
H       -0.49346571      -1.28889489      -1.12139191
H        0.00074813       1.70858443      -0.39544405
H       -0.18185928       0.05094831       1.60326609
H        0.02963590      -1.66334640       1.22263528
H        2.01359204      -1.14901162      -0.16168374
H        2.24925696      -0.17589892       1.30109610
H        2.26821839       1.00289839      -1.20125023
17
Frame=6 idx=007096 GeodesicLength=0.3878276634041962 rxn_smarts="[C:1]([C@@:2]([O:3][H:12])([C:4]([C:5]([C:6](=[O:7])[H:17])([H:15])[H:16])([H:13])[H:14])[H:11])([H:8])([H:9])[H:10]>>[C:1]([C@@:2]1([H:11])[O:3][C@:6]([O:7][H:12])([H:17])[C:5]([H:15])([H:16])[C:4]1([H:13])[H:14])([H:8])([H:9])[H:10]"
C       -2.13362668      -0.22770981      -0.23719277
C       -0.65086335      -0.44001673      -0.44701544
O       -0.06168442       0.69954996      -1.09167436
C        0.15273433      -0.64686884       0.83473829
C        1.59440667      -0.34158868       0.44315063
C        1.55016870       0.92821147      -0.38445431
O        1.17699669       2.05073360       0.17185956
H       -2.57668199      -1.10903192       0.23063215
H       -2.31221473       0.62987397       0.41516704
H       -2.63486593      -0.04969056      -1.18880958
H       -0.49514812      -1.28908523      -1.12169297
H       -0.00263081       1.72310188      -0.38972910
H       -0.18207781       0.05944995       1.59896805
H        0.02583476      -1.65679082       1.22493899
H        2.00730999      -1.15019502      -0.16683213
H        2.25122230      -0.18439181       1.29906970
H        2.29112037       1.00444857      -1.19112373
17
Frame=7 idx=007096 GeodesicLength=0.4524602224510283 rxn_smarts="[C:1]([C@@:2]([O:3][H:12])([C:4]([C:5]([C:6](=[O:7])[H:17])([H:15])[H:16])([H:13])[H:14])[H:11])([H:8])([H:9])[H:10]>>[C:1]([C@@:2]1([H:11])[O:3][C@:6]([O:7][H:12])([H:17])[C:5]([H:15])([H:16])[C:4]1([H:13])[H:14])([H:8])([H:9])[H:10]"
C       -2.13758562      -0.23425522      -0.23588093
C       -0.65401155      -0.43918504      -0.44870512
O       -0.07056925       0.70209045      -1.09349530
C        0.15099494      -0.64205760       0.83291720
C        1.59375090      -0.34235491       0.44146595
C        1.56187045       0.92814321      -0.38499613
O        1.18620295       2.05231419       0.16599559
H       -2.57619808      -1.11750325       0.23263804
H       -2.31956040       0.62255629       0.41660984
H       -2.64037026      -0.05789607      -1.18699828
H       -0.49688486      -1.28925190      -1.12203921
H       -0.00613370       1.73783216      -0.38377306
H       -0.18226858       0.06805618       1.59453870
H        0.02204509      -1.65011079       1.22721474
H        2.00096849      -1.15133147      -0.17206072
H        2.25308674      -0.19295138       1.29694230
H        2.31466275       1.00590515      -1.18037359
17
Frame=8 idx=007096 GeodesicLength=0.5170953120416272 rxn_smarts="[C:1]([C@@:2]([O:3][H:12])([C:4]([C:5]([C:6](=[O:7])[H:17])([H:15])[H:16])([H:13])[H:14])[H:11])([H:8])([H:9])[H:10]>>[C:1]([C@@:2]1([H:11])[O:3][C@:6]([O:7][H:12])([H:17])[C:5]([H:15])([H:16])[C:4]1([H:13])[H:14])([H:8])([H:9])[H:10]"
C       -2.14157726      -0.24087213      -0.23450839
C       -0.65723609      -0.43834083      -0.45044048
O       -0.07967922       0.70465942      -1.09540259
C        0.14924937      -0.63716421       0.83099884
C        1.59306886      -0.34309412       0.43967335
C        1.57377388       0.92798372      -0.38564082
O        1.19530938       2.05382619       0.15972592
H       -2.57565793      -1.12604780       0.23473291
H       -2.32693688       0.61514004       0.41813099
H       -2.64598445      -0.06621428      -1.18508712
H       -0.49867892      -1.28939551      -1.12243234
H       -0.00976173       1.75278033      -0.37756378
H       -0.18242887       0.07677120       1.58997179
H        0.01826880      -1.64330148       1.22946083
H        1.99456585      -1.15242058      -0.17737535
H        2.25484740      -0.20157911       1.29470825
H        2.33885780       1.00726914      -1.16895202
17
Frame=9 idx=007096 GeodesicLength=0.5817264811787011 rxn_smarts="[C:1]([C@@:2]([O:3][H:12])([C:4]([C:5]([C:6](=[O:7])[H:17])([H:15])[H:16])([H:13])[H:14])[H:11])([H:8])([H:9])[H:10]>>[C:1]([C@@:2]1([H:11])[O:3][C@:6]([O:7][H:12])([H:17])[C:5]([H:15])([H:16])[C:4]1([H:13])[H:14])([H:8])([H:9])[H:10]"
C       -2.14560157      -0.24756134      -0.23307320
C       -0.66053905      -0.43748437      -0.45222340
O       -0.08902170       0.70725405      -1.09740159
C        0.14749849      -0.63218590       0.82897895
C        1.59236171      -0.34380527       0.43776614
C        1.58588659       0.92773006      -0.38639368
O        1.20430855       2.05526526       0.15302280
H       -2.57505915      -1.13466475       0.23692072
H       -2.33434247       0.60762543       0.41973183
H       -2.65171140      -0.07464904      -1.18307282
H       -0.50053273      -1.28951719      -1.12287311
H       -0.01351202       1.76795091      -0.37108972
H       -0.18255617       0.08559947       1.58526149
H        0.01450708      -1.63635872       1.23167694
H        1.98810301      -1.15346029      -0.18278526
H        2.25650369      -0.21027738       1.29236163
H        2.36370713       1.00853905      -1.15680773
17
Frame=10 idx=007096 GeodesicLength=0.6463588420645333 rxn_smarts="[C:1]([C@@:2]([O:3][H:12])([C:4]([C:5]([C:6](=[O:7])[H:17])([H:15])[H:16])([H:13])[H:14])[H:11])([H:8])([H:9])[H:10]>>[C:1]([C@@:2]1([H:11])[O:3][C@:6]([O:7][H:12])([H:17])[C:5]([H:15])([H:16])[C:4]1([H:13])[H:14])([H:8])([H:9])[H:10]"
C       -2.14965930      -0.25432413      -0.23157080
C       -0.66392429      -0.43661649      -0.45405675
O       -0.09860655       0.70987145      -1.09950058
C        0.14574365      -0.62711964       0.82685053
C        1.59162829      -0.34448726       0.43573545
C        1.59821725       0.92737619      -0.38726384
O        1.21319179       2.05662544       0.14585066
H       -2.57439907      -1.14335405       0.23920944
H       -2.34177493       0.60001160       0.42141685
H       -2.65755634      -0.08320531      -1.18094792
H       -0.50245175      -1.28961843      -1.12336384
H       -0.01738681       1.78334932      -0.36434072
H       -0.18264642       0.09454533       1.58039923
H        0.01076372      -1.62927641       1.23385924
H        1.98157653      -1.15444994      -0.18829853
H        2.25805050      -0.21904744       1.28989423
H        2.38923375       1.00971977      -1.14387266
17
Frame=11 idx=007096 GeodesicLength=0.7109923231130445 rxn_smarts="[C:1]([C@@:2]([O:3][H:12])([C:4]([C:5]([C:6](=[O:7])[H:17])([H:15])[H:16])([H:13])[H:14])[H:11])([H:8])([H:9])[H:10]>>[C:1]([C@@:2]1([H:11])[O:3][C@:6]([O:7][H:12])([H:17])[C:5]([H:15])([H:16])[C:4]1([H:13])[H:14])([H:8])([H:9])[H:10]"
C       -2.15375058      -0.26116130      -0.22999756
C       -0.66739495      -0.43573828      -0.45594318
O       -0.10844274       0.71250737      -1.10170759
C        0.14398613      -0.62196241       0.82460730
C        1.59086898      -0.34513876       0.43357283
C        1.61077478       0.92691718      -0.38825859
O        1.22194944       2.05790130       0.13817354
H       -2.57367521      -1.15211427       0.24160611
H       -2.34923141       0.59229911       0.42318885
H       -2.66352351      -0.09188780      -1.17870655
H       -0.50444037      -1.28970151      -1.12390583
H       -0.02138339       1.79898067      -0.35730484
H       -0.18269621       0.10361345       1.57537671
H        0.00704160      -1.62204920       1.23600520
H        1.97498583      -1.15538650      -0.19392577
H        2.25948558      -0.22789259       1.28729865
H        2.41544600       1.01081353      -1.13007928
17
Frame=12 idx=007096 GeodesicLength=0.7756231705712465 rxn_smarts="[C:1]([C@@:2]([O:3][H:12])([C:4]([C:5]([C:6](=[O:7])[H:17])([H:15])[H:16])([H:13])[H:14])[H:11])([H:8])([H:9])[H:10]>>[C:1]([C@@:2]1([H:11])[O:3][C@:6]([O:7][H:12])([H:17])[C:5]([H:15])([H:16])[C:4]1([H:13])[H:14])([H:8])([H:9])[H:10]"
C       -2.15787489      -0.26807329      -0.22835068
C       -0.67095325      -0.43485049      -0.45788513
O       -0.11853825       0.71515793      -1.10402995
C        0.14222739      -0.61671126       0.82224374
C        1.59008486      -0.34575964       0.43126994
C        1.62356938       0.92634832      -0.38938287
O        1.23057327       2.05908522       0.12995709
H       -2.57288445      -1.16094378       0.24411673
H       -2.35670890       0.58448911       0.42504936
H       -2.66961575      -0.10070147      -1.17634397
H       -0.50650183      -1.28976844      -1.12450005
H       -0.02549703       1.81484992      -0.34997004
H       -0.18270157       0.11280890       1.57018648
H        0.00334281      -1.61467152       1.23811401
H        1.96832977      -1.15627019      -0.19967528
H        2.26080648      -0.23681686       1.28456735
H        2.44234196       1.01182755      -1.11536670
17
Frame=13 idx=007096 GeodesicLength=0.8402544794061455 rxn_smarts="[C:1]([C@@:2]([O:3][H:12])([C:4]([C:5]([C:6](=[O:7])[H:17])([H:15])[H:16])([H:13])[H:14])[H:11])([H:8])([H:9])[H:10]>>[C:1]([C@@:2]1([H:11])[O:3][C@:6]([O:7][H:12])([H:17])[C:5]([H:15])([H:16])[C:4]1([H:13])[H:14])([H:8])([H:9])[H:10]"
C       -2.16203201      -0.27506075      -0.22662577
C       -0.67460252      -0.43395444      -0.45988574
O       -0.12890282       0.71781795      -1.10647737
C        0.14046936      -0.61136284       0.81975233
C        1.58927642      -0.34634885       0.42881707
C        1.63661280       0.92566339      -0.39064438
O        1.23905232       2.06016957       0.12115780
H       -2.57202367      -1.16984037       0.24675009
H       -2.36420349       0.57658301       0.42700134
H       -2.67583767      -0.10965196      -1.17385313
H       -0.50864115      -1.28982217      -1.12514790
H       -0.02972258       1.83096301      -0.34232397
H       -0.18265781       0.12213738       1.56481840
H       -0.00032883      -1.60713667       1.24018285
H        1.96160774      -1.15709716      -0.20556093
H        2.26201060      -0.24582546       1.28169190
H        2.46992331       1.01276636      -1.09965261
17
Frame=14 idx=007096 GeodesicLength=0.904881695614384 rxn_smarts="[C:1]([C@@:2]([O:3][H:12])([C:4]([C:5]([C:6](=[O:7])[H:17])([H:15])[H:16])([H:13])[H:14])[H:11])([H:8])([H:9])[H:10]>>[C:1]([C@@:2]1([H:11])[O:3][C@:6]([O:7][H:12])([H:17])[C:5]([H:15])([H:16])[C:4]1([H:13])[H:14])([H:8])([H:9])[H:10]"
C       -2.16622114      -0.28212356      -0.22481863
C       -0.67834555      -0.43305183      -0.46194801
O       -0.13954508       0.72048140      -1.10905985
C        0.13871426      -0.60591407       0.81712576
C        1.58844494      -0.34690607       0.42620382
C        1.64991686       0.92485728      -0.39204934
O        1.24737572       2.06114475       0.11173315
H       -2.57108945      -1.17880073       0.24951539
H       -2.37171043       0.56858360       0.42904687
H       -2.68219279      -0.11874498      -1.17122721
H       -0.51086299      -1.28986612      -1.12585042
H       -0.03404993       1.84732494      -0.33435664
H       -0.18255998       0.13160409       1.55926284
H       -0.00396965      -1.59943860       1.24220934
H        1.95481933      -1.15786511      -0.21159597
H        2.26309525      -0.25492357       1.27866358
H        2.49818064       1.01363859      -1.08285468
17
Frame=15 idx=007096 GeodesicLength=0.9695019500988017 rxn_smarts="[C:1]([C@@:2]([O:3][H:12])([C:4]([C:5]([C:6](=[O:7])[H:17])([H:15])[H:16])([H:13])[H:14])[H:11])([H:8])([H:9])[H:10]>>[C:1]([C@@:2]1([H:11])[O:3][C@:6]([O:7][H:12])([H:17])[C:5]([H:15])([H:16])[C:4]1([H:13])[H:14])([H:8])([H:9])[H:10]"
C       -2.17044107      -0.28926155      -0.22292550
C       -0.68218469      -0.43214432      -0.46407485
O       -0.15047355       0.72314200      -1.11178718
C        0.13696435      -0.60036175       0.81435709
C        1.58759188      -0.34743150       0.42342066
C        1.66349537       0.92392405      -0.39360081
O        1.25553319       2.06200010       0.10163850
H       -2.57007811      -1.18782127       0.25242141
H       -2.37922461       0.56049408       0.43118728
H       -2.68868405      -0.12798667      -1.16846000
H       -0.51317137      -1.28990397      -1.12660819
H       -0.03846640       1.86394118      -0.32605687
H       -0.18240297       0.14121500       1.55350977
H       -0.00757645      -1.59157069       1.24419215
H        1.94796442      -1.15857158      -0.21779393
H        2.26405801      -0.26411956       1.27547386
H        2.52709604       1.01445643      -1.06489338
17
Frame=16 idx=007096 GeodesicLength=1.0341135304985383 rxn_smarts="[C:1]([C@@:2]([O:3][H:12])([C:4]([C:5]([C:6](=[O:7])[H:17])([H:15])[H:16])([H:13])[H:14])[H:11])([H:8])([H:9])[H:10]>>[C:1]([C@@:2]1([H:11])[O:3][C@:6]([O:7][H:12])([H:17])[C:5]([H:15])([H:16])[C:4]1([H:13])[H:14])([H:8])([H:9])[H:10]"
C       -2.17469015      -0.29647407      -0.22094180
C       -0.68612234      -0.43123416      -0.46626957
O       -0.16169661       0.72579172      -1.11467115
C        0.13522249      -0.59470269       0.81143819
C        1.58671949      -0.34792561       0.42045645
C        1.67736345       0.92285781      -0.39530262
O        1.26351255       2.06272321       0.09082426
H       -2.56898578      -1.19689710       0.25547885
H       -2.38673973       0.55231900       0.43342393
H       -2.69531458      -0.13738347      -1.16554417
H       -0.51557100      -1.28994054      -1.12742162
H       -0.04295610       1.88081764      -0.31741429
H       -0.18218078       0.15097634       1.54754782
H       -0.01114530      -1.58352569       1.24612929
H        1.94104314      -1.15921342      -0.22417110
H        2.26489698      -0.27342305       1.27211344
H        2.55664426       1.01523408      -1.04567592
