13
Frame=0 idx=003401 GeodesicLength=0.0 rxn_smarts="[N:1](=[C:2](/[O:3][C:4]1([H:9])[C:5]([H:10])([H:11])[C:6]1([H:12])[H:13])[H:8])\[H:7]>>[C:6]([H:12])[H:13].[N:1](=[C:2](/[O:3][C:4](=[C:5]([H:10])[H:11])[H:9])[H:8])\[H:7]"
N        2.31204075       0.83398600       0.21567428
C        1.55574189      -0.12791769      -0.04554879
O        0.48406007       0.06955856      -0.85168780
C       -0.60583026      -0.74587320      -0.70176945
C       -0.97703500      -1.33476238       0.42496907
C       -1.62515228       1.86586892      -0.43721580
H        3.10432040       0.52088562       0.76629032
H        1.66686478      -1.16867336       0.27411453
H       -1.15826022      -0.82117426      -1.62846987
H       -1.86909944      -1.94395535       0.42704815
H       -0.44393534      -1.21169989       1.35880159
H       -0.65814116       2.40458656      -0.44299315
H       -1.78557418       1.65917053       0.64078690
13
Frame=1 idx=003401 GeodesicLength=0.10954627502686214 rxn_smarts="[N:1](=[C:2](/[O:3][C:4]1([H:9])[C:5]([H:10])([H:11])[C:6]1([H:12])[H:13])[H:8])\[H:7]>>[C:6]([H:12])[H:13].[N:1](=[C:2](/[O:3][C:4](=[C:5]([H:10])[H:11])[H:9])[H:8])\[H:7]"
N        2.32231073       0.83047852       0.22115590
C        1.56239090      -0.12484890      -0.05282855
O        0.48579454       0.08905613      -0.84816508
C       -0.60761647      -0.72463136      -0.70393009
C       -0.99646996      -1.29154836       0.43298950
C       -1.60678612       1.79695975      -0.43422045
H        3.12017588       0.50470815       0.75610103
H        1.66055708      -1.16804206       0.26284535
H       -1.13699137      -0.82885913      -1.64103503
H       -1.87051600      -1.92647110       0.42748222
H       -0.45136093      -1.18924863       1.36227145
H       -0.66759666       2.38115326      -0.42704758
H       -1.81389162       1.65129376       0.64438132
13
Frame=2 idx=003401 GeodesicLength=0.21921571133537854 rxn_smarts="[N:1](=[C:2](/[O:3][C:4]1([H:9])[C:5]([H:10])([H:11])[C:6]1([H:12])[H:13])[H:8])\[H:7]>>[C:6]([H:12])[H:13].[N:1](=[C:2](/[O:3][C:4](=[C:5]([H:10])[H:11])[H:9])[H:8])\[H:7]"
N        2.33273155       0.82709902       0.22580337
C        1.56904982      -0.12182773      -0.05930610
O        0.48805996       0.10715336      -0.84445322
C       -0.60846881      -0.70528296      -0.70586580
C       -1.01400654      -1.25121285       0.44047513
C       -1.58581774       1.73385710      -0.43141419
H        3.13795566       0.48924181       0.74188555
H        1.65513404      -1.16714539       0.25271040
H       -1.11737935      -0.83470209      -1.65096791
H       -1.87286285      -1.90671592       0.42976592
H       -0.45889444      -1.16762309       1.36567389
H       -0.67336424       2.35702222      -0.40293855
H       -1.85213708       1.64013652       0.63863151
13
Frame=3 idx=003401 GeodesicLength=0.3286278569661302 rxn_smarts="[N:1](=[C:2](/[O:3][C:4]1([H:9])[C:5]([H:10])([H:11])[C:6]1([H:12])[H:13])[H:8])\[H:7]>>[C:6]([H:12])[H:13].[N:1](=[C:2](/[O:3][C:4](=[C:5]([H:10])[H:11])[H:9])[H:8])\[H:7]"
N        2.33994868       0.82489112       0.23460098
C        1.57435971      -0.11814005      -0.06404742
O        0.48902705       0.12550617      -0.83872925
C       -0.60937945      -0.68758333      -0.70759945
C       -1.03039841      -1.21596555       0.44637424
C       -1.56694963       1.67358288      -0.42359904
H        3.15377697       0.47544145       0.72895006
H        1.65010812      -1.16584172       0.24226319
H       -1.09989657      -0.83751404      -1.65914131
H       -1.87555781      -1.88920763       0.43073553
H       -0.46685905      -1.15102706       1.36794051
H       -0.68306571       2.33493504      -0.39463982
H       -1.87511391       1.63092273       0.63689178
13
Frame=4 idx=003401 GeodesicLength=0.4380315388449408 rxn_smarts="[N:1](=[C:2](/[O:3][C:4]1([H:9])[C:5]([H:10])([H:11])[C:6]1([H:12])[H:13])[H:8])\[H:7]>>[C:6]([H:12])[H:13].[N:1](=[C:2](/[O:3][C:4](=[C:5]([H:10])[H:11])[H:9])[H:8])\[H:7]"
N        2.34786374       0.82255871       0.24164859
C        1.57987674      -0.11462243      -0.06864307
O        0.49040864       0.14259829      -0.83311173
C       -0.60964621      -0.67136582      -0.70905787
C       -1.04519542      -1.18301689       0.45216613
C       -1.54617247       1.61789706      -0.41598294
H        3.17005202       0.46274140       0.71421497
H        1.64596147      -1.16447979       0.23232803
H       -1.08395294      -0.83899462      -1.66566384
H       -1.87939426      -1.87000933       0.43317281
H       -0.47467396      -1.13474707       1.37049794
H       -0.68949380       2.31233786      -0.37925204
H       -1.90563357       1.61910264       0.62768302
13
Frame=5 idx=003401 GeodesicLength=0.5472877728809108 rxn_smarts="[N:1](=[C:2](/[O:3][C:4]1([H:9])[C:5]([H:10])([H:11])[C:6]1([H:12])[H:13])[H:8])\[H:7]>>[C:6]([H:12])[H:13].[N:1](=[C:2](/[O:3][C:4](=[C:5]([H:10])[H:11])[H:9])[H:8])\[H:7]"
N        2.35451828       0.82063198       0.25033835
C        1.58484766      -0.11085534      -0.07225998
O        0.49126774       0.15942346      -0.82632534
C       -0.60976359      -0.65638374      -0.71018388
C       -1.05899095      -1.15340289       0.45729458
C       -1.52607913       1.56503254      -0.40614337
H        3.18560459       0.45126887       0.69935293
H        1.64233698      -1.16293301       0.22238176
H       -1.06949946      -0.83851820      -1.67101839
H       -1.88393020      -1.85172275       0.43519143
H       -0.48266935      -1.12111869       1.37273800
H       -0.69691971       2.29112992      -0.37006696
H       -1.93072285       1.60744785       0.61870086
13
Frame=6 idx=003401 GeodesicLength=0.6565457307749311 rxn_smarts="[N:1](=[C:2](/[O:3][C:4]1([H:9])[C:5]([H:10])([H:11])[C:6]1([H:12])[H:13])[H:8])\[H:7]>>[C:6]([H:12])[H:13].[N:1](=[C:2](/[O:3][C:4](=[C:5]([H:10])[H:11])[H:9])[H:8])\[H:7]"
N        2.36172819       0.81850671       0.25770375
C        1.59002308      -0.10727811      -0.07593595
O        0.49232822       0.17537495      -0.81947586
C       -0.60947884      -0.64245374      -0.71093894
C       -1.07157783      -1.12555097       0.46254643
C       -1.50497651       1.51575373      -0.39606487
H        3.20102947       0.44067808       0.68377170
H        1.63944456      -1.16143609       0.21250194
H       -1.05646219      -0.83679224      -1.67519387
H       -1.88923363      -1.83265091       0.43819426
H       -0.49032047      -1.10795616       1.37533325
H       -0.70222449       2.26969256      -0.35622403
H       -1.96027956       1.59411219       0.60378219
13
Frame=7 idx=003401 GeodesicLength=0.7663595771464103 rxn_smarts="[N:1](=[C:2](/[O:3][C:4]1([H:9])[C:5]([H:10])([H:11])[C:6]1([H:12])[H:13])[H:8])\[H:7]>>[C:6]([H:12])[H:13].[N:1](=[C:2](/[O:3][C:4](=[C:5]([H:10])[H:11])[H:9])[H:8])\[H:7]"
N        2.37050410       0.81581663       0.26201460
C        1.59591326      -0.10415939      -0.08051173
O        0.49397843       0.19022031      -0.81322946
C       -0.60866947      -0.62930631      -0.71119221
C       -1.08279306      -1.09807459       0.46852297
C       -1.48203716       1.47035620      -0.38675481
H        3.21675036       0.43042162       0.66701375
H        1.63742275      -1.16007656       0.20252764
H       -1.04491825      -0.83417260      -1.67797200
H       -1.89513710      -1.81149004       0.44323741
H       -0.49704955      -1.09373138       1.37866619
H       -0.70344078       2.24631447      -0.32949631
H       -2.00052354       1.57788165       0.57717396
13
Frame=8 idx=003401 GeodesicLength=0.8755732954913859 rxn_smarts="[N:1](=[C:2](/[O:3][C:4]1([H:9])[C:5]([H:10])([H:11])[C:6]1([H:12])[H:13])[H:8])\[H:7]>>[C:6]([H:12])[H:13].[N:1](=[C:2](/[O:3][C:4](=[C:5]([H:10])[H:11])[H:9])[H:8])\[H:7]"
N        2.37934601       0.81321628       0.26552902
C        1.60181798      -0.10112501      -0.08526797
O        0.49553397       0.20454539      -0.80684325
C       -0.60771554      -0.61708290      -0.71107679
C       -1.09317360      -1.07229956       0.47479505
C       -1.45906481       1.42770842      -0.37651471
H        3.23180590       0.42098054       0.65042697
H        1.63594484      -1.15887018       0.19226429
H       -1.03476545      -0.83048234      -1.67998660
H       -1.90144987      -1.79063752       0.44899239
H       -0.50341950      -1.08055937       1.38244471
H       -0.70344877       2.22362380      -0.30036925
H       -2.04141117       1.56098244       0.54560612
13
Frame=9 idx=003401 GeodesicLength=0.9851869264023889 rxn_smarts="[N:1](=[C:2](/[O:3][C:4]1([H:9])[C:5]([H:10])([H:11])[C:6]1([H:12])[H:13])[H:8])\[H:7]>>[C:6]([H:12])[H:13].[N:1](=[C:2](/[O:3][C:4](=[C:5]([H:10])[H:11])[H:9])[H:8])\[H:7]"
N        2.38541116       0.81115064       0.27440413
C        1.60620757      -0.09727805      -0.08728264
O        0.49559063       0.21975176      -0.79724830
C       -0.60721444      -0.60534259      -0.71041119
C       -1.10365781      -1.05059065       0.47974206
C       -1.43930129       1.38522439      -0.36208429
H        3.24598636       0.41279830       0.63407886
H        1.63428946      -1.15708982       0.18209410
H       -1.02538019      -0.82410275      -1.68168211
H       -1.90795685      -1.77353839       0.45152579
H       -0.51077496      -1.07235896       1.38513111
H       -0.70968620       2.20419591      -0.29377787
H       -2.06351343       1.54718021       0.52551034
13
Frame=10 idx=003401 GeodesicLength=1.0944807429597667 rxn_smarts="[N:1](=[C:2](/[O:3][C:4]1([H:9])[C:5]([H:10])([H:11])[C:6]1([H:12])[H:13])[H:8])\[H:7]>>[C:6]([H:12])[H:13].[N:1](=[C:2](/[O:3][C:4](=[C:5]([H:10])[H:11])[H:9])[H:8])\[H:7]"
N        2.39288241       0.80884622       0.27957948
C        1.61123008      -0.09382550      -0.09083946
O        0.49602497       0.23395276      -0.78872342
C       -0.60649319      -0.59430518      -0.70938715
C       -1.11303432      -1.02913379       0.48569337
C       -1.41816900       1.34589114      -0.34807775
H        3.25916617       0.40505864       0.61889241
H        1.63337456      -1.15555543       0.17127378
H       -1.01770457      -0.81711895      -1.68248591
H       -1.91473249      -1.75517503       0.45617690
H       -0.51700053      -1.06340719       1.38869154
H       -0.71204611       2.18363546      -0.27558462
H       -2.09349799       1.53113684       0.49479083
13
Frame=11 idx=003401 GeodesicLength=1.2035385558930969 rxn_smarts="[N:1](=[C:2](/[O:3][C:4]1([H:9])[C:5]([H:10])([H:11])[C:6]1([H:12])[H:13])[H:8])\[H:7]>>[C:6]([H:12])[H:13].[N:1](=[C:2](/[O:3][C:4](=[C:5]([H:10])[H:11])[H:9])[H:8])\[H:7]"
N        2.39973720       0.80659200       0.28595704
C        1.61584088      -0.09020172      -0.09358882
O        0.49596913       0.24820658      -0.77891487
C       -0.60586092      -0.58373110      -0.70788467
C       -1.12207678      -1.00982897       0.49155661
C       -1.39798301       1.30799824      -0.33216621
H        3.27181936       0.39799852       0.60395392
H        1.63268517      -1.15398347       0.16026152
H       -1.01096730      -0.80846448      -1.68288123
H       -1.92173250      -1.73830448       0.46012052
H       -0.52329550      -1.05678819       1.39222615
H       -0.71608998       2.16486177      -0.26423313
H       -2.11804574       1.51564529       0.46559317
13
Frame=12 idx=003401 GeodesicLength=1.3125808059455677 rxn_smarts="[N:1](=[C:2](/[O:3][C:4]1([H:9])[C:5]([H:10])([H:11])[C:6]1([H:12])[H:13])[H:8])\[H:7]>>[C:6]([H:12])[H:13].[N:1](=[C:2](/[O:3][C:4](=[C:5]([H:10])[H:11])[H:9])[H:8])\[H:7]"
N        2.40677585       0.80424053       0.29189933
C        1.62041165      -0.08656373      -0.09626978
O        0.49572782       0.26225900      -0.76847728
C       -0.60523585      -0.57351760      -0.70585599
C       -1.13060149      -0.99175762       0.49778465
C       -1.37795611       1.27189343      -0.31507974
H        3.28408987       0.39130840       0.58918698
H        1.63233701      -1.15239585       0.14892448
H       -1.00537764      -0.79841225      -1.68264421
H       -1.92893232      -1.72183988       0.46432590
H       -0.52922894      -1.05136190       1.39603724
H       -0.72000213       2.14657275      -0.25282441
H       -2.14200771       1.49957470       0.43299285
13
Frame=13 idx=003401 GeodesicLength=1.4214883954165258 rxn_smarts="[N:1](=[C:2](/[O:3][C:4]1([H:9])[C:5]([H:10])([H:11])[C:6]1([H:12])[H:13])[H:8])\[H:7]>>[C:6]([H:12])[H:13].[N:1](=[C:2](/[O:3][C:4](=[C:5]([H:10])[H:11])[H:9])[H:8])\[H:7]"
N        2.41367843       0.80175077       0.29851666
C        1.62478019      -0.08283861      -0.09835466
O        0.49517726       0.27637460      -0.75681374
C       -0.60466669      -0.56351964      -0.70324486
C       -1.13877251      -0.97538025       0.50420091
C       -1.35843543       1.23719739      -0.29609918
H        3.29609063       0.38496587       0.57454198
H        1.63224330      -1.15082242       0.13727495
H       -1.00074459      -0.78653549      -1.68189953
H       -1.93632453      -1.70642837       0.46815363
H       -0.53501280      -1.04800588       1.39994670
H       -0.72529369       2.12974363      -0.24652156
H       -2.16271957       1.48349842       0.40029870
13
Frame=14 idx=003401 GeodesicLength=1.5303060714149783 rxn_smarts="[N:1](=[C:2](/[O:3][C:4]1([H:9])[C:5]([H:10])([H:11])[C:6]1([H:12])[H:13])[H:8])\[H:7]>>[C:6]([H:12])[H:13].[N:1](=[C:2](/[O:3][C:4](=[C:5]([H:10])[H:11])[H:9])[H:8])\[H:7]"
N        2.42065697       0.79900785       0.30565545
C        1.62905218      -0.07906652      -0.09993880
O        0.49439278       0.29060196      -0.74387308
C       -0.60415104      -0.55357044      -0.69996928
C       -1.14653264      -0.96056537       0.51094111
C       -1.33917716       1.20392241      -0.27492989
H        3.30786464       0.37877086       0.56018658
H        1.63243753      -1.14930061       0.12515003
H       -0.99717232      -0.77255402      -1.68054887
H       -1.94387668      -1.69190700       0.47173604
H       -0.54046589      -1.04679358       1.40397127
H       -0.73214007       2.11428124      -0.24536881
H       -2.18088829       1.46717320       0.36698825
13
Frame=15 idx=003401 GeodesicLength=1.6391374341122806 rxn_smarts="[N:1](=[C:2](/[O:3][C:4]1([H:9])[C:5]([H:10])([H:11])[C:6]1([H:12])[H:13])[H:8])\[H:7]>>[C:6]([H:12])[H:13].[N:1](=[C:2](/[O:3][C:4](=[C:5]([H:10])[H:11])[H:9])[H:8])\[H:7]"
N        2.42799526       0.79587480       0.31319487
C        1.63332881      -0.07526137      -0.10101935
O        0.49345338       0.30506138      -0.72946809
C       -0.60368098      -0.54343094      -0.69588804
C       -1.15382374      -0.94717513       0.51815632
C       -1.31994347       1.17212863      -0.25113064
H        3.31961505       0.37244003       0.54603941
H        1.63293410      -1.14783229       0.11244849
H       -0.99477766      -0.75601570      -1.67842575
H       -1.95158010      -1.67806811       0.47517583
H       -0.54542982      -1.04783276       1.40813504
H       -0.74085474       2.09989510      -0.24936479
H       -2.19723608       1.45021636       0.33214668
13
Frame=16 idx=003401 GeodesicLength=1.7479814954626731 rxn_smarts="[N:1](=[C:2](/[O:3][C:4]1([H:9])[C:5]([H:10])([H:11])[C:6]1([H:12])[H:13])[H:8])\[H:7]>>[C:6]([H:12])[H:13].[N:1](=[C:2](/[O:3][C:4](=[C:5]([H:10])[H:11])[H:9])[H:8])\[H:7]"
N        2.43575229       0.79218037       0.32138932
C        1.63771318      -0.07144990      -0.10170286
O        0.49239572       0.31993811      -0.71335373
C       -0.60331466      -0.53276710      -0.69084362
C       -1.16045272      -0.93535934       0.52599368
C       -1.30039585       1.14188802      -0.22356513
H        3.33113791       0.36562964       0.53306074
H        1.63379937      -1.14649242       0.09865839
H       -0.99395100      -0.73600218      -1.67532747
H       -1.95933091      -1.66494624       0.47848757
H       -0.54949897      -1.05178396       1.41232932
H       -0.75259960       2.08671713      -0.26177064
H       -2.21125476       1.43244787       0.29664443
