10
Frame=0 idx=003687 GeodesicLength=0.0 rxn_smarts="[c:1]1([H:7])[c:2]([H:8])[n:3][c:4]([H:9])[n:5][c:6]1[H:10]>>[C:1]1([H:7])=[C:2]([H:8])[N:3]2[C:4]([H:9])=[N:5][C@:6]12[H:10]"
C       -1.26854550       0.23655760      -0.24938737
C       -0.42063751       1.04463125       0.40335322
N        0.83451539       0.47677090       0.71576686
C        1.39698037      -0.33522013      -0.23627145
N        0.62548840      -1.13156432      -0.93118595
C       -0.40779965      -0.92448729      -0.08183418
H       -2.19329009       0.38612170      -0.77997865
H       -0.58407317       2.07181793       0.70991084
H        2.47410522      -0.30163367      -0.38337036
H       -0.45674344      -1.52299398       0.83299702
10
Frame=1 idx=003687 GeodesicLength=0.0365376324658627 rxn_smarts="[c:1]1([H:7])[c:2]([H:8])[n:3][c:4]([H:9])[n:5][c:6]1[H:10]>>[C:1]1([H:7])=[C:2]([H:8])[N:3]2[C:4]([H:9])=[N:5][C@:6]12[H:10]"
C       -1.26289323       0.23850662      -0.25196239
C       -0.41444573       1.05328298       0.39326020
N        0.82940242       0.47212550       0.71858841
C        1.40314170      -0.32867258      -0.23648402
N        0.63543523      -1.13347679      -0.92488828
C       -0.40788988      -0.92520890      -0.08356878
H       -2.20712120       0.37905686      -0.75001904
H       -0.57617724       2.08164479       0.69617471
H        2.48092139      -0.29368387      -0.37675614
H       -0.48037347      -1.54357463       0.81565531
10
Frame=2 idx=003687 GeodesicLength=0.073036337669005 rxn_smarts="[c:1]1([H:7])[c:2]([H:8])[n:3][c:4]([H:9])[n:5][c:6]1[H:10]>>[C:1]1([H:7])=[C:2]([H:8])[N:3]2[C:4]([H:9])=[N:5][C@:6]12[H:10]"
C       -1.25719088       0.24042880      -0.25486004
C       -0.40820370       1.06200016       0.38268364
N        0.82426417       0.46801186       0.72080019
C        1.40933086      -0.32201082      -0.23669719
N        0.64550725      -1.13574255      -0.91799213
C       -0.40795535      -0.92593670      -0.08506771
H       -2.22017571       0.37190089      -0.71873388
H       -0.56865421       2.09127198       0.68259635
H        2.48775758      -0.28582972      -0.36991854
H       -0.50468001      -1.56409388       0.79718930
10
Frame=3 idx=003687 GeodesicLength=0.10947591596565034 rxn_smarts="[c:1]1([H:7])[c:2]([H:8])[n:3][c:4]([H:9])[n:5][c:6]1[H:10]>>[C:1]1([H:7])=[C:2]([H:8])[N:3]2[C:4]([H:9])=[N:5][C@:6]12[H:10]"
C       -1.25154646       0.24223288      -0.25782214
C       -0.40195965       1.07075752       0.37171593
N        0.81915288       0.46448852       0.72235863
C        1.41547911      -0.31521126      -0.23702370
N        0.65557590      -1.13840941      -0.91042030
C       -0.40801566      -0.92671358      -0.08612357
H       -2.23204407       0.36481516      -0.68669077
H       -0.56162302       2.10065091       0.66935647
H        2.49453060      -0.27805776      -0.36307765
H       -0.52954963      -1.58455298       0.77772709
10
Frame=4 idx=003687 GeodesicLength=0.14584080183595466 rxn_smarts="[c:1]1([H:7])[c:2]([H:8])[n:3][c:4]([H:9])[n:5][c:6]1[H:10]>>[C:1]1([H:7])=[C:2]([H:8])[N:3]2[C:4]([H:9])=[N:5][C@:6]12[H:10]"
C       -1.24609228       0.24381081      -0.26046219
C       -0.39578159       1.07950731       0.36052936
N        0.81412767       0.46158992       0.72324688
C        1.42151020      -0.30822793      -0.23760105
N        0.66550184      -1.14147089      -0.90211649
C       -0.40808609      -0.92758422      -0.08648987
H       -2.24235942       0.35799128      -0.65461873
H       -0.55515474       2.10974062       0.65656529
H        2.50115868      -0.27036799      -0.35646683
H       -0.55482427      -1.60498890       0.75741363
10
Frame=5 idx=003687 GeodesicLength=0.18211834019650824 rxn_smarts="[c:1]1([H:7])[c:2]([H:8])[n:3][c:4]([H:9])[n:5][c:6]1[H:10]>>[C:1]1([H:7])=[C:2]([H:8])[N:3]2[C:4]([H:9])=[N:5][C@:6]12[H:10]"
C       -1.24077364       0.24513621      -0.26279954
C       -0.38959917       1.08827084       0.34903095
N        0.80928297       0.45938778       0.72341196
C        1.42742105      -0.30109595      -0.23844682
N        0.67523270      -1.14499838      -0.89297262
C       -0.40816486      -0.92855857      -0.08605089
H       -2.25111260       0.35143244      -0.62275679
H       -0.54934618       2.11846895       0.64450631
H        2.50761480      -0.26271892      -0.35021124
H       -0.58055508      -1.62532441       0.73628868
10
Frame=6 idx=003687 GeodesicLength=0.21827781692277215 rxn_smarts="[c:1]1([H:7])[c:2]([H:8])[n:3][c:4]([H:9])[n:5][c:6]1[H:10]>>[C:1]1([H:7])=[C:2]([H:8])[N:3]2[C:4]([H:9])=[N:5][C@:6]12[H:10]"
C       -1.23574571       0.24610272      -0.26428637
C       -0.38352809       1.09697158       0.33755325
N        0.80468825       0.45786499       0.72290717
C        1.43313525      -0.29377222      -0.23970803
N        0.68463413      -1.14892673      -0.88296523
C       -0.40825190      -0.92969368      -0.08450194
H       -2.25805726       0.34538212      -0.59206784
H       -0.54419084       2.12683799       0.63316003
H        2.51382587      -0.25510740      -0.34460356
H       -0.60650970      -1.64565938       0.71451252
10
Frame=7 idx=003687 GeodesicLength=0.25454471663369177 rxn_smarts="[c:1]1([H:7])[c:2]([H:8])[n:3][c:4]([H:9])[n:5][c:6]1[H:10]>>[C:1]1([H:7])=[C:2]([H:8])[N:3]2[C:4]([H:9])=[N:5][C@:6]12[H:10]"
C       -1.23088145       0.24672524      -0.26513139
C       -0.37749504       1.10571678       0.32596719
N        0.80039690       0.45712520       0.72175644
C        1.43872449      -0.28630953      -0.24138027
N        0.69378795      -1.15339047      -0.87207113
C       -0.40833553      -0.93104657      -0.08181497
H       -2.26345357       0.33975342      -0.56240966
H       -0.53974604       2.13497866       0.62272067
H        2.51987765      -0.24751325      -0.33965571
H       -0.63287537      -1.66603946       0.69201884
10
Frame=8 idx=003687 GeodesicLength=0.29027659653772364 rxn_smarts="[c:1]1([H:7])[c:2]([H:8])[n:3][c:4]([H:9])[n:5][c:6]1[H:10]>>[C:1]1([H:7])=[C:2]([H:8])[N:3]2[C:4]([H:9])=[N:5][C@:6]12[H:10]"
C       -1.22627083       0.24699173      -0.26481225
C       -0.37160890       1.11422949       0.31463631
N        0.79648463       0.45693472       0.72000309
C        1.44404761      -0.27866712      -0.24343272
N        0.70251584      -1.15801069      -0.86014189
C       -0.40834874      -0.93246104      -0.07776275
H       -2.26730961       0.33465964      -0.53431861
H       -0.53580068       2.14257803       0.61267723
H        2.52556023      -0.23995812      -0.33544955
H       -0.65926955      -1.68629662       0.66860114
10
Frame=9 idx=003687 GeodesicLength=0.32603981360227424 rxn_smarts="[c:1]1([H:7])[c:2]([H:8])[n:3][c:4]([H:9])[n:5][c:6]1[H:10]>>[C:1]1([H:7])=[C:2]([H:8])[N:3]2[C:4]([H:9])=[N:5][C@:6]12[H:10]"
C       -1.22175421       0.24688812      -0.26371424
C       -0.36578769       1.12271113       0.30339224
N        0.79296250       0.45746749       0.71775021
C        1.44924285      -0.27096308      -0.24584227
N        0.71098924      -1.16310365      -0.84722024
C       -0.40833208      -0.93412825      -0.07233526
H       -2.26987057       0.32999551      -0.50757146
H       -0.53241845       2.14998922       0.60337941
H        2.53106556      -0.23227006      -0.33211909
H       -0.68609716      -1.70658644       0.64428070
10
Frame=10 idx=003687 GeodesicLength=0.36169608641018375 rxn_smarts="[c:1]1([H:7])[c:2]([H:8])[n:3][c:4]([H:9])[n:5][c:6]1[H:10]>>[C:1]1([H:7])=[C:2]([H:8])[N:3]2[C:4]([H:9])=[N:5][C@:6]12[H:10]"
C       -1.21730222       0.24643609      -0.26177993
C       -0.36005474       1.13106353       0.29235430
N        0.78983044       0.45860425       0.71512980
C        1.45431045      -0.26321810      -0.24845567
N        0.71923654      -1.16849920      -0.83322265
C       -0.40824592      -0.93598925      -0.06548739
H       -2.27140910       0.32564588      -0.48175346
H       -0.52935944       2.15725441       0.59424540
H        2.53637643      -0.22438435      -0.32956253
H       -0.71338245      -1.72691327       0.61853215
10
Frame=11 idx=003687 GeodesicLength=0.3972277787890846 rxn_smarts="[c:1]1([H:7])[c:2]([H:8])[n:3][c:4]([H:9])[n:5][c:6]1[H:10]>>[C:1]1([H:7])=[C:2]([H:8])[N:3]2[C:4]([H:9])=[N:5][C@:6]12[H:10]"
C       -1.21290315       0.24561016      -0.25888764
C       -0.35444862       1.13926686       0.28161510
N        0.78707510       0.46033752       0.71223207
C        1.45921734      -0.25544088      -0.25123867
N        0.72724857      -1.17410867      -0.81814763
C       -0.40806245      -0.93805682      -0.05708931
H       -2.27201808       0.32153629      -0.45677149
H       -0.52648543       2.16447328       0.58499281
H        2.54145526      -0.21632717      -0.32774301
H       -0.74107855      -1.74729058       0.59103776
10
Frame=12 idx=003687 GeodesicLength=0.4327251276177214 rxn_smarts="[c:1]1([H:7])[c:2]([H:8])[n:3][c:4]([H:9])[n:5][c:6]1[H:10]>>[C:1]1([H:7])=[C:2]([H:8])[N:3]2[C:4]([H:9])=[N:5][C@:6]12[H:10]"
C       -1.20853357       0.24442645      -0.25508636
C       -0.34899259       1.14733441       0.27113969
N        0.78470521       0.46265031       0.70911193
C        1.46403177      -0.24770492      -0.25410564
N        0.73511204      -1.17993305      -0.80190960
C       -0.40775908      -0.94035662      -0.04701759
H       -2.27191100       0.31760889      -0.43227409
H       -0.52379362       2.17175335       0.57540709
H        2.54640044      -0.20810412      -0.32664931
H       -0.76925961      -1.76767470       0.56138387
10
Frame=13 idx=003687 GeodesicLength=0.468152835788321 rxn_smarts="[c:1]1([H:7])[c:2]([H:8])[n:3][c:4]([H:9])[n:5][c:6]1[H:10]>>[C:1]1([H:7])=[C:2]([H:8])[N:3]2[C:4]([H:9])=[N:5][C@:6]12[H:10]"
C       -1.20407964       0.24284137      -0.25053895
C       -0.34359959       1.15524521       0.26076947
N        0.78276479       0.46559126       0.70578096
C        1.46875297      -0.24007030      -0.25694384
N        0.74281745      -1.18602219      -0.78429982
C       -0.40732462      -0.94288244      -0.03510224
H       -2.27116742       0.31370723      -0.40788187
H       -0.52127301       2.17901008       0.56543378
H        2.55118443      -0.19961467      -0.32631359
H       -0.79807536      -1.78780556       0.52909608
10
Frame=14 idx=003687 GeodesicLength=0.5033221959441243 rxn_smarts="[c:1]1([H:7])[c:2]([H:8])[n:3][c:4]([H:9])[n:5][c:6]1[H:10]>>[C:1]1([H:7])=[C:2]([H:8])[N:3]2[C:4]([H:9])=[N:5][C@:6]12[H:10]"
C       -1.19962591       0.24077837      -0.24483903
C       -0.33837639       1.16294344       0.25070158
N        0.78124089       0.46918015       0.70229173
C        1.47322595      -0.23250273      -0.25980682
N        0.75015586      -1.19210478      -0.76547822
C       -0.40674869      -0.94563510      -0.02106634
H       -2.26978102       0.30975942      -0.38380052
H       -0.51877024       2.18633733       0.55471323
H        2.55565222      -0.19119920      -0.32655290
H       -0.82697267      -1.80755689       0.49383730
10
Frame=15 idx=003687 GeodesicLength=0.538442305772984 rxn_smarts="[c:1]1([H:7])[c:2]([H:8])[n:3][c:4]([H:9])[n:5][c:6]1[H:10]>>[C:1]1([H:7])=[C:2]([H:8])[N:3]2[C:4]([H:9])=[N:5][C@:6]12[H:10]"
C       -1.19504746       0.23825298      -0.23827745
C       -0.33328738       1.17045008       0.24078473
N        0.78016604       0.47337481       0.69864365
C        1.47755685      -0.22522014      -0.26262247
N        0.75726693      -1.19848822      -0.74514288
C       -0.40605663      -0.94872830      -0.00469221
H       -2.26779422       0.30581241      -0.36011796
H       -0.51659871       2.19360503       0.54369051
H        2.55991032      -0.18264636      -0.32781677
H       -0.85611574      -1.82641228       0.45555085
10
Frame=16 idx=003687 GeodesicLength=0.5732092264988142 rxn_smarts="[c:1]1([H:7])[c:2]([H:8])[n:3][c:4]([H:9])[n:5][c:6]1[H:10]>>[C:1]1([H:7])=[C:2]([H:8])[N:3]2[C:4]([H:9])=[N:5][C@:6]12[H:10]"
C       -1.19038897       0.23518332      -0.23067413
C       -0.32839553       1.17761175       0.23106422
N        0.77941164       0.47807987       0.69487843
C        1.48151736      -0.21818980      -0.26539922
N        0.76390472      -1.20480222      -0.72358961
C       -0.40529560      -0.95211671       0.01400128
H       -2.26523855       0.30171974      -0.33660509
H       -0.51454853       2.20073370       0.53193972
H        2.56369900      -0.17437250      -0.32963380
H       -0.88466555      -1.84384715       0.41401822
