19
Frame=0 idx=007439 GeodesicLength=0.0 rxn_smarts="[C:1]([C:2]([C@@:3]1([H:13])[C:4]([H:14])([H:15])[C@@:5]2([H:16])[C:6]([H:17])([H:18])[C@@:7]12[H:19])([H:11])[H:12])([H:8])([H:9])[H:10]>>[C:1]([C:2]([C@@:3]1([H:13])[C:4]([H:14])([H:15])[C:5]([H:16])([H:17])[C@:7]1([C:6][H:18])[H:19])([H:11])[H:12])([H:8])([H:9])[H:10]"
C        2.34875324       0.45098713      -0.66426078
C        1.14285948      -0.47753010      -0.73978367
C        0.22105907      -0.33077981       0.45522121
C       -0.56312636       0.99358395       0.64753783
C       -1.86409331       0.19754958       0.79211643
C       -2.08262718      -0.90041031      -0.61177151
C       -1.11723550      -1.10939869       0.46467631
H        2.99317319       0.34052250      -1.53777383
H        2.95195065       0.24280308       0.22293627
H        2.03922695       1.49810173      -0.61315506
H        0.58428721      -0.27996056      -1.65997108
H        1.47773698      -1.51802925      -0.80290290
H        0.77908587      -0.55473494       1.36875287
H       -0.55669372       1.67782609      -0.20224360
H       -0.28885965       1.55014751       1.54272017
H       -2.49174140       0.21218537       1.67663394
H       -2.70573376       0.26858068      -0.03796671
H       -1.63130869      -0.27894131      -1.39906641
H       -1.23671311      -1.98250257       1.09830051
19
Frame=1 idx=007439 GeodesicLength=0.051198262005010396 rxn_smarts="[C:1]([C:2]([C@@:3]1([H:13])[C:4]([H:14])([H:15])[C@@:5]2([H:16])[C:6]([H:17])([H:18])[C@@:7]12[H:19])([H:11])[H:12])([H:8])([H:9])[H:10]>>[C:1]([C:2]([C@@:3]1([H:13])[C:4]([H:14])([H:15])[C:5]([H:16])([H:17])[C@:7]1([C:6][H:18])[H:19])([H:11])[H:12])([H:8])([H:9])[H:10]"
C        2.35060658       0.45022651      -0.66322068
C        1.14376555      -0.47696321      -0.73959078
C        0.22188219      -0.33012884       0.45542753
C       -0.56306488       0.99401355       0.64649053
C       -1.86471545       0.19871006       0.79080033
C       -2.08087744      -0.89412989      -0.60936890
C       -1.11526913      -1.10938203       0.46464208
H        2.99450687       0.34035881      -1.53720696
H        2.95403680       0.23987820       0.22331293
H        2.04205929       1.49753025      -0.61027394
H        0.58558873      -0.27804167      -1.65972523
H        1.47755642      -1.51776226      -0.80362903
H        0.77989495      -0.55369433       1.36905341
H       -0.55514539       1.67767706      -0.20383841
H       -0.28819649       1.55140660       1.54097974
H       -2.48506181       0.21362670       1.68052569
H       -2.72741792       0.25799122      -0.03889345
H       -1.63386860      -0.27866343      -1.40314719
H       -1.23628026      -1.98265330       1.09766235
19
Frame=2 idx=007439 GeodesicLength=0.10239524006217388 rxn_smarts="[C:1]([C:2]([C@@:3]1([H:13])[C:4]([H:14])([H:15])[C@@:5]2([H:16])[C:6]([H:17])([H:18])[C@@:7]12[H:19])([H:11])[H:12])([H:8])([H:9])[H:10]>>[C:1]([C:2]([C@@:3]1([H:13])[C:4]([H:14])([H:15])[C:5]([H:16])([H:17])[C@:7]1([C:6][H:18])[H:19])([H:11])[H:12])([H:8])([H:9])[H:10]"
C        2.35249056       0.44944481      -0.66218497
C        1.14467408      -0.47637668      -0.73940681
C        0.22272347      -0.32945174       0.45563711
C       -0.56292852       0.99449591       0.64547971
C       -1.86531028       0.19998816       0.78946762
C       -2.07910628      -0.88772860      -0.60698616
C       -1.11331448      -1.10928997       0.46459230
H        2.99586459       0.34016607      -1.53664736
H        2.95614628       0.23690597       0.22367798
H        2.04495495       1.49694255      -0.60738584
H        0.58689188      -0.27606880      -1.65947838
H        1.47734562      -1.51748268      -0.80438642
H        0.78071720      -0.55267060       1.36934900
H       -0.55350210       1.67759906      -0.20537914
H       -0.28746078       1.55267787       1.53929958
H       -2.47847792       0.21524246       1.68422419
H       -2.74932381       0.24664592      -0.03966324
H       -1.63648285      -0.27831751      -1.40721402
H       -1.23590161      -1.98272220       1.09700484
19
Frame=3 idx=007439 GeodesicLength=0.15359635900894986 rxn_smarts="[C:1]([C:2]([C@@:3]1([H:13])[C:4]([H:14])([H:15])[C@@:5]2([H:16])[C:6]([H:17])([H:18])[C@@:7]12[H:19])([H:11])[H:12])([H:8])([H:9])[H:10]>>[C:1]([C:2]([C@@:3]1([H:13])[C:4]([H:14])([H:15])[C:5]([H:16])([H:17])[C@:7]1([C:6][H:18])[H:19])([H:11])[H:12])([H:8])([H:9])[H:10]"
C        2.35440079       0.44864377      -0.66115809
C        1.14558414      -0.47577309      -0.73923051
C        0.22358271      -0.32875065       0.45585170
C       -0.56271045       0.99503198       0.64451402
C       -1.86587541       0.20139186       0.78811835
C       -2.07731701      -0.88119484      -0.60462378
C       -1.11137560      -1.10911809       0.46452555
H        2.99724447       0.33993948      -1.53609682
H        2.95827201       0.23390099       0.22403152
H        2.04790561       1.49633973      -0.60450863
H        0.58819479      -0.27404883      -1.65922944
H        1.47710651      -1.51719209      -0.80517060
H        0.78155209      -0.55167200       1.36964007
H       -0.55175238       1.67759711      -0.20685373
H       -0.28664615       1.55395481       1.53769326
H       -2.47200526       0.21703905       1.68772320
H       -2.77142940       0.23451535      -0.04028422
H       -1.63914624      -0.27789968      -1.41126711
H       -1.23558521      -1.98270487       1.09632526
19
Frame=4 idx=007439 GeodesicLength=0.20481784811576037 rxn_smarts="[C:1]([C:2]([C@@:3]1([H:13])[C:4]([H:14])([H:15])[C@@:5]2([H:16])[C:6]([H:17])([H:18])[C@@:7]12[H:19])([H:11])[H:12])([H:8])([H:9])[H:10]>>[C:1]([C:2]([C@@:3]1([H:13])[C:4]([H:14])([H:15])[C:5]([H:16])([H:17])[C@:7]1([C:6][H:18])[H:19])([H:11])[H:12])([H:8])([H:9])[H:10]"
C        2.35633252       0.44782555      -0.66014477
C        1.14649458      -0.47515543      -0.73906044
C        0.22445952      -0.32802811       0.45607332
C       -0.56240346       0.99562301       0.64360275
C       -1.86640785       0.20292946       0.78675522
C       -2.07551486      -0.87451492      -0.60228138
C       -1.10945749      -1.10886177       0.46444024
H        2.99864476       0.33967376      -1.53555699
H        2.96040645       0.23087994       0.22437424
H        2.05090198       1.49572346      -0.60166213
H        0.58949499      -0.27198979      -1.65897728
H        1.47684131      -1.51689256      -0.80597639
H        0.78239922      -0.55070773       1.36992721
H       -0.54988538       1.67767639      -0.20824969
H       -0.28574451       1.55523131       1.53617468
H       -2.46565912       0.21902164       1.69101903
H       -2.79370978       0.22157013      -0.04077050
H       -1.64185282      -0.27740665      -1.41530671
H       -1.23534006      -1.98259769       1.09561960
19
Frame=5 idx=007439 GeodesicLength=0.25606281232315187 rxn_smarts="[C:1]([C:2]([C@@:3]1([H:13])[C:4]([H:14])([H:15])[C@@:5]2([H:16])[C:6]([H:17])([H:18])[C@@:7]12[H:19])([H:11])[H:12])([H:8])([H:9])[H:10]>>[C:1]([C:2]([C@@:3]1([H:13])[C:4]([H:14])([H:15])[C:5]([H:16])([H:17])[C@:7]1([C:6][H:18])[H:19])([H:11])[H:12])([H:8])([H:9])[H:10]"
C        2.35828621       0.44699360      -0.65915126
C        1.14740583      -0.47452841      -0.73889628
C        0.22535310      -0.32728715       0.45630399
C       -0.56200234       0.99627409       0.64275735
C       -1.86691033       0.20461103       0.78538531
C       -2.07371309      -0.86767664      -0.59995647
C       -1.10757008      -1.10851853       0.46433530
H        3.00007042       0.33936396      -1.53503180
H        2.96254960       0.22786130       0.22470490
H        2.05393915       1.49509988      -0.59886689
H        0.59078933      -0.26990169      -1.65872131
H        1.47655482      -1.51659077      -0.80680087
H        0.78326017      -0.54978783       1.37021025
H       -0.54789344       1.67784707      -0.20955207
H       -0.28474716       1.55650683       1.53475971
H       -2.45946224       0.22119357       1.69411246
H       -2.81612950       0.20777945      -0.04114324
H       -1.64459989      -0.27683803      -1.41933212
H       -1.23518056      -1.98240171       1.09488304
19
Frame=6 idx=007439 GeodesicLength=0.30724266402941 rxn_smarts="[C:1]([C:2]([C@@:3]1([H:13])[C:4]([H:14])([H:15])[C@@:5]2([H:16])[C:6]([H:17])([H:18])[C@@:7]12[H:19])([H:11])[H:12])([H:8])([H:9])[H:10]>>[C:1]([C:2]([C@@:3]1([H:13])[C:4]([H:14])([H:15])[C:5]([H:16])([H:17])[C@:7]1([C:6][H:18])[H:19])([H:11])[H:12])([H:8])([H:9])[H:10]"
C        2.36023977       0.44614799      -0.65817820
C        1.14831257      -0.47389161      -0.73873307
C        0.22626359      -0.32653222       0.45654448
C       -0.56149425       0.99697097       0.64197981
C       -1.86736926       0.20643805       0.78397921
C       -2.07188367      -0.86067909      -0.59766255
C       -1.10570375      -1.10808113       0.46420825
H        3.00149981       0.33900515      -1.53451498
H        2.96466882       0.22486223       0.22503142
H        2.05699090       1.49445981      -0.59614549
H        0.59207814      -0.26778910      -1.65845853
H        1.47624457      -1.51627649      -0.80763002
H        0.78412650      -0.54892248       1.37049093
H       -0.54574924       1.67809830      -0.21075453
H       -0.28365497       1.55775140       1.53345935
H       -2.45340768       0.22357068       1.69697174
H       -2.83867841       0.19314306      -0.04136341
H       -1.64738369      -0.27617622      -1.42334473
H       -1.23509978      -1.98209931       1.09412033
19
Frame=7 idx=007439 GeodesicLength=0.35836676590119254 rxn_smarts="[C:1]([C:2]([C@@:3]1([H:13])[C:4]([H:14])([H:15])[C@@:5]2([H:16])[C:6]([H:17])([H:18])[C@@:7]12[H:19])([H:11])[H:12])([H:8])([H:9])[H:10]>>[C:1]([C:2]([C@@:3]1([H:13])[C:4]([H:14])([H:15])[C:5]([H:16])([H:17])[C@:7]1([C:6][H:18])[H:19])([H:11])[H:12])([H:8])([H:9])[H:10]"
C        2.36220764       0.44529046      -0.65723074
C        1.14921674      -0.47324853      -0.73857484
C        0.22718829      -0.32576181       0.45679558
C       -0.56088354       0.99772895       0.64128020
C       -1.86779838       0.20842294       0.78255825
C       -2.07005956      -0.85351220      -0.59538856
C       -1.10387587      -1.10754950       0.46405933
H        3.00295077       0.33859514      -1.53401485
H        2.96678503       0.22188433       0.22534710
H        2.06007154       1.49381382      -0.59349927
H        0.59335658      -0.26565558      -1.65819102
H        1.47591309      -1.51596144      -0.80847253
H        0.78500295      -0.54811338       1.37076729
H       -0.54346107       1.67844806      -0.21184594
H       -0.28246159       1.55898370       1.53228323
H       -2.44752498       0.22614880       1.69961556
H       -2.86130224       0.17761699      -0.04147086
H       -1.65020836      -0.27543187      -1.42734304
H       -1.23511704      -1.98169888       1.09332510
19
Frame=8 idx=007439 GeodesicLength=0.4094646863449635 rxn_smarts="[C:1]([C:2]([C@@:3]1([H:13])[C:4]([H:14])([H:15])[C@@:5]2([H:16])[C:6]([H:17])([H:18])[C@@:7]12[H:19])([H:11])[H:12])([H:8])([H:9])[H:10]>>[C:1]([C:2]([C@@:3]1([H:13])[C:4]([H:14])([H:15])[C:5]([H:16])([H:17])[C@:7]1([C:6][H:18])[H:19])([H:11])[H:12])([H:8])([H:9])[H:10]"
C        2.36418473       0.44441802      -0.65630793
C        1.15011447      -0.47259685      -0.73842109
C        0.22812625      -0.32497379       0.45705710
C       -0.56016507       0.99854918       0.64065916
C       -1.86819079       0.21057269       0.78112055
C       -2.06823933      -0.84616331      -0.59313388
C       -1.10208602      -1.10691586       0.46388672
H        3.00441635       0.33813069      -1.53352990
H        2.96889096       0.21892254       0.22565348
H        2.06317931       1.49315743      -0.59092796
H        0.59462260      -0.26349625      -1.65791819
H        1.47555333      -1.51564158      -0.80932762
H        0.78588629      -0.54736185       1.37103910
H       -0.54102115       1.67889748      -0.21282523
H       -0.28116212       1.56020089       1.53123341
H       -2.44181671       0.22893465       1.70204314
H       -2.88398924       0.16115774      -0.04146923
H       -1.65307210      -0.27460042      -1.43132654
H       -1.23523177      -1.98119140       1.09249489
19
Frame=9 idx=007439 GeodesicLength=0.46055916577306527 rxn_smarts="[C:1]([C:2]([C@@:3]1([H:13])[C:4]([H:14])([H:15])[C@@:5]2([H:16])[C:6]([H:17])([H:18])[C@@:7]12[H:19])([H:11])[H:12])([H:8])([H:9])[H:10]>>[C:1]([C:2]([C@@:3]1([H:13])[C:4]([H:14])([H:15])[C:5]([H:16])([H:17])[C@:7]1([C:6][H:18])[H:19])([H:11])[H:12])([H:8])([H:9])[H:10]"
C        2.36617115       0.44352896      -0.65541060
C        1.15100417      -0.47193570      -0.73827270
C        0.22907637      -0.32416658       0.45732892
C       -0.55933526       0.99943549       0.64011979
C       -1.86854474       0.21289553       0.77966691
C       -2.06642783      -0.83862212      -0.59089654
C       -1.10033757      -1.10617466       0.46368897
H        3.00589674       0.33760873      -1.53306116
H        2.97098566       0.21597406       0.22595021
H        2.06631675       1.49248982      -0.58843274
H        0.59587514      -0.26130819      -1.65764051
H        1.47516144      -1.51531660      -0.81019699
H        0.78677444      -0.54667005       1.37130571
H       -0.53842278       1.67945151      -0.21368841
H       -0.27975241       1.56140410       1.53031514
H       -2.43629246       0.23193558       1.70425616
H       -2.90672440       0.14372197      -0.04136513
H       -1.65597629      -0.27367993      -1.43529416
H       -1.23544811      -1.98057192       1.09162714
19
Frame=10 idx=007439 GeodesicLength=0.5114139777965857 rxn_smarts="[C:1]([C:2]([C@@:3]1([H:13])[C:4]([H:14])([H:15])[C@@:5]2([H:16])[C:6]([H:17])([H:18])[C@@:7]12[H:19])([H:11])[H:12])([H:8])([H:9])[H:10]>>[C:1]([C:2]([C@@:3]1([H:13])[C:4]([H:14])([H:15])[C:5]([H:16])([H:17])[C@:7]1([C:6][H:18])[H:19])([H:11])[H:12])([H:8])([H:9])[H:10]"
C        2.36815939       0.44262480      -0.65453982
C        1.15187969      -0.47126560      -0.73812987
C        0.23003441      -0.32334218       0.45761113
C       -0.55839951       1.00038482       0.63966503
C       -1.86886937       0.21539131       0.77818502
C       -2.06462831      -0.83090585      -0.58867772
C       -1.09863387      -1.10532840       0.46346837
H        3.00738330       0.33703152      -1.53260971
H        2.97306402       0.21304263       0.22623608
H        2.06947468       1.49181215      -0.58601513
H        0.59710487      -0.25909323      -1.65735702
H        1.47473351      -1.51498603      -0.81108109
H        0.78766609      -0.54603944       1.37156618
H       -0.53566700       1.68010942      -0.21442981
H       -0.27824123       1.56258473       1.52953454
H       -2.43096521       0.23514529       1.70623552
H       -2.92940061       0.12535232      -0.04114634
H       -1.65892761      -0.27268029      -1.43924561
H       -1.23576724      -1.97983800       1.09073026
19
Frame=11 idx=007439 GeodesicLength=0.562347089136229 rxn_smarts="[C:1]([C:2]([C@@:3]1([H:13])[C:4]([H:14])([H:15])[C@@:5]2([H:16])[C:6]([H:17])([H:18])[C@@:7]12[H:19])([H:11])[H:12])([H:8])([H:9])[H:10]>>[C:1]([C:2]([C@@:3]1([H:13])[C:4]([H:14])([H:15])[C:5]([H:16])([H:17])[C@:7]1([C:6][H:18])[H:19])([H:11])[H:12])([H:8])([H:9])[H:10]"
C        2.37015696       0.44169807      -0.65369682
C        1.15273999      -0.47058206      -0.73799377
C        0.23100213      -0.32249255       0.45790552
C       -0.55734728       1.00140943       0.63930026
C       -1.86915201       0.21807791       0.77669504
C       -2.06285020      -0.82297650      -0.58646518
C       -1.09697845      -1.10436111       0.46322441
H        3.00887583       0.33639563      -1.53218363
H        2.97513539       0.21010594       0.22650337
H        2.07267113       1.49111886      -0.58366264
H        0.59831262      -0.25683559      -1.65706606
H        1.47425685      -1.51464820      -0.81198617
H        0.78856088      -0.54546778       1.37182066
H       -0.53274266       1.68088394      -0.21504348
H       -0.27660958       1.56375317       1.52889638
H       -2.42584342       0.23858467       1.70800901
H       -2.95207337       0.10590908      -0.04087642
H       -1.66191933      -0.27159505      -1.44317784
H       -1.23619545      -1.97897784       1.08979734
19
Frame=12 idx=007439 GeodesicLength=0.613298646708862 rxn_smarts="[C:1]([C:2]([C@@:3]1([H:13])[C:4]([H:14])([H:15])[C@@:5]2([H:16])[C:6]([H:17])([H:18])[C@@:7]12[H:19])([H:11])[H:12])([H:8])([H:9])[H:10]>>[C:1]([C:2]([C@@:3]1([H:13])[C:4]([H:14])([H:15])[C:5]([H:16])([H:17])[C@:7]1([C:6][H:18])[H:19])([H:11])[H:12])([H:8])([H:9])[H:10]"
C        2.37216928       0.44074137      -0.65287898
C        1.15358269      -0.46988287      -0.73786821
C        0.23197685      -0.32161078       0.45821108
C       -0.55618332       1.00252092       0.63902600
C       -1.86939937       0.22096979       0.77519463
C       -2.06110458      -0.81482470      -0.58426305
C       -1.09537615      -1.10326379       0.46295378
H        3.01037570       0.33569614      -1.53178613
H        2.97721114       0.20714335       0.22675241
H        2.07591650       1.49040580      -0.58135944
H        0.59949384      -0.25452600      -1.65677322
H        1.47372444      -1.51430399      -0.81292247
H        0.78945872      -0.54495119       1.37207116
H       -0.52965270       1.68178580      -0.21553114
H       -0.27486127       1.56492116       1.52840513
H       -2.42093415       0.24225725       1.70957369
H       -2.97469863       0.08532000      -0.04054275
H       -1.66496272      -0.27041878      -1.44709268
H       -1.23673626      -1.97797946       1.08883020
19
Frame=13 idx=007439 GeodesicLength=0.6643088850959852 rxn_smarts="[C:1]([C:2]([C@@:3]1([H:13])[C:4]([H:14])([H:15])[C@@:5]2([H:16])[C:6]([H:17])([H:18])[C@@:7]12[H:19])([H:11])[H:12])([H:8])([H:9])[H:10]>>[C:1]([C:2]([C@@:3]1([H:13])[C:4]([H:14])([H:15])[C:5]([H:16])([H:17])[C@:7]1([C:6][H:18])[H:19])([H:11])[H:12])([H:8])([H:9])[H:10]"
C        2.37419825       0.43974631      -0.65208077
C        1.15439482      -0.46915299      -0.73775517
C        0.23295491      -0.32068511       0.45852508
C       -0.55490573       1.00372343       0.63883651
C       -1.86960707       0.22407095       0.77368081
C       -2.05939041      -0.80645498      -0.58205059
C       -1.09382604      -1.10202793       0.46266549
H        3.01186861       0.33494313      -1.53141952
H        2.97929760       0.20410588       0.22696649
H        2.07923586       1.48966336      -0.57906114
H        0.60064071      -0.25212775      -1.65646978
H        1.47310227      -1.51393936      -0.81390806
H        0.79035462      -0.54447454       1.37230684
H       -0.52639087       1.68281577      -0.21589733
H       -0.27299644       1.56609124       1.52804911
H       -2.41624738       0.24617485       1.71093265
H       -2.99723979       0.06352585      -0.04018264
H       -1.66806118      -0.26916836      -1.45098053
H       -1.23738273      -1.97682975       1.08784254
19
Frame=14 idx=007439 GeodesicLength=0.7152057887719899 rxn_smarts="[C:1]([C:2]([C@@:3]1([H:13])[C:4]([H:14])([H:15])[C@@:5]2([H:16])[C:6]([H:17])([H:18])[C@@:7]12[H:19])([H:11])[H:12])([H:8])([H:9])[H:10]>>[C:1]([C:2]([C@@:3]1([H:13])[C:4]([H:14])([H:15])[C:5]([H:16])([H:17])[C@:7]1([C:6][H:18])[H:19])([H:11])[H:12])([H:8])([H:9])[H:10]"
C        2.37623369       0.43871617      -0.65130450
C        1.15517411      -0.46839768      -0.73765681
C        0.23393002      -0.31971979       0.45884460
C       -0.55351814       1.00501835       0.63873424
C       -1.86977613       0.22738424       0.77216073
C       -2.05772316      -0.79785768      -0.57983161
C       -1.09233569      -1.10065412       0.46235108
H        3.01337013       0.33411755      -1.53106736
H        2.98137026       0.20102475       0.22716274
H        2.08261182       1.48889664      -0.57680633
H        0.60174993      -0.24965945      -1.65616317
H        1.47239658      -1.51355864      -0.81493134
H        0.79123932      -0.54405002       1.37252892
H       -0.52296188       1.68397642      -0.21613971
H       -0.27101894       1.56726657       1.52783117
H       -2.41178063       0.25031915       1.71207880
H       -3.01960372       0.04055611      -0.03976871
H       -1.67122013      -0.26783890      -1.45483624
H       -1.23813745      -1.97553968       1.08681349
19
Frame=15 idx=007439 GeodesicLength=0.7661215781020247 rxn_smarts="[C:1]([C:2]([C@@:3]1([H:13])[C:4]([H:14])([H:15])[C@@:5]2([H:16])[C:6]([H:17])([H:18])[C@@:7]12[H:19])([H:11])[H:12])([H:8])([H:9])[H:10]>>[C:1]([C:2]([C@@:3]1([H:13])[C:4]([H:14])([H:15])[C:5]([H:16])([H:17])[C@:7]1([C:6][H:18])[H:19])([H:11])[H:12])([H:8])([H:9])[H:10]"
C        2.37828744       0.43764077      -0.65054929
C        1.15591651      -0.46760829      -0.73757982
C        0.23490392      -0.31870524       0.45917195
C       -0.55202160       1.00641681       0.63872565
C       -1.86991116       0.23092437       0.77064135
C       -2.05611356      -0.78902691      -0.57759485
C       -1.09090661      -1.09913169       0.46201924
H        3.01487631       0.33322305      -1.53074423
H        2.98345393       0.19785494       0.22732853
H        2.08606962       1.48809872      -0.57455545
H        0.60281372      -0.24709410      -1.65585696
H        1.47158919      -1.51315815      -0.81601872
H        0.79212198      -0.54366645       1.37273851
H       -0.51936891       1.68527716      -0.21625451
H       -0.26892452       1.56845714       1.52776173
H       -2.40755838       0.25471707       1.71303184
H       -3.04178191       0.01631712      -0.03936423
H       -1.67445149      -0.26644179      -1.45866004
H       -1.23899446      -1.97409451       1.08575931
19
Frame=16 idx=007439 GeodesicLength=0.8170270185047336 rxn_smarts="[C:1]([C:2]([C@@:3]1([H:13])[C:4]([H:14])([H:15])[C@@:5]2([H:16])[C:6]([H:17])([H:18])[C@@:7]12[H:19])([H:11])[H:12])([H:8])([H:9])[H:10]>>[C:1]([C:2]([C@@:3]1([H:13])[C:4]([H:14])([H:15])[C:5]([H:16])([H:17])[C@:7]1([C:6][H:18])[H:19])([H:11])[H:12])([H:8])([H:9])[H:10]"
C        2.38035723       0.43651490      -0.64981319
C        1.15661453      -0.46678063      -0.73752389
C        0.23587194      -0.31763565       0.45950640
C       -0.55041599       1.00792437       0.63881071
C       -1.87001064       0.23470038       0.76912353
C       -2.05456809      -0.77995237      -0.57533497
C       -1.08954334      -1.09745185       0.46166881
H        3.01638080       0.33225361      -1.53044956
H        2.98554423       0.19458176       0.22746156
H        2.08961615       1.48726469      -0.57230152
H        0.60382701      -0.24441927      -1.65554753
H        1.47066498      -1.51273387      -0.81717273
H        0.79299661      -0.54331989       1.37293284
H       -0.51560836       1.68672379      -0.21623997
H       -0.26670885       1.56966620       1.52783809
H       -2.40358390       0.25937360       1.71378832
H       -3.06371319      -0.00925230      -0.03897872
H       -1.67776251      -0.26497107      -1.46244471
H       -1.23995862      -1.97248640       1.08467650
