13
Frame=0 idx=007906 GeodesicLength=0.0 rxn_smarts="[C:1]([O:2]/[C:3](=[N:4]\[H:11])[N:5]([C:6](=[O:7])[H:13])[H:12])([H:8])([H:9])[H:10]>>[C:1]([O:2][C@:3]12[N:4]([H:11])[O:7][C@@:6]1([H:13])[N:5]2[H:12])([H:8])([H:9])[H:10]"
C       -1.74800439      -0.29361765      -0.93096398
O       -1.16879304      -0.02203797       0.34767924
C        0.15512498       0.14231888       0.40485537
N        0.73282531       0.97676547      -0.57222367
N        0.73338260      -0.10898698       1.68160025
C        1.55574739      -0.67836867       0.65294834
O        2.30990919       0.19957186       0.06744635
H       -2.65946517      -0.85555087      -0.73645844
H       -1.06354126      -0.88356747      -1.54161864
H       -1.99696584       0.63066150      -1.45222084
H        0.31852536       1.92551420      -0.49664624
H        1.18447428       0.71312004       2.07680203
H        1.64678057      -1.74582236       0.49880017
13
Frame=1 idx=007906 GeodesicLength=0.06011296275298637 rxn_smarts="[C:1]([O:2]/[C:3](=[N:4]\[H:11])[N:5]([C:6](=[O:7])[H:13])[H:12])([H:8])([H:9])[H:10]>>[C:1]([O:2][C@:3]12[N:4]([H:11])[O:7][C@@:6]1([H:13])[N:5]2[H:12])([H:8])([H:9])[H:10]"
C       -1.75736031      -0.29019614      -0.92738695
O       -1.16823608      -0.02926531       0.34779306
C        0.15679561       0.13484126       0.39576782
N        0.73867469       0.96470902      -0.57766932
N        0.72920136      -0.11926784       1.67324534
C        1.57781946      -0.67198778       0.66065058
O        2.33700732       0.21735012       0.09798457
H       -2.67974936      -0.83212479      -0.72779601
H       -1.08888039      -0.89527228      -1.54111585
H       -1.99048186       0.63905740      -1.44734151
H        0.31868191       1.91053775      -0.52402158
H        1.15297025       0.70696516       2.08824313
H        1.67355739      -1.73534659       0.48164673
13
Frame=2 idx=007906 GeodesicLength=0.12006233224067751 rxn_smarts="[C:1]([O:2]/[C:3](=[N:4]\[H:11])[N:5]([C:6](=[O:7])[H:13])[H:12])([H:8])([H:9])[H:10]>>[C:1]([O:2][C@:3]12[N:4]([H:11])[O:7][C@@:6]1([H:13])[N:5]2[H:12])([H:8])([H:9])[H:10]"
C       -1.76686899      -0.28658284      -0.92373637
O       -1.16775064      -0.03648652       0.34780752
C        0.15838959       0.12700861       0.38650849
N        0.74461048       0.95220687      -0.58327870
N        0.72529653      -0.12974247       1.66457326
C        1.59986174      -0.66528167       0.66866546
O        2.36329695       0.23567962       0.12933389
H       -2.69979361      -0.80806979      -0.71881880
H       -1.11495269      -0.90666478      -1.54047522
H       -1.98393217       0.64730931      -1.44254862
H        0.31936323       1.89477807      -0.55185218
H        1.12110883       0.69966689       2.09909919
H        1.70137074      -1.72382130       0.46472209
13
Frame=3 idx=007906 GeodesicLength=0.17980477925323737 rxn_smarts="[C:1]([O:2]/[C:3](=[N:4]\[H:11])[N:5]([C:6](=[O:7])[H:13])[H:12])([H:8])([H:9])[H:10]>>[C:1]([O:2][C@:3]12[N:4]([H:11])[O:7][C@@:6]1([H:13])[N:5]2[H:12])([H:8])([H:9])[H:10]"
C       -1.77649471      -0.28278980      -0.92001493
O       -1.16735104      -0.04367591       0.34773016
C        0.15988529       0.11887453       0.37709969
N        0.75060798       0.93931252      -0.58902667
N        0.72169815      -0.14036720       1.65558741
C        1.62180287      -0.65825560       0.67696790
O        2.38869479       0.25448314       0.16139533
H       -2.71950073      -0.78348305      -0.70955166
H       -1.14168434      -0.91769508      -1.53968536
H       -1.97732658       0.65538246      -1.43785655
H        0.32056019       1.87827587      -0.58007949
H        1.08903758       0.69118650       2.10933785
H        1.73007055      -1.71124838       0.44809632
13
Frame=4 idx=007906 GeodesicLength=0.2392992318412303 rxn_smarts="[C:1]([O:2]/[C:3](=[N:4]\[H:11])[N:5]([C:6](=[O:7])[H:13])[H:12])([H:8])([H:9])[H:10]>>[C:1]([O:2][C@:3]12[N:4]([H:11])[O:7][C@@:6]1([H:13])[N:5]2[H:12])([H:8])([H:9])[H:10]"
C       -1.78620110      -0.27883463      -0.91622855
O       -1.16705460      -0.05080249       0.34757154
C        0.16125868       0.11050880       0.36756846
N        0.75664217       0.92609093      -0.59488612
N        0.71843430      -0.15109352       1.64629536
C        1.64356775      -0.65091958       0.68553031
O        2.41313110       0.27367586       0.19406175
H       -2.73877745      -0.75847987      -0.70002472
H       -1.16898994      -0.92831529      -1.53874091
H       -1.97068128       0.66323771      -1.43328259
H        0.32226370       1.86108202      -0.60864220
H        1.05692396       0.68149049       2.11893960
H        1.75948270      -1.69764042       0.43183807
13
Frame=5 idx=007906 GeodesicLength=0.2984922023178666 rxn_smarts="[C:1]([O:2]/[C:3](=[N:4]\[H:11])[N:5]([C:6](=[O:7])[H:13])[H:12])([H:8])([H:9])[H:10]>>[C:1]([O:2][C@:3]12[N:4]([H:11])[O:7][C@@:6]1([H:13])[N:5]2[H:12])([H:8])([H:9])[H:10]"
C       -1.79590311      -0.27475742      -0.91237303
O       -1.16687249      -0.05781594       0.34736520
C        0.16249281       0.10201739       0.35800539
N        0.76271096       0.91264679      -0.60076864
N        0.71549843      -0.16186787       1.63674764
C        1.66506287      -0.64335617       0.69427570
O        2.43662803       0.29302771       0.22714033
H       -2.75748992      -0.73328272      -0.69031530
H       -1.19664997      -0.93850645      -1.53758527
H       -1.96401233       0.67082829      -1.42881401
H        0.32443529       1.84331511      -0.63740878
H        1.02487037       0.67082396       2.12792851
H        1.78922905      -1.68307267       0.41580226
13
Frame=6 idx=007906 GeodesicLength=0.35744020205462895 rxn_smarts="[C:1]([O:2]/[C:3](=[N:4]\[H:11])[N:5]([C:6](=[O:7])[H:13])[H:12])([H:8])([H:9])[H:10]>>[C:1]([O:2][C@:3]12[N:4]([H:11])[O:7][C@@:6]1([H:13])[N:5]2[H:12])([H:8])([H:9])[H:10]"
C       -1.80571198      -0.27050759      -0.90846364
O       -1.16679155      -0.06479805       0.34707612
C        0.16361180       0.09328242       0.34827115
N        0.76880362       0.89888403      -0.60681592
N        0.71295663      -0.17272893       1.62690025
C        1.68637409      -0.63542552       0.70327961
O        2.45910204       0.31281234       0.26081257
H       -2.77580583      -0.70763564      -0.68032814
H       -1.22495094      -0.94825350      -1.53630045
H       -1.95729897       0.67821215      -1.42449380
H        0.32710436       1.82481450      -0.66655247
H        0.99290415       0.65875237       2.13629269
H        1.81970259      -1.66740857       0.40032204
13
Frame=7 idx=007906 GeodesicLength=0.41618032866169913 rxn_smarts="[C:1]([O:2]/[C:3](=[N:4]\[H:11])[N:5]([C:6](=[O:7])[H:13])[H:12])([H:8])([H:9])[H:10]>>[C:1]([O:2][C@:3]12[N:4]([H:11])[O:7][C@@:6]1([H:13])[N:5]2[H:12])([H:8])([H:9])[H:10]"
C       -1.81547580      -0.26607909      -0.90444539
O       -1.16679338      -0.07166204       0.34674477
C        0.16457539       0.08440246       0.33846746
N        0.77484790       0.88480475      -0.61291673
N        0.71074852      -0.18361721       1.61665493
C        1.70740896      -0.62721978       0.71245177
O        2.48054718       0.33277590       0.29494324
H       -2.79349015      -0.68164379      -0.67015835
H       -1.25360458      -0.95751880      -1.53471476
H       -1.95052435       0.68536304      -1.42024356
H        0.33012428       1.80557496      -0.69596392
H        0.96099907       0.64551886       2.14396831
H        1.85063696      -1.65069927       0.38521224
13
Frame=8 idx=007906 GeodesicLength=0.4746928249357328 rxn_smarts="[C:1]([O:2]/[C:3](=[N:4]\[H:11])[N:5]([C:6](=[O:7])[H:13])[H:12])([H:8])([H:9])[H:10]>>[C:1]([O:2][C@:3]12[N:4]([H:11])[O:7][C@@:6]1([H:13])[N:5]2[H:12])([H:8])([H:9])[H:10]"
C       -1.82530872      -0.26154736      -0.90038432
O       -1.16696369      -0.07847648       0.34641714
C        0.16539205       0.07539795       0.32859617
N        0.78097498       0.87054662      -0.61913987
N        0.70889447      -0.19450456       1.60620944
C        1.72817433      -0.61872851       0.72178323
O        2.50109201       0.35300758       0.32944769
H       -2.81073915      -0.65548930      -0.65979468
H       -1.28272999      -0.96636783      -1.53304283
H       -1.94373417       0.69228469      -1.41613124
H        0.33370205       1.78577840      -0.72565394
H        0.92934615       0.63114195       2.15118352
H        1.88189968      -1.63304314       0.37050969
13
Frame=9 idx=007906 GeodesicLength=0.5327564089616393 rxn_smarts="[C:1]([O:2]/[C:3](=[N:4]\[H:11])[N:5]([C:6](=[O:7])[H:13])[H:12])([H:8])([H:9])[H:10]>>[C:1]([O:2][C@:3]12[N:4]([H:11])[O:7][C@@:6]1([H:13])[N:5]2[H:12])([H:8])([H:9])[H:10]"
C       -1.83503337      -0.25683991      -0.89625503
O       -1.16711482      -0.08524449       0.34591236
C        0.16608809       0.06628257       0.31861549
N        0.78695296       0.85609522      -0.62531411
N        0.70746127      -0.20540831       1.59543541
C        1.74859268      -0.60996993       0.73129835
O        2.52045083       0.37321182       0.36431908
H       -2.82723116      -0.62911733      -0.64928104
H       -1.31210918      -0.97456811      -1.53103648
H       -1.93694490       0.69891945      -1.41209712
H        0.33751139       1.76528088      -0.75546888
H        0.89808055       0.61565866       2.15748948
H        1.91329567      -1.61430053       0.35638249
13
Frame=10 idx=007906 GeodesicLength=0.5906625938174983 rxn_smarts="[C:1]([O:2]/[C:3](=[N:4]\[H:11])[N:5]([C:6](=[O:7])[H:13])[H:12])([H:8])([H:9])[H:10]>>[C:1]([O:2][C@:3]12[N:4]([H:11])[O:7][C@@:6]1([H:13])[N:5]2[H:12])([H:8])([H:9])[H:10]"
C       -1.84482387      -0.25196830      -0.89205992
O       -1.16739706      -0.09204258       0.34541485
C        0.16664165       0.05698326       0.30851571
N        0.79297998       0.84132526      -0.63168735
N        0.70639098      -0.21625132       1.58438726
C        1.76875917      -0.60086549       0.74098594
O        2.53888479       0.39371270       0.39958749
H       -2.84324548      -0.60255484      -0.63856959
H       -1.34196695      -0.98217782      -1.52903608
H       -1.93019799       0.70544117      -1.40804581
H        0.34180879       1.74400946      -0.78567846
H        0.86707599       0.59893830       2.16333167
H        1.94509000      -1.59454981       0.34285429
13
Frame=11 idx=007906 GeodesicLength=0.6484387148589167 rxn_smarts="[C:1]([O:2]/[C:3](=[N:4]\[H:11])[N:5]([C:6](=[O:7])[H:13])[H:12])([H:8])([H:9])[H:10]>>[C:1]([O:2][C@:3]12[N:4]([H:11])[O:7][C@@:6]1([H:13])[N:5]2[H:12])([H:8])([H:9])[H:10]"
C       -1.85469434      -0.24685980      -0.88777667
O       -1.16772352      -0.09893629       0.34482380
C        0.16710804       0.04733432       0.29819365
N        0.79900521       0.82613793      -0.63826809
N        0.70570232      -0.22715965       1.57297836
C        1.78875632      -0.59134030       0.75089152
O        2.55626770       0.41463275       0.43543892
H       -2.85883077      -0.57546065      -0.62758221
H       -1.37249280      -0.98922333      -1.52686866
H       -1.92340998       0.71185610      -1.40402083
H        0.34652236       1.72180538      -0.81631913
H        0.83620857       0.58084474       2.16850724
H        1.97758089      -1.57363120       0.33000210
13
Frame=12 idx=007906 GeodesicLength=0.7059582286306898 rxn_smarts="[C:1]([O:2]/[C:3](=[N:4]\[H:11])[N:5]([C:6](=[O:7])[H:13])[H:12])([H:8])([H:9])[H:10]>>[C:1]([O:2][C@:3]12[N:4]([H:11])[O:7][C@@:6]1([H:13])[N:5]2[H:12])([H:8])([H:9])[H:10]"
C       -1.86454701      -0.24157548      -0.88341181
O       -1.16810775      -0.10587421       0.34419343
C        0.16745488       0.03751952       0.28775174
N        0.80502248       0.81066212      -0.64498691
N        0.70539221      -0.23802167       1.56128853
C        1.80845233      -0.58146927       0.76094391
O        2.57261858       0.43573751       0.47167016
H       -2.87383663      -0.54815571      -0.61639251
H       -1.40339177      -0.99563356      -1.52458293
H       -1.91662445       0.71813043      -1.39998417
H        0.35161119       1.69876730      -0.84734145
H        0.80568844       0.56154437       2.17312872
H        2.01026748      -1.55163134       0.31772329
13
Frame=13 idx=007906 GeodesicLength=0.7633575626845603 rxn_smarts="[C:1]([O:2]/[C:3](=[N:4]\[H:11])[N:5]([C:6](=[O:7])[H:13])[H:12])([H:8])([H:9])[H:10]>>[C:1]([O:2][C@:3]12[N:4]([H:11])[O:7][C@@:6]1([H:13])[N:5]2[H:12])([H:8])([H:9])[H:10]"
C       -1.87445007      -0.23604121      -0.87895496
O       -1.16850870      -0.11294656       0.34345167
C        0.16771744       0.02734995       0.27708276
N        0.81101802       0.79474801      -0.65190920
N        0.70547954      -0.24890533       1.54924429
C        1.82794492      -0.57114807       0.77119816
O        2.58788916       0.45721974       0.50844747
H       -2.88834806      -0.52035784      -0.60493499
H       -1.43492131      -1.00139321      -1.52213038
H       -1.90980455       0.72430582      -1.39593282
H        0.35708457       1.67470465      -0.87877515
H        0.77540855       0.54088788       2.17706727
H        2.04349050      -1.52842383       0.30614588
13
Frame=14 idx=007906 GeodesicLength=0.8206620733168446 rxn_smarts="[C:1]([O:2]/[C:3](=[N:4]\[H:11])[N:5]([C:6](=[O:7])[H:13])[H:12])([H:8])([H:9])[H:10]>>[C:1]([O:2][C@:3]12[N:4]([H:11])[O:7][C@@:6]1([H:13])[N:5]2[H:12])([H:8])([H:9])[H:10]"
C       -1.88443719      -0.23021014      -0.87438710
O       -1.16889637      -0.12029501       0.34259702
C        0.16793864       0.01670251       0.26612423
N        0.81703772       0.77826724      -0.65913415
N        0.70596814      -0.25984216       1.53683106
C        1.84728380      -0.56029446       0.78169064
O        2.60202179       0.47921923       0.54583576
H       -2.90240360      -0.49198016      -0.59312473
H       -1.46718328      -1.00637774      -1.51964978
H       -1.90296782       0.73051929      -1.39173194
H        0.36294977       1.64942252      -0.91083687
H        0.74531105       0.51877603       2.18037665
H        2.07737737      -1.50390714       0.29540921
13
Frame=15 idx=007906 GeodesicLength=0.8779075363567334 rxn_smarts="[C:1]([O:2]/[C:3](=[N:4]\[H:11])[N:5]([C:6](=[O:7])[H:13])[H:12])([H:8])([H:9])[H:10]>>[C:1]([O:2][C@:3]12[N:4]([H:11])[O:7][C@@:6]1([H:13])[N:5]2[H:12])([H:8])([H:9])[H:10]"
C       -1.89452833      -0.22401969      -0.86968897
O       -1.16922319      -0.12802441       0.34159801
C        0.16814906       0.00541390       0.25481400
N        0.82308617       0.76106602      -0.66672925
N        0.70685984      -0.27086866       1.52402782
C        1.86650103      -0.54882181       0.79245556
O        2.61491999       0.50189520       0.58390389
H       -2.91600212      -0.46286460      -0.58089297
H       -1.50033218      -1.01051649      -1.51716195
H       -1.89608021       0.73684169      -1.38731707
H        0.36924367       1.62272676      -0.94358677
H        0.71531470       0.49513812       2.18301181
H        2.11209159      -1.47796603       0.28556587
13
Frame=16 idx=007906 GeodesicLength=0.9350472207374215 rxn_smarts="[C:1]([O:2]/[C:3](=[N:4]\[H:11])[N:5]([C:6](=[O:7])[H:13])[H:12])([H:8])([H:9])[H:10]>>[C:1]([O:2][C@:3]12[N:4]([H:11])[O:7][C@@:6]1([H:13])[N:5]2[H:12])([H:8])([H:9])[H:10]"
C       -1.90465102      -0.21748925      -0.86485598
O       -1.16950325      -0.13607552       0.34044734
C        0.16832591      -0.00641260       0.24318946
N        0.82913434       0.74323294      -0.67464084
N        0.70816924      -0.28192269       1.51083366
C        1.88550398      -0.53674328       0.80344341
O        2.62652766       0.52511389       0.62256158
H       -2.92903010      -0.43311200      -0.56825449
H       -1.53420184      -1.01378882      -1.51457641
H       -1.88911362       0.74321423      -1.38273101
H        0.37590202       1.59464823      -0.97695778
H        0.68556507       0.46995027       2.18493720
H        2.14737161      -1.45061542       0.27660385
