11
Frame=0 idx=003062 GeodesicLength=0.0 rxn_smarts="[C:1](/[C:2](=[N:3]\[O:4][H:10])[C:5]#[C:6][H:11])([H:7])([H:8])[H:9]>>[C:1]([C@:2]12[N:3]([O:4][H:10])[C@@:6]1([H:11])[C:5]2)([H:7])([H:8])[H:9]"
C       -0.94832832      -1.00523088       0.20650909
C        0.27155548      -0.20481240       0.51286491
N        0.35671966       1.12258421       0.34244362
O       -0.69702623       1.57877369      -0.45181253
C        1.60343840      -0.82170189       0.76285697
C        1.73772136       0.05117988      -0.20298077
H       -1.14897436      -1.00103468      -0.86581790
H       -0.80517929      -2.02873906       0.54376248
H       -1.81063879      -0.55840497       0.70310864
H       -0.63623193       2.53369293      -0.36600602
H        2.07694398       0.33369316      -1.18492844
11
Frame=1 idx=003062 GeodesicLength=0.05809141471033682 rxn_smarts="[C:1](/[C:2](=[N:3]\[O:4][H:10])[C:5]#[C:6][H:11])([H:7])([H:8])[H:9]>>[C:1]([C@:2]12[N:3]([O:4][H:10])[C@@:6]1([H:11])[C:5]2)([H:7])([H:8])[H:9]"
C       -0.95236403      -1.00407310       0.20733314
C        0.26753128      -0.20217894       0.50853340
N        0.35730736       1.12508343       0.32997271
O       -0.70007205       1.58079478      -0.46021489
C        1.59618068      -0.81178538       0.76533534
C        1.75549123       0.04945222      -0.20537784
H       -1.16389923      -0.99320116      -0.86277469
H       -0.80331172      -2.02980148       0.53521441
H       -1.81056203      -0.56231944       0.71555724
H       -0.66050684       2.53409646      -0.34835484
H        2.11420534       0.31393261      -1.18522397
11
Frame=2 idx=003062 GeodesicLength=0.11607493596679405 rxn_smarts="[C:1](/[C:2](=[N:3]\[O:4][H:10])[C:5]#[C:6][H:11])([H:7])([H:8])[H:9]>>[C:1]([C@:2]12[N:3]([O:4][H:10])[C@@:6]1([H:11])[C:5]2)([H:7])([H:8])[H:9]"
C       -0.95651741      -1.00289098       0.20823314
C        0.26336182      -0.19949853       0.50427058
N        0.35765320       1.12758818       0.31761831
O       -0.70357800       1.58299573      -0.46806355
C        1.58897871      -0.80178781       0.76684253
C        1.77333736       0.04805983      -0.20774055
H       -1.17922917      -0.98508413      -0.85943410
H       -0.80143356      -2.03083105       0.52631637
H       -1.81038157      -0.56649325       0.72834860
H       -0.68404938       2.53368743      -0.33167746
H        2.15185801       0.29425459      -1.18471386
11
Frame=3 idx=003062 GeodesicLength=0.173900327445964 rxn_smarts="[C:1](/[C:2](=[N:3]\[O:4][H:10])[C:5]#[C:6][H:11])([H:7])([H:8])[H:9]>>[C:1]([C@:2]12[N:3]([O:4][H:10])[C@@:6]1([H:11])[C:5]2)([H:7])([H:8])[H:9]"
C       -0.96077138      -1.00168851       0.20920495
C        0.25904708      -0.19677377       0.50008715
N        0.35775828       1.13008273       0.30534869
O       -0.70751430       1.58534383      -0.47542684
C        1.58184079      -0.79171113       0.76737928
C        1.79125348       0.04699236      -0.21008532
H       -1.19489641      -0.97674805      -0.85579782
H       -0.79955878      -2.03179479       0.51713424
H       -1.81008562      -0.57090401       0.74139793
H       -0.70689466       2.53258630      -0.31583859
H        2.18982152       0.27461503      -1.18340368
11
Frame=4 idx=003062 GeodesicLength=0.23162955792556786 rxn_smarts="[C:1](/[C:2](=[N:3]\[O:4][H:10])[C:5]#[C:6][H:11])([H:7])([H:8])[H:9]>>[C:1]([C@:2]12[N:3]([O:4][H:10])[C@@:6]1([H:11])[C:5]2)([H:7])([H:8])[H:9]"
C       -0.96513954      -1.00048825       0.21026331
C        0.25458013      -0.19401038       0.49598224
N        0.35761453       1.13256719       0.29313510
O       -0.71189614       1.58782340      -0.48232555
C        1.57476919      -0.78158821       0.76691346
C        1.80925295       0.04623551      -0.21245036
H       -1.21091684      -0.96823591      -0.85183718
H       -0.79770902      -2.03270781       0.50769156
H       -1.80968740      -0.57557317       0.75471168
H       -0.72904095       2.53092652      -0.30082353
H        2.22817309       0.25505112      -1.18126073
11
Frame=5 idx=003062 GeodesicLength=0.28924978568224385 rxn_smarts="[C:1](/[C:2](=[N:3]\[O:4][H:10])[C:5]#[C:6][H:11])([H:7])([H:8])[H:9]>>[C:1]([C@:2]12[N:3]([O:4][H:10])[C@@:6]1([H:11])[C:5]2)([H:7])([H:8])[H:9]"
C       -0.96962155      -0.99929467       0.21141507
C        0.24995700      -0.19121016       0.49195014
N        0.35722130       1.13502866       0.28092592
O       -0.71672489       1.59041077      -0.48880528
C        1.56776348      -0.77144337       0.76542958
C        1.82733771       0.04576990      -0.21486394
H       -1.22728620      -0.95957952      -0.84753360
H       -0.79589848      -2.03355847       0.49801550
H       -1.80917426      -0.58049446       0.76827666
H       -0.75052048       2.52880028      -0.28656015
H        2.26694637       0.23557104      -1.17824991
11
Frame=6 idx=003062 GeodesicLength=0.346771248582188 rxn_smarts="[C:1](/[C:2](=[N:3]\[O:4][H:10])[C:5]#[C:6][H:11])([H:7])([H:8])[H:9]>>[C:1]([C@:2]12[N:3]([O:4][H:10])[C@@:6]1([H:11])[C:5]2)([H:7])([H:8])[H:9]"
C       -0.97421861      -0.99810976       0.21266521
C        0.24517659      -0.18837037       0.48798744
N        0.35658654       1.13746184       0.26866614
O       -0.72199060       1.59308907      -0.49491880
C        1.56082728      -0.76128612       0.76291290
C        1.84552116       0.04557492      -0.21735387
H       -1.24400045      -0.95080818      -0.84287211
H       -0.79414397      -2.03433549       0.48812838
H       -1.80853948      -0.58565954       0.78207780
H       -0.77139280       2.52628502      -0.27295616
H        2.30617432       0.21615862      -1.17433692
11
Frame=7 idx=003062 GeodesicLength=0.4041991832837614 rxn_smarts="[C:1](/[C:2](=[N:3]\[O:4][H:10])[C:5]#[C:6][H:11])([H:7])([H:8])[H:9]>>[C:1]([C@:2]12[N:3]([O:4][H:10])[C@@:6]1([H:11])[C:5]2)([H:7])([H:8])[H:9]"
C       -0.97893066      -0.99693004       0.21401889
C        0.24023827      -0.18548618       0.48409107
N        0.35571772       1.13986043       0.25630183
O       -0.72768062       1.59584347      -0.50071731
C        1.55396144      -0.75112926       0.75934098
C        1.86381558       0.04562807      -0.21994863
H       -1.26105505      -0.94194311      -0.83783677
H       -0.79246146      -2.03502262       0.47805046
H       -1.80777412      -0.59105499       0.79610278
H       -0.79172061       2.52343074      -0.25992296
H        2.34588950       0.19680351      -1.16948034
11
Frame=8 idx=003062 GeodesicLength=0.46153955461324375 rxn_smarts="[C:1](/[C:2](=[N:3]\[O:4][H:10])[C:5]#[C:6][H:11])([H:7])([H:8])[H:9]>>[C:1]([C@:2]12[N:3]([O:4][H:10])[C@@:6]1([H:11])[C:5]2)([H:7])([H:8])[H:9]"
C       -0.98376534      -0.99576840       0.21548912
C        0.23513609      -0.18256713       0.48026177
N        0.35460707       1.14220881       0.24380105
O       -0.73381034       1.59865645      -0.50620982
C        1.54716315      -0.74100229       0.75466809
C        1.88222144       0.04591641      -0.22268408
H       -1.27846185      -0.93301111      -0.83240163
H       -0.79087210      -2.03562539       0.46779970
H       -1.80687243      -0.59668823       0.81035804
H       -0.81147971       2.52031788      -0.24745886
H        2.38613401       0.17756301      -1.16362336
11
Frame=9 idx=003062 GeodesicLength=0.5187990895494146 rxn_smarts="[C:1](/[C:2](=[N:3]\[O:4][H:10])[C:5]#[C:6][H:11])([H:7])([H:8])[H:9]>>[C:1]([C@:2]12[N:3]([O:4][H:10])[C@@:6]1([H:11])[C:5]2)([H:7])([H:8])[H:9]"
C       -0.98873315      -0.99463387       0.21709199
C        0.22986403      -0.17962470       0.47649821
N        0.35324457       1.14448392       0.23113068
O       -0.74039629       1.60150543      -0.51140551
C        1.54042564      -0.73094689       0.74883724
C        1.90074039       0.04642206      -0.22560041
H       -1.29623989      -0.92403229      -0.82653493
H       -0.78940188      -2.03614470       0.45739601
H       -1.80582855      -0.60256196       0.82485701
H       -0.83064484       2.51701333      -0.23556962
H        2.42696997       0.15851967      -1.15670067
11
Frame=10 idx=003062 GeodesicLength=0.5760464419136678 rxn_smarts="[C:1](/[C:2](=[N:3]\[O:4][H:10])[C:5]#[C:6][H:11])([H:7])([H:8])[H:9]>>[C:1]([C@:2]12[N:3]([O:4][H:10])[C@@:6]1([H:11])[C:5]2)([H:7])([H:8])[H:9]"
C       -0.99386855      -0.99354605       0.21884898
C        0.22441865      -0.17667176       0.47280618
N        0.35163498       1.14666602       0.21825263
O       -0.74746309       1.60437114      -0.51631836
C        1.53375876      -0.72099925       0.74180090
C        1.91940830       0.04714179      -0.22874364
H       -1.31444688      -0.91502793      -0.82021452
H       -0.78810301      -2.03659714       0.44685775
H       -1.80466570      -0.60870142       0.83963687
H       -0.84918536       2.51359090      -0.22426535
H        2.46851191       0.13977370      -1.14866143
11
Frame=11 idx=003062 GeodesicLength=0.6331113100355127 rxn_smarts="[C:1](/[C:2](=[N:3]\[O:4][H:10])[C:5]#[C:6][H:11])([H:7])([H:8])[H:9]>>[C:1]([C@:2]12[N:3]([O:4][H:10])[C@@:6]1([H:11])[C:5]2)([H:7])([H:8])[H:9]"
C       -0.99908788      -0.99243410       0.22071996
C        0.21881662      -0.17364270       0.46914087
N        0.34980831       1.14878554       0.20501368
O       -0.75492242       1.60727082      -0.52108700
C        1.52716104      -0.71107842       0.73357028
C        1.93822455       0.04803080      -0.23206647
H       -1.33299737      -0.90595931      -0.81342710
H       -0.78688384      -2.03690013       0.43611067
H       -1.80325746      -0.61502497       0.85464180
H       -0.86738280       2.50996148      -0.21323430
H        2.51052125       0.12099098      -1.13938238
11
Frame=12 idx=003062 GeodesicLength=0.6900873153732578 rxn_smarts="[C:1](/[C:2](=[N:3]\[O:4][H:10])[C:5]#[C:6][H:11])([H:7])([H:8])[H:9]>>[C:1]([C@:2]12[N:3]([O:4][H:10])[C@@:6]1([H:11])[C:5]2)([H:7])([H:8])[H:9]"
C       -1.00447787      -0.99136501       0.22279246
C        0.21302547      -0.17063485       0.46549691
N        0.34770532       1.15074755       0.19143723
O       -0.76286943       1.61014086      -0.52559400
C        1.52054208      -0.70138451       0.72390468
C        1.95711338       0.04904528      -0.23575270
H       -1.35200091      -0.89690629      -0.80606067
H       -0.78590467      -2.03711965       0.42529235
H       -1.80164605      -0.62155326       0.86995473
H       -0.88494677       2.50629039      -0.20275512
H        2.55345945       0.10273948      -1.12871586
11
Frame=13 idx=003062 GeodesicLength=0.7470628560013206 rxn_smarts="[C:1](/[C:2](=[N:3]\[O:4][H:10])[C:5]#[C:6][H:11])([H:7])([H:8])[H:9]>>[C:1]([C@:2]12[N:3]([O:4][H:10])[C@@:6]1([H:11])[C:5]2)([H:7])([H:8])[H:9]"
C       -1.01005158      -0.99029515       0.22505045
C        0.20707632      -0.16760010       0.46186039
N        0.34539174       1.15257354       0.17739236
O       -0.77125659       1.61300188      -0.52999658
C        1.51398242      -0.69185647       0.71283517
C        1.97621886       0.05018302      -0.23978337
H       -1.37150629      -0.88782438      -0.79814331
H       -0.78517938      -2.03721019       0.41435632
H       -1.79983821      -0.62826139       0.88560133
H       -0.90213975       2.50247584      -0.19256270
H        2.59730247       0.08481340      -1.11661007
11
Frame=14 idx=003062 GeodesicLength=0.8040013922148725 rxn_smarts="[C:1](/[C:2](=[N:3]\[O:4][H:10])[C:5]#[C:6][H:11])([H:7])([H:8])[H:9]>>[C:1]([C@:2]12[N:3]([O:4][H:10])[C@@:6]1([H:11])[C:5]2)([H:7])([H:8])[H:9]"
C       -1.01581716      -0.98924080       0.22752397
C        0.20095851      -0.16457354       0.45821292
N        0.34282881       1.15421552       0.16284703
O       -0.78011978       1.61582557      -0.53426359
C        1.50744427      -0.68258278       0.70020704
C        1.99550844       0.05141661      -0.24422211
H       -1.39155088      -0.87872684      -0.78960054
H       -0.78474366      -2.03718801       0.40331851
H       -1.79779074      -0.63515121       0.90162591
H       -0.91884098       2.49860364      -0.18275129
H        2.64212316       0.06740184      -1.10289785
11
Frame=15 idx=003062 GeodesicLength=0.8609984351530169 rxn_smarts="[C:1](/[C:2](=[N:3]\[O:4][H:10])[C:5]#[C:6][H:11])([H:7])([H:8])[H:9]>>[C:1]([C@:2]12[N:3]([O:4][H:10])[C@@:6]1([H:11])[C:5]2)([H:7])([H:8])[H:9]"
C       -1.02184488      -0.98823101       0.23025216
C        0.19467500      -0.16158668       0.45454437
N        0.34003121       1.15563372       0.14774448
O       -0.78947985       1.61858757      -0.53841251
C        1.50094173      -0.67362825       0.68588563
C        2.01504581       0.05275130      -0.24914760
H       -1.41226055      -0.86963197      -0.78038529
H       -0.78471506      -2.03708497       0.39220766
H       -1.79553277      -0.64225717       0.91811400
H       -0.93496859       2.49472651      -0.17336260
H        2.68810796       0.05072094      -1.08744030
11
Frame=16 idx=003062 GeodesicLength=0.9176555974705616 rxn_smarts="[C:1](/[C:2](=[N:3]\[O:4][H:10])[C:5]#[C:6][H:11])([H:7])([H:8])[H:9]>>[C:1]([C@:2]12[N:3]([O:4][H:10])[C@@:6]1([H:11])[C:5]2)([H:7])([H:8])[H:9]"
C       -1.02792319      -0.98717246       0.23318316
C        0.18824198      -0.15857581       0.45079827
N        0.33694164       1.15683221       0.13199122
O       -0.79924113       1.62128752      -0.54246793
C        1.49432527      -0.66494837       0.66976652
C        2.03466778       0.05413613      -0.25446946
H       -1.43335193      -0.86049478      -0.77040926
H       -0.78487542      -2.03678974       0.38092517
H       -1.79277617      -0.64945086       0.93491532
H       -0.95066896       2.49075992      -0.16421341
H        2.73466012       0.03441622      -1.07001960
