9
Frame=0 idx=004624 GeodesicLength=0.0 rxn_smarts="[O:1]=[c:2]1[n:3]([H:7])[c:4]([H:8])[n:5][n:6]1[H:9]>>[C:4](#[N:5])[H:8].[O:1]1/[C:2](=[N:3]\[H:7])[N:6]1[H:9]"
O       -1.78881286       1.28779968      -0.21310211
C       -0.63795194       0.78876829      -0.09125968
N        0.57513690       1.10388315       0.10808908
C        1.33345680      -1.25874845      -0.00735396
N        0.25809761      -1.66158914      -0.06650008
N       -1.11619864      -0.52380005      -0.37410831
H        0.68671041       2.10631093       0.19251665
H        2.36740963      -0.99228636       0.04086371
H       -1.67784791      -0.85033804       0.41085466
9
Frame=1 idx=004624 GeodesicLength=0.07942655649838756 rxn_smarts="[O:1]=[c:2]1[n:3]([H:7])[c:4]([H:8])[n:5][n:6]1[H:9]>>[C:4](#[N:5])[H:8].[O:1]1/[C:2](=[N:3]\[H:7])[N:6]1[H:9]"
O       -1.78725474       1.29347997      -0.21738203
C       -0.64167287       0.78640261      -0.08685530
N        0.58049328       1.08132787       0.10465503
C        1.33170350      -1.24289739       0.03277785
N        0.26891817      -1.68097799      -0.06736998
N       -1.12363710      -0.52067359      -0.37237905
H        0.71203952       2.08074775       0.19703595
H        2.35948261      -0.94887168       0.00871333
H       -1.70007237      -0.84853755       0.40080419
9
Frame=2 idx=004624 GeodesicLength=0.15894616071428863 rxn_smarts="[O:1]=[c:2]1[n:3]([H:7])[c:4]([H:8])[n:5][n:6]1[H:9]>>[C:4](#[N:5])[H:8].[O:1]1/[C:2](=[N:3]\[H:7])[N:6]1[H:9]"
O       -1.78563650       1.29898756      -0.22110726
C       -0.64547312       0.78428416      -0.08037929
N        0.58478725       1.05948267       0.10605644
C        1.33093335      -1.22646794       0.06593820
N        0.28225564      -1.69924181      -0.06698113
N       -1.13019219      -0.51722429      -0.37024187
H        0.73699501       2.05558495       0.19628270
H        2.34876261      -0.90843154      -0.01919211
H       -1.72243206      -0.84697375       0.38962431
9
Frame=3 idx=004624 GeodesicLength=0.23860782640792688 rxn_smarts="[O:1]=[c:2]1[n:3]([H:7])[c:4]([H:8])[n:5][n:6]1[H:9]>>[C:4](#[N:5])[H:8].[O:1]1/[C:2](=[N:3]\[H:7])[N:6]1[H:9]"
O       -1.78379197       1.30433053      -0.22679194
C       -0.64926226       0.78231239      -0.07405891
N        0.58853583       1.03837380       0.10803570
C        1.33120003      -1.20977778       0.09298751
N        0.29732337      -1.71703806      -0.06322482
N       -1.13640696      -0.51402849      -0.36710532
H        0.76069425       2.03106414       0.19702879
H        2.33681072      -0.87066680      -0.04569424
H       -1.74510300      -0.84456974       0.37882323
9
Frame=4 idx=004624 GeodesicLength=0.31836842834084667 rxn_smarts="[O:1]=[c:2]1[n:3]([H:7])[c:4]([H:8])[n:5][n:6]1[H:9]>>[C:4](#[N:5])[H:8].[O:1]1/[C:2](=[N:3]\[H:7])[N:6]1[H:9]"
O       -1.78167234       1.30948853      -0.23573738
C       -0.65287480       0.78051115      -0.07032614
N        0.59218025       1.01802178       0.10608307
C        1.33239623      -1.19291299       0.11501590
N        0.31371477      -1.73458847      -0.05630537
N       -1.14287230      -0.51139212      -0.36237146
H        0.78225064       2.00626205       0.20476715
H        2.32431479      -0.83510612      -0.07167817
H       -1.76743724      -0.84028382       0.37055240
9
Frame=5 idx=004624 GeodesicLength=0.39823386492069546 rxn_smarts="[O:1]=[c:2]1[n:3]([H:7])[c:4]([H:8])[n:5][n:6]1[H:9]>>[C:4](#[N:5])[H:8].[O:1]1/[C:2](=[N:3]\[H:7])[N:6]1[H:9]"
O       -1.77927815       1.31463758      -0.24567821
C       -0.65658307       0.77883414      -0.06588748
N        0.59519291       0.99819584       0.10608473
C        1.33439594      -1.17597941       0.13355470
N        0.33142444      -1.75202460      -0.04746636
N       -1.14917538      -0.50875131      -0.35705152
H        0.80313196       1.98186289       0.21183069
H        2.31138707      -0.80123978      -0.09711877
H       -1.79049573      -0.83553534       0.36173222
9
Frame=6 idx=004624 GeodesicLength=0.4780169691900983 rxn_smarts="[O:1]=[c:2]1[n:3]([H:7])[c:4]([H:8])[n:5][n:6]1[H:9]>>[C:4](#[N:5])[H:8].[O:1]1/[C:2](=[N:3]\[H:7])[N:6]1[H:9]"
O       -1.77679556       1.31976551      -0.25537153
C       -0.66043751       0.77730340      -0.06083207
N        0.59771856       0.97888819       0.10664123
C        1.33678541      -1.15908565       0.14981703
N        0.35053649      -1.76920559      -0.03891065
N       -1.15557457      -0.50594617      -0.35118719
H        0.82339859       1.95780201       0.21765252
H        2.29816332      -0.76906343      -0.12052907
H       -1.81379474      -0.83045828       0.35271973
9
Frame=7 idx=004624 GeodesicLength=0.5578715337609645 rxn_smarts="[O:1]=[c:2]1[n:3]([H:7])[c:4]([H:8])[n:5][n:6]1[H:9]>>[C:4](#[N:5])[H:8].[O:1]1/[C:2](=[N:3]\[H:7])[N:6]1[H:9]"
O       -1.77352680       1.32468313      -0.26897773
C       -0.66411641       0.77585331      -0.05687919
N        0.59992913       0.96016796       0.10700459
C        1.34024631      -1.14205895       0.16382474
N        0.37096295      -1.78643141      -0.02567365
N       -1.16173888      -0.50362508      -0.34418732
H        0.84211919       1.93371111       0.22886719
H        2.28396085      -0.73832285      -0.14802850
H       -1.83783633      -0.82397721       0.34404987
9
Frame=8 idx=004624 GeodesicLength=0.6380982543860618 rxn_smarts="[O:1]=[c:2]1[n:3]([H:7])[c:4]([H:8])[n:5][n:6]1[H:9]>>[C:4](#[N:5])[H:8].[O:1]1/[C:2](=[N:3]\[H:7])[N:6]1[H:9]"
O       -1.76892779       1.32927960      -0.28642713
C       -0.66768166       0.77432588      -0.05187516
N        0.60151277       0.94180156       0.11220095
C        1.34517863      -1.12480795       0.17538229
N        0.39268252      -1.80376369      -0.00590006
N       -1.16707607      -0.50155127      -0.33651619
H        0.85995544       1.90984979       0.24171935
H        2.26797236      -0.70850292      -0.18166749
H       -1.86361619      -0.81663100       0.33308345
9
Frame=9 idx=004624 GeodesicLength=0.7181641319138746 rxn_smarts="[O:1]=[c:2]1[n:3]([H:7])[c:4]([H:8])[n:5][n:6]1[H:9]>>[C:4](#[N:5])[H:8].[O:1]1/[C:2](=[N:3]\[H:7])[N:6]1[H:9]"
O       -1.76398821       1.33368919      -0.30375976
C       -0.67132912       0.77289271      -0.04669503
N        0.60266856       0.92370610       0.11783928
C        1.35028554      -1.10778632       0.18576885
N        0.41605050      -1.82076078       0.01245952
N       -1.17271822      -0.49933839      -0.32802014
H        0.87729669       1.88627644       0.25343890
H        2.25098669      -0.67990558      -0.21331248
H       -1.88925243      -0.80877336       0.32228086
9
Frame=10 idx=004624 GeodesicLength=0.7985751086408636 rxn_smarts="[O:1]=[c:2]1[n:3]([H:7])[c:4]([H:8])[n:5][n:6]1[H:9]>>[C:4](#[N:5])[H:8].[O:1]1/[C:2](=[N:3]\[H:7])[N:6]1[H:9]"
O       -1.75831393       1.33788631      -0.32259222
C       -0.67497014       0.77155975      -0.04151509
N        0.60351090       0.90606685       0.12426550
C        1.35608876      -1.09071233       0.19446596
N        0.44090939      -1.83785962       0.03272063
N       -1.17839018      -0.49722272      -0.31860773
H        0.89369679       1.86279330       0.26658747
H        2.23292406      -0.65244525      -0.24630764
H       -1.91545564      -0.80006630       0.31098312
9
Frame=11 idx=004624 GeodesicLength=0.8787796768087743 rxn_smarts="[O:1]=[c:2]1[n:3]([H:7])[c:4]([H:8])[n:5][n:6]1[H:9]>>[C:4](#[N:5])[H:8].[O:1]1/[C:2](=[N:3]\[H:7])[N:6]1[H:9]"
O       -1.75186776       1.34174568      -0.34277644
C       -0.67863281       0.77030661      -0.03625921
N        0.60388546       0.88864866       0.13236191
C        1.36217576      -1.07394641       0.20184648
N        0.46770667      -1.85475889       0.05245679
N       -1.18430623      -0.49513940      -0.30798774
H        0.90956031       1.83961988       0.27944857
H        2.21333766      -0.62592866      -0.27895739
H       -1.94185907      -0.79054746       0.29986703
9
Frame=12 idx=004624 GeodesicLength=0.9595257035898695 rxn_smarts="[O:1]=[c:2]1[n:3]([H:7])[c:4]([H:8])[n:5][n:6]1[H:9]>>[C:4](#[N:5])[H:8].[O:1]1/[C:2](=[N:3]\[H:7])[N:6]1[H:9]"
O       -1.74353874       1.34530459      -0.36590225
C       -0.68203425       0.76913008      -0.03027152
N        0.60360091       0.87144316       0.14698902
C        1.36933716      -1.05753055       0.20769346
N        0.49629807      -1.87235178       0.07550739
N       -1.18981717      -0.49356218      -0.29624362
H        0.92538375       1.81752757       0.29165662
H        2.19055156      -0.59937913      -0.31618693
H       -1.96978128      -0.78058175       0.28675783
9
Frame=13 idx=004624 GeodesicLength=1.0405990013969018 rxn_smarts="[O:1]=[c:2]1[n:3]([H:7])[c:4]([H:8])[n:5][n:6]1[H:9]>>[C:4](#[N:5])[H:8].[O:1]1/[C:2](=[N:3]\[H:7])[N:6]1[H:9]"
O       -1.73194597       1.34693266      -0.39619288
C       -0.68453257       0.76755633      -0.02529675
N        0.60316625       0.85433105       0.16433343
C        1.37851611      -1.04013597       0.21039162
N        0.52762973      -1.88813119       0.10970836
N       -1.19385145      -0.49220902      -0.28289110
H        0.93890384       1.79420076       0.31436591
H        2.15958447      -0.57422056      -0.36586293
H       -1.99747042      -0.76832407       0.27144433
9
Frame=14 idx=004624 GeodesicLength=1.1214194144431358 rxn_smarts="[O:1]=[c:2]1[n:3]([H:7])[c:4]([H:8])[n:5][n:6]1[H:9]>>[C:4](#[N:5])[H:8].[O:1]1/[C:2](=[N:3]\[H:7])[N:6]1[H:9]"
O       -1.72059769       1.34845611      -0.42485737
C       -0.68748114       0.76637355      -0.02082322
N        0.60233390       0.83742964       0.17977244
C        1.38648832      -1.02358597       0.21298399
N        0.56091602      -1.90450898       0.13389950
N       -1.19994044      -0.49067891      -0.26745917
H        0.95258733       1.77143313       0.33194295
H        2.13080174      -0.54951779      -0.40493896
H       -2.02510805      -0.75540078       0.25947985
9
Frame=15 idx=004624 GeodesicLength=1.2023431990446596 rxn_smarts="[O:1]=[c:2]1[n:3]([H:7])[c:4]([H:8])[n:5][n:6]1[H:9]>>[C:4](#[N:5])[H:8].[O:1]1/[C:2](=[N:3]\[H:7])[N:6]1[H:9]"
O       -1.70763158       1.34890345      -0.45591413
C       -0.69025469       0.76527147      -0.01678889
N        0.60108685       0.82060732       0.19685616
C        1.39456020      -1.00727117       0.21423142
N        0.59663070      -1.92083548       0.15639843
N       -1.20670691      -0.48918330      -0.24973462
H        0.96574855       1.74879043       0.34990550
H        2.09978077      -0.52515898      -0.44322267
H       -2.05321388      -0.74112374       0.24826881
9
Frame=16 idx=004624 GeodesicLength=1.2835364668468703 rxn_smarts="[O:1]=[c:2]1[n:3]([H:7])[c:4]([H:8])[n:5][n:6]1[H:9]>>[C:4](#[N:5])[H:8].[O:1]1/[C:2](=[N:3]\[H:7])[N:6]1[H:9]"
O       -1.69214097       1.34754831      -0.49123834
C       -0.69263639       0.76413584      -0.01347521
N        0.59927218       0.80359098       0.21669623
C        1.40283411      -0.99109602       0.21377964
N        0.63514185      -1.93688203       0.17724484
N       -1.21412705      -0.48767597      -0.22882695
H        0.97817429       1.72589581       0.36935636
H        2.06529590      -0.50066600      -0.48181450
H       -2.08181392      -0.72485092       0.23827793
