19
Frame=0 idx=006730 GeodesicLength=0.0 rxn_smarts="[C:1]([C@@:2]1([H:11])[C:3]([H:12])([H:13])[C:4]([H:14])([H:15])[O:5][C@:6]1([C:7]([H:17])([H:18])[H:19])[H:16])([H:8])([H:9])[H:10]>>[C:1]([C:2]([C:3](=[C:4]([H:14])[H:15])[H:12])([H:11])[H:13])([H:8])([H:9])[H:10].[O:5]=[C:6]([C:7]([H:17])([H:18])[H:19])[H:16]"
C       -1.00513575      -1.58870292      -0.62984422
C       -0.82220255      -0.10646025      -0.44079174
C       -0.94006235       0.52232456       0.91087219
C       -0.78821204       1.87533065       1.08398892
O        1.21351787       1.70941040      -0.21936568
C        1.23659280       0.56622055      -0.69235089
C        1.98877968      -0.53908576       0.01359783
H       -2.03387172      -1.89267481      -0.84275743
H       -0.40098281      -1.91376996      -1.47968059
H       -0.66064697      -2.14246866       0.24584985
H       -1.14252004       0.53078502      -1.26050675
H       -0.75372411      -0.14840910       1.74363446
H       -1.97953377       0.25638143       0.40379108
H       -0.56166644       2.28319806       2.05791767
H       -1.02184201       2.56834870       0.28970411
H        1.07835911       0.42278182      -1.77626551
H        1.73722740      -0.54406310       1.07618988
H        1.79600597      -1.52253875      -0.41777716
H        3.05991764      -0.33660788      -0.06620597
19
Frame=1 idx=006730 GeodesicLength=0.06949904992412193 rxn_smarts="[C:1]([C@@:2]1([H:11])[C:3]([H:12])([H:13])[C:4]([H:14])([H:15])[O:5][C@:6]1([C:7]([H:17])([H:18])[H:19])[H:16])([H:8])([H:9])[H:10]>>[C:1]([C:2]([C:3](=[C:4]([H:14])[H:15])[H:12])([H:11])[H:13])([H:8])([H:9])[H:10].[O:5]=[C:6]([C:7]([H:17])([H:18])[H:19])[H:16]"
C       -1.00985498      -1.59058902      -0.62481223
C       -0.83223356      -0.10714765      -0.43630844
C       -0.95367980       0.51962727       0.91604514
C       -0.76772557       1.87150204       1.08385093
O        1.20455542       1.71025916      -0.22299174
C        1.23616281       0.56390444      -0.69896744
C        1.99539297      -0.53409781       0.00993755
H       -2.03553675      -1.89266334      -0.85390625
H       -0.39312321      -1.92082493      -1.46344279
H       -0.67912530      -2.14538785       0.25551972
H       -1.14490832       0.52986317      -1.25916527
H       -0.77424004      -0.15108795       1.75056419
H       -2.00081249       0.25840746       0.39278945
H       -0.54558847       2.27712604       2.06023799
H       -1.01575709       2.56855790       0.29669215
H        1.10057019       0.42635326      -1.78642292
H        1.73736953      -0.54198765       1.07090040
H        1.81335581      -1.51829992      -0.42452824
H        3.06517888      -0.32351461      -0.06599220
19
Frame=2 idx=006730 GeodesicLength=0.13904142170885275 rxn_smarts="[C:1]([C@@:2]1([H:11])[C:3]([H:12])([H:13])[C:4]([H:14])([H:15])[O:5][C@:6]1([C:7]([H:17])([H:18])[H:19])[H:16])([H:8])([H:9])[H:10]>>[C:1]([C:2]([C:3](=[C:4]([H:14])[H:15])[H:12])([H:11])[H:13])([H:8])([H:9])[H:10].[O:5]=[C:6]([C:7]([H:17])([H:18])[H:19])[H:16]"
C       -1.01462976      -1.59248760      -0.61950294
C       -0.84243398      -0.10781835      -0.43177229
C       -0.96753105       0.51722189       0.92114214
C       -0.74741777       1.86713773       1.08372854
O        1.19558021       1.71097042      -0.22696148
C        1.23566238       0.56147375      -0.70593964
C        2.00195148      -0.52903402       0.00609688
H       -2.03689445      -1.89271917      -0.86513100
H       -0.38516539      -1.92795478      -1.44641507
H       -0.69818119      -2.14819964       0.26549329
H       -1.14736671       0.52883092      -1.25782704
H       -0.79505609      -0.15339767       1.75744676
H       -2.02224436       0.26036030       0.38144493
H       -0.52906732       2.27054605       2.06242731
H       -1.00941877       2.56871695       0.30429779
H        1.12369050       0.43043429      -1.79662993
H        1.73721525      -0.54003541       1.06532139
H        1.83101086      -1.51388329      -0.43155935
H        3.07029615      -0.31016235      -0.06566030
19
Frame=3 idx=006730 GeodesicLength=0.208627127733579 rxn_smarts="[C:1]([C@@:2]1([H:11])[C:3]([H:12])([H:13])[C:4]([H:14])([H:15])[O:5][C@:6]1([C:7]([H:17])([H:18])[H:19])[H:16])([H:8])([H:9])[H:10]>>[C:1]([C:2]([C:3](=[C:4]([H:14])[H:15])[H:12])([H:11])[H:13])([H:8])([H:9])[H:10].[O:5]=[C:6]([C:7]([H:17])([H:18])[H:19])[H:16]"
C       -1.01946005      -1.59440077      -0.61390281
C       -0.85281263      -0.10847367      -0.42718340
C       -0.98161604       0.51511586       0.92616024
C       -0.72728494       1.86223690       1.08361240
O        1.18658056       1.71153798      -0.23127199
C        1.23508679       0.55892884      -0.71328886
C        2.00844259      -0.52389206       0.00206396
H       -2.03791821      -1.89286017      -0.87641761
H       -0.37711409      -1.93515377      -1.42855932
H       -0.71782161      -2.15089644       0.27576738
H       -1.14990560       0.52767965      -1.25649359
H       -0.81619230      -0.15532730       1.76428344
H       -2.04383560       0.26222931       0.36974485
H       -0.51207396       2.26342053       2.06448567
H       -1.00280254       2.56882101       0.31250446
H        1.14775621       0.43507684      -1.80684637
H        1.73675288      -0.53821749       1.05943307
H        1.84896996      -1.50927445      -0.43887913
H        3.07524860      -0.29655079      -0.06521240
19
Frame=4 idx=006730 GeodesicLength=0.2782578260808903 rxn_smarts="[C:1]([C@@:2]1([H:11])[C:3]([H:12])([H:13])[C:4]([H:14])([H:15])[O:5][C@:6]1([C:7]([H:17])([H:18])[H:19])[H:16])([H:8])([H:9])[H:10]>>[C:1]([C:2]([C:3](=[C:4]([H:14])[H:15])[H:12])([H:11])[H:13])([H:8])([H:9])[H:10].[O:5]=[C:6]([C:7]([H:17])([H:18])[H:19])[H:16]"
C       -1.02434541      -1.59633077      -0.60799598
C       -0.86337803      -0.10911482      -0.42254240
C       -0.99593259       0.51331868       0.93109533
C       -0.70732052       1.85679630       1.08349060
O        1.17754544       1.71195530      -0.23592233
C        1.23443258       0.55627026      -0.72104124
C        2.01485186      -0.51867009      -0.00217553
H       -2.03857786      -1.89310452      -0.88775328
H       -0.36897418      -1.94241717      -1.40983354
H       -0.73805504      -2.15346891       0.28634119
H       -1.15253553       0.52639987      -1.25516732
H       -0.83766806      -0.15686301       1.77107482
H       -2.06559094       0.26400379       0.35767483
H       -0.49458148       2.25570830       2.06641394
H       -0.99588377       2.56886467       0.32129947
H        1.17280259       0.44033623      -1.81702437
H        1.73596871      -0.53654482       1.05321206
H        1.86723095      -1.50445949      -0.44649817
H        3.08001128      -0.28267981      -0.06464808
19
Frame=5 idx=006730 GeodesicLength=0.34793072486353127 rxn_smarts="[C:1]([C@@:2]1([H:11])[C:3]([H:12])([H:13])[C:4]([H:14])([H:15])[O:5][C@:6]1([C:7]([H:17])([H:18])[H:19])[H:16])([H:8])([H:9])[H:10]>>[C:1]([C:2]([C:3](=[C:4]([H:14])[H:15])[H:12])([H:11])[H:13])([H:8])([H:9])[H:10].[O:5]=[C:6]([C:7]([H:17])([H:18])[H:19])[H:16]"
C       -1.02928404      -1.59827966      -0.60176773
C       -0.87413797      -0.10974331      -0.41785085
C       -1.01047735       0.51183914       0.93594242
C       -0.68751900       1.85081315       1.08334917
O        1.16846377       1.71221520      -0.24091248
C        1.23369761       0.55349846      -0.72922335
C        2.02116458      -0.51336712      -0.00663568
H       -2.03884725      -1.89347105      -0.89912320
H       -0.36074762      -1.94973988      -1.39019484
H       -0.75889028      -2.15590916       0.29721143
H       -1.15526623       0.52498219      -1.25385129
H       -0.85950062      -0.15799073       1.77782094
H       -2.08751274       0.26567310       0.34522131
H       -0.47656373       2.24737139       2.06821488
H       -0.98863917       2.56884362       0.33066977
H        1.19885911       0.44627020      -1.82711144
H        1.73484772      -0.53503017       1.04663488
H        1.88579144      -1.49942405      -0.45442687
H        3.08456176      -0.26855132      -0.06396708
19
Frame=6 idx=006730 GeodesicLength=0.4176454597245445 rxn_smarts="[C:1]([C@@:2]1([H:11])[C:3]([H:12])([H:13])[C:4]([H:14])([H:15])[O:5][C@:6]1([C:7]([H:17])([H:18])[H:19])[H:16])([H:8])([H:9])[H:10]>>[C:1]([C:2]([C:3](=[C:4]([H:14])[H:15])[H:12])([H:11])[H:13])([H:8])([H:9])[H:10].[O:5]=[C:6]([C:7]([H:17])([H:18])[H:19])[H:16]"
C       -1.03427532      -1.60024839      -0.59520138
C       -0.88509940      -0.11035928      -0.41311179
C       -1.02524560       0.51069051       0.94069373
C       -0.66786704       1.84427876       1.08317452
O        1.15932508       1.71231130      -0.24624374
C        1.23288199       0.55061646      -0.73786841
C        2.02736383      -0.50798069      -0.01133333
H       -2.03868824      -1.89398004      -0.91051145
H       -0.35243712      -1.95711528      -1.36959024
H       -0.78033921      -2.15820528       0.30837799
H       -1.15810722       0.52341739      -1.25255063
H       -0.88170842      -0.15869106       1.78451871
H       -2.10960269       0.26722711       0.33236708
H       -0.45799680       2.23835584       2.06988646
H       -0.98103939       2.56874952       0.34060719
H        1.22594727       0.45293617      -1.83704539
H        1.73337001      -0.53368482       1.03967329
H        1.90464711      -1.49415193      -0.46267687
H        3.08887116      -0.25416629      -0.06316576
19
Frame=7 idx=006730 GeodesicLength=0.48740176604552415 rxn_smarts="[C:1]([C@@:2]1([H:11])[C:3]([H:12])([H:13])[C:4]([H:14])([H:15])[O:5][C@:6]1([C:7]([H:17])([H:18])[H:19])[H:16])([H:8])([H:9])[H:10]>>[C:1]([C:2]([C:3](=[C:4]([H:14])[H:15])[H:12])([H:11])[H:13])([H:8])([H:9])[H:10].[O:5]=[C:6]([C:7]([H:17])([H:18])[H:19])[H:16]"
C       -1.03931653      -1.60223739      -0.58828074
C       -0.89626711      -0.11096406      -0.40832706
C       -1.04022711       0.50988094       0.94534430
C       -0.64835765       1.83719168       1.08295223
O        1.15012074       1.71223617      -0.25191348
C        1.23198798       0.54762669      -0.74700660
C        2.03343305      -0.50251249      -0.01628533
H       -2.03806896      -1.89464973      -0.92190211
H       -0.34404293      -1.96453462      -1.34796948
H       -0.80241385      -2.16034770       0.31983520
H       -1.16106494       0.52169640      -1.25126817
H       -0.90430120      -0.15894730       1.79116781
H       -2.13185928       0.26865472       0.31909661
H       -0.43886621       2.22862300       2.07142259
H       -0.97305973       2.56857485       0.35109799
H        1.25407611       0.46039492      -1.84675897
H        1.73151799      -0.53252725       1.03229989
H        1.92379283      -1.48862868      -0.47126418
H        3.09291679      -0.23953016      -0.06224049
19
Frame=8 idx=006730 GeodesicLength=0.5571940669291302 rxn_smarts="[C:1]([C@@:2]1([H:11])[C:3]([H:12])([H:13])[C:4]([H:14])([H:15])[O:5][C@:6]1([C:7]([H:17])([H:18])[H:19])[H:16])([H:8])([H:9])[H:10]>>[C:1]([C:2]([C:3](=[C:4]([H:14])[H:15])[H:12])([H:11])[H:13])([H:8])([H:9])[H:10].[O:5]=[C:6]([C:7]([H:17])([H:18])[H:19])[H:16]"
C       -1.04440253      -1.60424448      -0.58098846
C       -0.90764569      -0.11155745      -0.40350082
C       -1.05541457       0.50942507       0.94988333
C       -0.62897697       1.82954081       1.08266671
O        1.14084014       1.71198172      -0.25792380
C        1.23101910       0.54453206      -0.75667322
C        2.03935217      -0.49696334      -0.02150940
H       -2.03694007      -1.89550428      -0.93328309
H       -0.33556075      -1.97198198      -1.32526779
H       -0.82512859      -2.16231990       0.33158285
H       -1.16414565       0.51980890      -1.25000997
H       -0.92729459      -0.15873559       1.79776182
H       -2.15428050       0.26994382       0.30539251
H       -0.41914937       2.21811715       2.07282123
H       -0.96466810       2.56831531       0.36213604
H        1.28324098       0.46870314      -1.85618355
H        1.72926591      -0.53157594       1.02448637
H        1.94322219      -1.48283920      -0.48020510
H        3.09666691      -0.22464583      -0.06118565
19
Frame=9 idx=006730 GeodesicLength=0.6270041824974089 rxn_smarts="[C:1]([C@@:2]1([H:11])[C:3]([H:12])([H:13])[C:4]([H:14])([H:15])[O:5][C@:6]1([C:7]([H:17])([H:18])[H:19])[H:16])([H:8])([H:9])[H:10]>>[C:1]([C:2]([C:3](=[C:4]([H:14])[H:15])[H:12])([H:11])[H:13])([H:8])([H:9])[H:10].[O:5]=[C:6]([C:7]([H:17])([H:18])[H:19])[H:16]"
C       -1.04952288      -1.60627450      -0.57329888
C       -0.91922432      -0.11214207      -0.39862678
C       -1.07077870       0.50931961       0.95431796
C       -0.60974046       1.82136113       1.08228973
O        1.13149410       1.71155115      -0.26423066
C        1.22999326       0.54136339      -0.76690024
C        2.04509994      -0.49134157      -0.02704830
H       -2.03525853      -1.89654232      -0.94462357
H       -0.32697552      -1.97944016      -1.30140619
H       -0.84851617      -2.16412537       0.34360749
H       -1.16733657       0.51774567      -1.24877249
H       -0.95068220      -0.15805020       1.80430657
H       -2.17683935       0.27109942       0.29124502
H       -0.39888667       2.20682952       2.07405662
H       -0.95584882       2.56793024       0.37368446
H        1.31342802       0.47789877      -1.86519891
H        1.72658015      -0.53088648       1.01616125
H        1.96292857      -1.47675784      -0.48957080
H        3.10008616      -0.20953840      -0.05999226
19
Frame=10 idx=006730 GeodesicLength=0.6968447783662994 rxn_smarts="[C:1]([C@@:2]1([H:11])[C:3]([H:12])([H:13])[C:4]([H:14])([H:15])[O:5][C@:6]1([C:7]([H:17])([H:18])[H:19])[H:16])([H:8])([H:9])[H:10]>>[C:1]([C:2]([C:3](=[C:4]([H:14])[H:15])[H:12])([H:11])[H:13])([H:8])([H:9])[H:10].[O:5]=[C:6]([C:7]([H:17])([H:18])[H:19])[H:16]"
C       -1.05466996      -1.60832041      -0.56519730
C       -0.93101595      -0.11271371      -0.39371976
C       -1.08632704       0.50959729       0.95862138
C       -0.59061204       1.81260827       1.08181435
O        1.12206278       1.71093078      -0.27086992
C        1.22890932       0.53810838      -0.77772157
C        2.05065799      -0.48564734      -0.03290291
H       -2.03296362      -1.89780559      -0.95593031
H       -0.31828345      -1.98689838      -1.27632123
H       -0.87257664      -2.16573248       0.35591535
H       -1.17065288       0.51549745      -1.24757335
H       -0.97448555      -0.15684221       1.81078690
H       -2.19955252       0.27209069       0.27662371
H       -0.37801595       2.19467225       2.07514107
H       -0.94655708       2.56744518       0.38576463
H        1.34459075       0.48805390      -1.87375584
H        1.72343852      -0.53046074       1.00731911
H        1.98290620      -1.47037738      -0.49934336
H        3.10314712      -0.19420596      -0.05865095
19
Frame=11 idx=006730 GeodesicLength=0.7667236634809934 rxn_smarts="[C:1]([C@@:2]1([H:11])[C:3]([H:12])([H:13])[C:4]([H:14])([H:15])[O:5][C@:6]1([C:7]([H:17])([H:18])[H:19])[H:16])([H:8])([H:9])[H:10]>>[C:1]([C:2]([C:3](=[C:4]([H:14])[H:15])[H:12])([H:11])[H:13])([H:8])([H:9])[H:10].[O:5]=[C:6]([C:7]([H:17])([H:18])[H:19])[H:16]"
C       -1.05982973      -1.61038202      -0.55666254
C       -0.94302053      -0.11326964      -0.38878468
C       -1.10204921       0.51027511       0.96278397
C       -0.57158204       1.80327692       1.08122149
O        1.11254249       1.71011845      -0.27783121
C        1.22777797       0.53478179      -0.78916875
C        2.05600432      -0.47988757      -0.03909801
H       -2.02999746      -1.89931051      -0.96719593
H       -0.30946987      -1.99434250      -1.24993552
H       -0.89732431      -2.16712696       0.36850732
H       -1.17409285       0.51305657      -1.24642140
H       -0.99871258      -0.15508059       1.81719725
H       -2.22241493       0.27290221       0.26150397
H       -0.35652536       2.18159811       2.07606577
H       -0.93675940       2.56685231       0.39837037
H        1.37667456       0.49921510      -1.88176314
H        1.71981063      -0.53033429       0.99791492
H        2.00314968      -1.46367806      -0.50955474
H        3.10581865      -0.17866443      -0.05714914
19
Frame=12 idx=006730 GeodesicLength=0.8366429517872263 rxn_smarts="[C:1]([C@@:2]1([H:11])[C:3]([H:12])([H:13])[C:4]([H:14])([H:15])[O:5][C@:6]1([C:7]([H:17])([H:18])[H:19])[H:16])([H:8])([H:9])[H:10]>>[C:1]([C:2]([C:3](=[C:4]([H:14])[H:15])[H:12])([H:11])[H:13])([H:8])([H:9])[H:10].[O:5]=[C:6]([C:7]([H:17])([H:18])[H:19])[H:16]"
C       -1.06498399      -1.61245480      -0.54767016
C       -0.95523491      -0.11380626      -0.38382635
C       -1.11793354       0.51137279       0.96679378
C       -0.55264211       1.79336347       1.08049203
O        1.10293221       1.70911287      -0.28510408
C        1.22661327       0.53140109      -0.80126889
C        2.06111746      -0.47407203      -0.04565887
H       -2.02628232      -1.90107709      -0.97841875
H       -0.30051129      -2.00174793      -1.22215203
H       -0.92278267      -2.16828969       0.38138102
H       -1.17764999       0.51041486      -1.24532575
H       -1.02336950      -0.15273024       1.82353115
H       -2.24541791       0.27351866       0.24585951
H       -0.33440836       2.16755616       2.07682166
H       -0.92641920       2.56614258       0.41149740
H        1.40959548       0.51142377      -1.88913464
H        1.71566090      -0.53055402       0.98789973
H        2.02365301      -1.45664071      -0.52024565
H        3.10806347      -0.16293347      -0.05547112
19
Frame=13 idx=006730 GeodesicLength=0.9066029754388119 rxn_smarts="[C:1]([C@@:2]1([H:11])[C:3]([H:12])([H:13])[C:4]([H:14])([H:15])[O:5][C@:6]1([C:7]([H:17])([H:18])[H:19])[H:16])([H:8])([H:9])[H:10]>>[C:1]([C:2]([C:3](=[C:4]([H:14])[H:15])[H:12])([H:11])[H:13])([H:8])([H:9])[H:10].[O:5]=[C:6]([C:7]([H:17])([H:18])[H:19])[H:16]"
C       -1.07011355      -1.61453190      -0.53819834
C       -0.96765656      -0.11431857      -0.37885076
C       -1.13396890       0.51291052       0.97063760
C       -0.53378519       1.78286429       1.07960666
O        1.09323016       1.70791256      -0.29267841
C        1.22542983       0.52798426      -0.81404741
C        2.06597410      -0.46821271      -0.05260827
H       -2.02173576      -1.90312335      -0.98959834
H       -0.29138264      -2.00908348      -1.19287993
H       -0.94896557      -2.16920143       0.39452890
H       -1.18131719       0.50756626      -1.24429585
H       -1.04845895      -0.14975534       1.82977935
H       -2.26855127       0.27392247       0.22966703
H       -0.31165762       2.15249696       2.07740182
H       -0.91550053       2.56531208       0.42514215
H        1.44324914       0.52470514      -1.89578359
H        1.71095363      -0.53116600       0.97723068
H        2.04440732      -1.44924740      -0.53145191
H        3.10984955      -0.14703435      -0.05360136
19
Frame=14 idx=006730 GeodesicLength=0.9766148980362 rxn_smarts="[C:1]([C@@:2]1([H:11])[C:3]([H:12])([H:13])[C:4]([H:14])([H:15])[O:5][C@:6]1([C:7]([H:17])([H:18])[H:19])[H:16])([H:8])([H:9])[H:10]>>[C:1]([C:2]([C:3](=[C:4]([H:14])[H:15])[H:12])([H:11])[H:13])([H:8])([H:9])[H:10].[O:5]=[C:6]([C:7]([H:17])([H:18])[H:19])[H:16]"
C       -1.07519079      -1.61660295      -0.52822295
C       -0.98027960      -0.11479852      -0.37386607
C       -1.15014204       0.51491357       0.97429819
C       -0.51500276       1.77177249       1.07854835
O        1.08343705       1.70652164      -0.30054128
C        1.22424643       0.52455629      -0.82752958
C        2.07055145      -0.46232101      -0.05997282
H       -2.01625937      -1.90547159      -1.00073172
H       -0.28204906      -2.01630864      -1.16199878
H       -0.97590108      -2.16983564       0.40794042
H       -1.18508208       0.50450585      -1.24334425
H       -1.07398690      -0.14611389       1.83592755
H       -2.29180426       0.27409484       0.21289351
H       -0.28826541       2.13635305       2.07779731
H       -0.90396179       2.56435314       0.43930912
H        1.47750242       0.53907211      -1.90162666
H        1.70564579      -0.53222417       0.96585382
H        2.06540569      -1.44147666      -0.54321634
H        3.11113629      -0.13098991      -0.05151783
19
Frame=15 idx=006730 GeodesicLength=1.0466899267515715 rxn_smarts="[C:1]([C@@:2]1([H:11])[C:3]([H:12])([H:13])[C:4]([H:14])([H:15])[O:5][C@:6]1([C:7]([H:17])([H:18])[H:19])[H:16])([H:8])([H:9])[H:10]>>[C:1]([C:2]([C:3](=[C:4]([H:14])[H:15])[H:12])([H:11])[H:13])([H:8])([H:9])[H:10].[O:5]=[C:6]([C:7]([H:17])([H:18])[H:19])[H:16]"
C       -1.08018373      -1.61865479      -0.51772065
C       -0.99309850      -0.11523599      -0.36887941
C       -1.16643925       0.51740701       0.97776097
C       -0.49629051       1.76008652       1.07729960
O        1.07355594       1.70494434      -0.30867511
C        1.22308236       0.52114367      -0.84173435
C        2.07482288      -0.45641474      -0.06777662
H       -2.00974066      -1.90814035      -1.01182263
H       -0.27247303      -2.02337243      -1.12939175
H       -1.00360772      -2.17016821       0.42159810
H       -1.18893029       0.50123212      -1.24248135
H       -1.09995071      -0.14176411       1.84196247
H       -2.31516310       0.27401400       0.19550941
H       -0.26423277       2.11907117       2.07800094
H       -0.89176407       2.56326053       0.45399884
H        1.51219643       0.55452116      -1.90658293
H        1.69969647      -0.53378852       0.95371724
H        2.08663730      -1.43330939      -0.55558302
H        3.11188295      -0.11483199      -0.04919976
19
Frame=16 idx=006730 GeodesicLength=1.1168456061156298 rxn_smarts="[C:1]([C@@:2]1([H:11])[C:3]([H:12])([H:13])[C:4]([H:14])([H:15])[O:5][C@:6]1([C:7]([H:17])([H:18])[H:19])[H:16])([H:8])([H:9])[H:10]>>[C:1]([C:2]([C:3](=[C:4]([H:14])[H:15])[H:12])([H:11])[H:13])([H:8])([H:9])[H:10].[O:5]=[C:6]([C:7]([H:17])([H:18])[H:19])[H:16]"
C       -1.08505330      -1.62067151      -0.50666389
C       -1.00610712      -0.11561808      -0.36389934
C       -1.18284707       0.52042084       0.98100794
C       -0.47764710       1.74780415       1.07584625
O        1.06359222       1.70318898      -0.31705990
C        1.22195784       0.51777795      -0.85667596
C        2.07876330      -0.45051314      -0.07604702
H       -2.00204322      -1.91114903      -1.02288067
H       -0.26261209      -2.03021436      -1.09491251
H       -1.03211924      -2.17017021       0.43547958
H       -1.19284537       0.49774443      -1.24171987
H       -1.12634918      -0.13665850       1.84786652
H       -2.33861345       0.27365567       0.17748128
H       -0.23956231       2.10058677       2.07800859
H       -0.87886639       2.56202785       0.46921933
H        1.54715275       0.57103521      -1.91058433
H        1.69306199      -0.53592687       0.94076077
H        2.10809247      -1.42472502      -0.56860137
H        3.11204528      -0.09859514      -0.04662540
