11
Frame=0 idx=002844 GeodesicLength=0.0 rxn_smarts="[C:1]([N:2]([C:3]([C:4]#[N:5])([H:10])[H:11])[H:9])([H:6])([H:7])[H:8]>>[C:1]([N:2]([C:3]([N+:5]#[C-:4])([H:10])[H:11])[H:9])([H:6])([H:7])[H:8]"
C        1.27878771      -0.56952537      -0.28940093
N        0.45008017       0.17892148       0.63353835
C       -0.58758484       0.87808148       0.19429416
C       -1.82904934      -0.46221162      -0.82954432
N       -2.45299881      -0.29917868       0.15168900
H        0.71556904      -1.41035878      -0.70680197
H        2.16620333      -0.92878563       0.22745941
H        1.58698763       0.07890762      -1.10861319
H        0.35419328      -0.21472496       1.55578352
H       -1.19543050       1.37672389       0.93217880
H       -0.48675768       1.37215053      -0.76058285
11
Frame=1 idx=002844 GeodesicLength=0.043221520363669344 rxn_smarts="[C:1]([N:2]([C:3]([C:4]#[N:5])([H:10])[H:11])[H:9])([H:6])([H:7])[H:8]>>[C:1]([N:2]([C:3]([N+:5]#[C-:4])([H:10])[H:11])[H:9])([H:6])([H:7])[H:8]"
C        1.27496764      -0.57113803      -0.28789330
N        0.45304431       0.18448608       0.63546339
C       -0.59870631       0.87113193       0.19128350
C       -1.83191526      -0.44880794      -0.84365330
N       -2.43063057      -0.31788012       0.15578616
H        0.71102937      -1.41514214      -0.69839236
H        2.16489072      -0.92854706       0.22612721
H        1.58046824       0.07274271      -1.11193650
H        0.35477901      -0.21327711       1.55580954
H       -1.19432156       1.38343364       0.93088059
H       -0.48360558       1.38299804      -0.75347493
11
Frame=2 idx=002844 GeodesicLength=0.0864878492241902 rxn_smarts="[C:1]([N:2]([C:3]([C:4]#[N:5])([H:10])[H:11])[H:9])([H:6])([H:7])[H:8]>>[C:1]([N:2]([C:3]([N+:5]#[C-:4])([H:10])[H:11])[H:9])([H:6])([H:7])[H:8]"
C        1.27120895      -0.57269715      -0.28639065
N        0.45599921       0.19005490       0.63728428
C       -0.60957933       0.86436291       0.18824550
C       -1.83514023      -0.43561482      -0.85671209
N       -2.40819563      -0.33627989       0.15917423
H        0.70648754      -1.41958625      -0.69034476
H        2.16344352      -0.92858399       0.22487577
H        1.57427907       0.06675964      -1.11500814
H        0.35541653      -0.21170528       1.55576801
H       -1.19315970       1.38988839       0.92930641
H       -0.48075993       1.39340154      -0.74619856
11
Frame=3 idx=002844 GeodesicLength=0.12979414158522629 rxn_smarts="[C:1]([N:2]([C:3]([C:4]#[N:5])([H:10])[H:11])[H:9])([H:6])([H:7])[H:8]>>[C:1]([N:2]([C:3]([N+:5]#[C-:4])([H:10])[H:11])[H:9])([H:6])([H:7])[H:8]"
C        1.26749727      -0.57419914      -0.28488776
N        0.45893920       0.19561841       0.63900146
C       -0.62020380       0.85776734       0.18518023
C       -1.83870760      -0.42263906      -0.86878192
N       -2.38567287      -0.35437705       0.16189436
H        0.70193561      -1.42372436      -0.68263060
H        2.16185835      -0.92884892       0.22371203
H        1.56839300       0.06095374      -1.11783917
H        0.35607782      -0.21002783       1.55564674
H       -1.19191710       1.39609056       0.92748556
H       -0.47819987       1.40338631      -0.73878091
11
Frame=4 idx=002844 GeodesicLength=0.17313720400839058 rxn_smarts="[C:1]([N:2]([C:3]([C:4]#[N:5])([H:10])[H:11])[H:9])([H:6])([H:7])[H:8]>>[C:1]([N:2]([C:3]([N+:5]#[C-:4])([H:10])[H:11])[H:9])([H:6])([H:7])[H:8]"
C        1.26386262      -0.57563746      -0.28338681
N        0.46185183       0.20114984       0.64062767
C       -0.63059317       0.85134297       0.18208574
C       -1.84263005      -0.40992257      -0.87984395
N       -2.36314353      -0.37207503       0.16398621
H        0.69743848      -1.42756582      -0.67527730
H        2.16017078      -0.92931018       0.22263863
H        1.56282465       0.05535002      -1.12042813
H        0.35671977      -0.20831318       1.55544078
H       -1.19059360       1.40207909       0.92543936
H       -0.47590777       1.41290232      -0.73128218
11
Frame=5 idx=002844 GeodesicLength=0.2165377914630806 rxn_smarts="[C:1]([N:2]([C:3]([C:4]#[N:5])([H:10])[H:11])[H:9])([H:6])([H:7])[H:8]>>[C:1]([N:2]([C:3]([N+:5]#[C-:4])([H:10])[H:11])[H:9])([H:6])([H:7])[H:8]"
C        1.26030394      -0.57702578      -0.28188771
N        0.46474474       0.20664519       0.64217290
C       -0.64076825       0.84509843       0.17897323
C       -1.84687947      -0.39742875      -0.88998567
N       -2.34061813      -0.38938934       0.16545176
H        0.69300132      -1.43117098      -0.66820494
H        2.15843078      -0.92993063       0.22164412
H        1.55751986       0.04990239      -1.12283911
H        0.35735103      -0.20656458       1.55517220
H       -1.18921740       1.40784749       0.92321881
H       -0.47386842       1.42201657      -0.72371558
11
Frame=6 idx=002844 GeodesicLength=0.26001327121934065 rxn_smarts="[C:1]([N:2]([C:3]([C:4]#[N:5])([H:10])[H:11])[H:9])([H:6])([H:7])[H:8]>>[C:1]([N:2]([C:3]([N+:5]#[C-:4])([H:10])[H:11])[H:9])([H:6])([H:7])[H:8]"
C        1.25679414      -0.57836189      -0.28038274
N        0.46761902       0.21210707       0.64363731
C       -0.65072359       0.83902955       0.17584793
C       -1.85144225      -0.38514004      -0.89927068
N       -2.31803311      -0.40634840       0.16629553
H        0.68860753      -1.43457440      -0.66136993
H        2.15661455      -0.93066823       0.22072775
H        1.55242528       0.04459119      -1.12508022
H        0.35796612      -0.20477380       1.55482746
H       -1.18776206       1.41338511       0.92084713
H       -0.47206564       1.43075383      -0.71607953
11
Frame=7 idx=002844 GeodesicLength=0.3035148402563985 rxn_smarts="[C:1]([N:2]([C:3]([C:4]#[N:5])([H:10])[H:11])[H:9])([H:6])([H:7])[H:8]>>[C:1]([N:2]([C:3]([N+:5]#[C-:4])([H:10])[H:11])[H:9])([H:6])([H:7])[H:8]"
C        1.25332825      -0.57966424      -0.27887557
N        0.47048393       0.21754624       0.64504640
C       -0.66049066       0.83313436       0.17272624
C       -1.85629792      -0.37300125      -0.90785544
N       -2.29539135      -0.42299657       0.16655327
H        0.68426366      -1.43785180      -0.65470033
H        2.15476171      -0.93148148       0.21986842
H        1.54748065       0.03935968      -1.12723042
H        0.35858515      -0.20291877       1.55446593
H       -1.18626794       1.41868951       0.91838815
H       -0.47045549       1.43918432      -0.70838664
11
Frame=8 idx=002844 GeodesicLength=0.3471675946100338 rxn_smarts="[C:1]([N:2]([C:3]([C:4]#[N:5])([H:10])[H:11])[H:9])([H:6])([H:7])[H:8]>>[C:1]([N:2]([C:3]([N+:5]#[C-:4])([H:10])[H:11])[H:9])([H:6])([H:7])[H:8]"
C        1.24992632      -0.58092189      -0.27736091
N        0.47332014       0.22292742       0.64636863
C       -0.67007060       0.82741878       0.16959132
C       -1.86140204      -0.36104916      -0.91555764
N       -2.27274781      -0.43923161       0.16617915
H        0.68002198      -1.44095976      -0.64821139
H        2.15288786      -0.93237692       0.21906557
H        1.54269649       0.03423283      -1.12923178
H        0.35916710      -0.20106738       1.55399342
H       -1.18473789       1.42378495       0.91580874
H       -0.46906155       1.44724274      -0.70064512
11
Frame=9 idx=002844 GeodesicLength=0.3908334333107053 rxn_smarts="[C:1]([N:2]([C:3]([C:4]#[N:5])([H:10])[H:11])[H:9])([H:6])([H:7])[H:8]>>[C:1]([N:2]([C:3]([N+:5]#[C-:4])([H:10])[H:11])[H:9])([H:6])([H:7])[H:8]"
C        1.24657454      -0.58213364      -0.27583876
N        0.47613795       0.22826087       0.64764016
C       -0.67947585       0.82185523       0.16644928
C       -1.86681724      -0.34929325      -0.92257523
N       -2.25007002      -0.45510558       0.16530253
H        0.67586092      -1.44393091      -0.64192907
H        2.15096409      -0.93333567       0.21833759
H        1.53808901       0.02922854      -1.13109843
H        0.35971009      -0.19920482       1.55348207
H       -1.18312383       1.42868943       0.91314804
H       -0.46784967       1.45496978      -0.69291818
11
Frame=10 idx=002844 GeodesicLength=0.43459909685647685 rxn_smarts="[C:1]([N:2]([C:3]([C:4]#[N:5])([H:10])[H:11])[H:9])([H:6])([H:7])[H:8]>>[C:1]([N:2]([C:3]([N+:5]#[C-:4])([H:10])[H:11])[H:9])([H:6])([H:7])[H:8]"
C        1.24331231      -0.58328863      -0.27431394
N        0.47892754       0.23351904       0.64886063
C       -0.68871310       0.81645472       0.16328884
C       -1.87255480      -0.33779250      -0.92875663
N       -2.22746081      -0.47052936       0.16388980
H        0.67181722      -1.44673859      -0.63589714
H        2.14903594      -0.93436778       0.21770083
H        1.53371696       0.02438952      -1.13282012
H        0.36017150      -0.19740447       1.55290178
H       -1.18143199       1.43344750       0.91039309
H       -0.46682076       1.46231055      -0.68524714
11
Frame=11 idx=002844 GeodesicLength=0.4783984662425391 rxn_smarts="[C:1]([N:2]([C:3]([C:4]#[N:5])([H:10])[H:11])[H:9])([H:6])([H:7])[H:8]>>[C:1]([N:2]([C:3]([N+:5]#[C-:4])([H:10])[H:11])[H:9])([H:6])([H:7])[H:8]"
C        1.24011008      -0.58440065      -0.27278161
N        0.48169179       0.23871075       0.65003676
C       -0.69780724       0.81119949       0.16012460
C       -1.87855032      -0.32649250      -0.93427196
N       -2.20486743      -0.48554448       0.16200194
H        0.66788915      -1.44942466      -0.63003090
H        2.14709982      -0.93543438       0.21711578
H        1.52948917       0.01965287      -1.13442343
H        0.36057268      -0.19563711       1.55226709
H       -1.17968013       1.43804106       0.90757363
H       -0.46594757       1.46932961      -0.67761189
11
Frame=12 idx=002844 GeodesicLength=0.5222728624987525 rxn_smarts="[C:1]([N:2]([C:3]([C:4]#[N:5])([H:10])[H:11])[H:9])([H:6])([H:7])[H:8]>>[C:1]([N:2]([C:3]([N+:5]#[C-:4])([H:10])[H:11])[H:9])([H:6])([H:7])[H:8]"
C        1.23699203      -0.58545330      -0.27124473
N        0.48442374       0.24381688       0.65117704
C       -0.70675590       0.80608820       0.15694268
C       -1.88485866      -0.31545598      -0.93902104
N       -2.18235153      -0.50010220       0.15964935
H        0.66409172      -1.45196621      -0.62441172
H        2.14515631      -0.93655043       0.21661999
H        1.52548385       0.01509115      -1.13587794
H        0.36087537      -0.19395739       1.55156617
H       -1.17783271       1.44251636       0.90467112
H       -0.46522423       1.47597292      -0.67007092
11
Frame=13 idx=002844 GeodesicLength=0.5662091010429344 rxn_smarts="[C:1]([N:2]([C:3]([C:4]#[N:5])([H:10])[H:11])[H:9])([H:6])([H:7])[H:8]>>[C:1]([N:2]([C:3]([N+:5]#[C-:4])([H:10])[H:11])[H:9])([H:6])([H:7])[H:8]"
C        1.23397541      -0.58644321      -0.26970300
N        0.48711751       0.24882053       0.65228024
C       -0.71557488       0.80111053       0.15374061
C       -1.89149406      -0.30470096      -0.94299993
N       -2.15995333      -0.51417596       0.15688875
H        0.66044611      -1.45433566      -0.61907018
H        2.14321371      -0.93773183       0.21622062
H        1.52174068       0.01072472      -1.13715541
H        0.36106122      -0.19239264       1.55078753
H       -1.17588170       1.44689594       0.90167720
H       -0.46465066       1.48222854      -0.66266644
11
Frame=14 idx=002844 GeodesicLength=0.6102041604130715 rxn_smarts="[C:1]([N:2]([C:3]([C:4]#[N:5])([H:10])[H:11])[H:9])([H:6])([H:7])[H:8]>>[C:1]([N:2]([C:3]([N+:5]#[C-:4])([H:10])[H:11])[H:9])([H:6])([H:7])[H:8]"
C        1.23104019      -0.58738081      -0.26815546
N        0.48977772       0.25373519       0.65336075
C       -0.72427584       0.79626164       0.15052539
C       -1.89843382      -0.29418426      -0.94629123
N       -2.13762749      -0.52781147       0.15372326
H        0.65694852      -1.45658389      -0.61396289
H        2.14126611      -0.93895295       0.21590519
H        1.51820239       0.00652044      -1.13829082
H        0.36114850      -0.19091889       1.54995520
H       -1.17383988       1.45117709       0.89861441
H       -0.46420640       1.48813791      -0.65538380
11
Frame=15 idx=002844 GeodesicLength=0.6542514203495035 rxn_smarts="[C:1]([N:2]([C:3]([C:4]#[N:5])([H:10])[H:11])[H:9])([H:6])([H:7])[H:8]>>[C:1]([N:2]([C:3]([N+:5]#[C-:4])([H:10])[H:11])[H:9])([H:6])([H:7])[H:8]"
C        1.22819640      -0.58825038      -0.26660061
N        0.49240164       0.25854505       0.65441802
C       -0.73286072       0.79152906       0.14729031
C       -1.90570290      -0.28394486      -0.94884915
N       -2.11542200      -0.54097942       0.15018493
H        0.65359481      -1.45866952      -0.60913399
H        2.13930782      -0.94022208       0.21569074
H        1.51491960       0.00252202      -1.13924524
H        0.36111749      -0.18956824       1.54904723
H       -1.17167686       1.45537636       0.89545897
H       -0.46387528       1.49366200      -0.64826122
11
Frame=16 idx=002844 GeodesicLength=0.6983411875892709 rxn_smarts="[C:1]([N:2]([C:3]([C:4]#[N:5])([H:10])[H:11])[H:9])([H:6])([H:7])[H:8]>>[C:1]([N:2]([C:3]([N+:5]#[C-:4])([H:10])[H:11])[H:9])([H:6])([H:7])[H:8]"
C        1.22546085      -0.58905009      -0.26504368
N        0.49498147       0.26323945       0.65546237
C       -0.74134711       0.78690710       0.14403233
C       -1.91331483      -0.27400859      -0.95066663
N       -2.09337427      -0.55366020       0.14633522
H        0.65040362      -1.46057593      -0.60463596
H        2.13733967      -0.94156752       0.21558951
H        1.51194458      -0.00123595      -1.14000114
H        0.36095252      -0.18836748       1.54807183
H       -1.16939229       1.45953016       0.89220018
H       -0.46365421       1.49878905      -0.64134403
