13
Frame=0 idx=008025 GeodesicLength=0.0 rxn_smarts="[O:1]([C:2]([C:3]([C:4]#[C:5][H:12])([C:6]#[C:7][H:13])[H:11])([H:9])[H:10])[H:8]>>[C:3](=[C:4]=[C:5]([H:8])[H:12])([C:6]#[C:7][H:13])[H:11].[O:1]=[C:2]([H:9])[H:10]"
O        1.59099417      -1.38859777       0.35018768
C        1.41563277      -0.12842140       0.34115100
C       -0.29523959       0.45206666      -0.70287070
C       -0.82167423      -0.80866753      -0.64766340
C       -0.74441928      -2.03006397      -0.41422191
C       -0.81911474       1.52308620       0.09688199
C       -1.20562397       2.43630197       0.76896862
H        0.47884197      -1.93105695       0.10343375
H        1.07271647       0.36745824       1.25530133
H        2.05258487       0.47005288      -0.31558370
H        0.09981149       0.75654332      -1.66893547
H       -1.26054131      -2.96354422      -0.52771186
H       -1.56396865       3.24484262       1.36106270
13
Frame=1 idx=008025 GeodesicLength=0.057101162181147885 rxn_smarts="[O:1]([C:2]([C:3]([C:4]#[C:5][H:12])([C:6]#[C:7][H:13])[H:11])([H:9])[H:10])[H:8]>>[C:3](=[C:4]=[C:5]([H:8])[H:12])([C:6]#[C:7][H:13])[H:11].[O:1]=[C:2]([H:9])[H:10]"
O        1.60677606      -1.38481886       0.34039066
C        1.42107527      -0.12438595       0.34360424
C       -0.29604108       0.44967950      -0.70128004
C       -0.82917398      -0.80998502      -0.64540105
C       -0.74717514      -2.03323326      -0.42089559
C       -0.82413479       1.52132463       0.09587099
C       -1.20976195       2.43469304       0.76822067
H        0.49245328      -1.94401081       0.09635883
H        1.07349223       0.35411821       1.26570034
H        2.06044135       0.48740911      -0.29853091
H        0.08922502       0.75395462      -1.67159330
H       -1.27890386      -2.95938617      -0.52287786
H       -1.55827240       3.25464093       1.35043301
13
Frame=2 idx=008025 GeodesicLength=0.11416012281605054 rxn_smarts="[O:1]([C:2]([C:3]([C:4]#[C:5][H:12])([C:6]#[C:7][H:13])[H:11])([H:9])[H:10])[H:8]>>[C:3](=[C:4]=[C:5]([H:8])[H:12])([C:6]#[C:7][H:13])[H:11].[O:1]=[C:2]([H:9])[H:10]"
O        1.62237657      -1.38081941       0.33076374
C        1.42647572      -0.12029954       0.34610045
C       -0.29674733       0.44733775      -0.69991086
C       -0.83682353      -0.81113299      -0.64319889
C       -0.75032214      -2.03613622      -0.42738374
C       -0.82895215       1.51981294       0.09443011
C       -1.21346595       2.43341148       0.76707790
H        0.50615197      -1.95697480       0.08892644
H        1.07441836       0.34074478       1.27584430
H        2.06823391       0.50448009      -0.28116334
H        0.07877527       0.75119361      -1.67441701
H       -1.29703726      -2.95491488      -0.51749304
H       -1.55308345       3.26329718       1.34042393
13
Frame=3 idx=008025 GeodesicLength=0.17114679639654837 rxn_smarts="[O:1]([C:2]([C:3]([C:4]#[C:5][H:12])([C:6]#[C:7][H:13])[H:11])([H:9])[H:10])[H:8]>>[C:3](=[C:4]=[C:5]([H:8])[H:12])([C:6]#[C:7][H:13])[H:11].[O:1]=[C:2]([H:9])[H:10]"
O        1.63749910      -1.37662605       0.32187856
C        1.43193293      -0.11609964       0.34844547
C       -0.29738760       0.44500710      -0.69879532
C       -0.84492808      -0.81198594      -0.64037076
C       -0.75439940      -2.03858135      -0.43246275
C       -0.83317879       1.51901145       0.09213858
C       -1.21524065       2.43310739       0.76548404
H        0.51935960      -1.96975615       0.08246010
H        1.07600268       0.32811223       1.28536381
H        2.07609511       0.52071748      -0.26427901
H        0.06825837       0.74770178      -1.67766703
H       -1.31418584      -2.95049951      -0.51394233
H       -1.54982745       3.26989122       1.33174664
13
Frame=4 idx=008025 GeodesicLength=0.2280994243508429 rxn_smarts="[O:1]([C:2]([C:3]([C:4]#[C:5][H:12])([C:6]#[C:7][H:13])[H:11])([H:9])[H:10])[H:8]>>[C:3](=[C:4]=[C:5]([H:8])[H:12])([C:6]#[C:7][H:13])[H:11].[O:1]=[C:2]([H:9])[H:10]"
O        1.65287289      -1.37232559       0.31222463
C        1.43738624      -0.11202832       0.35099879
C       -0.29699289       0.44314128      -0.69891613
C       -0.85195351      -0.81245044      -0.64048355
C       -0.75752661      -2.04074525      -0.44135604
C       -0.83735851       1.51792104       0.08896040
C       -1.21737407       2.43170577       0.76386680
H        0.53345595      -1.98269619       0.07303421
H        1.07667704       0.31420024       1.29489924
H        2.08437858       0.53731053      -0.24559531
H        0.05974136       0.74558092      -1.68141536
H       -1.33493104      -2.94355400      -0.50038135
H       -1.54837543       3.27393999       1.32416366
13
Frame=5 idx=008025 GeodesicLength=0.28500883233638435 rxn_smarts="[O:1]([C:2]([C:3]([C:4]#[C:5][H:12])([C:6]#[C:7][H:13])[H:11])([H:9])[H:10])[H:8]>>[C:3](=[C:4]=[C:5]([H:8])[H:12])([C:6]#[C:7][H:13])[H:11].[O:1]=[C:2]([H:9])[H:10]"
O        1.66774677      -1.36767894       0.30346945
C        1.44264544      -0.10770110       0.35348456
C       -0.29756377       0.44081873      -0.69826634
C       -0.86038909      -0.81305980      -0.63787261
C       -0.76238163      -2.04276223      -0.44595625
C       -0.84139119       1.51748966       0.08577934
C       -1.21796812       2.43179180       0.76189338
H        0.54701271      -1.99558645       0.06554458
H        1.07823401       0.30130577       1.30404233
H        2.09196842       0.55325965      -0.22783735
H        0.04943418       0.74172282      -1.68498821
H       -1.35145125      -2.93864747      -0.49570818
H       -1.54589647       3.27904756       1.31641531
13
Frame=6 idx=008025 GeodesicLength=0.3418580230531906 rxn_smarts="[O:1]([C:2]([C:3]([C:4]#[C:5][H:12])([C:6]#[C:7][H:13])[H:11])([H:9])[H:10])[H:8]>>[C:3](=[C:4]=[C:5]([H:8])[H:12])([C:6]#[C:7][H:13])[H:11].[O:1]=[C:2]([H:9])[H:10]"
O        1.68232998      -1.36283083       0.29522388
C        1.44796027      -0.10324130       0.35586229
C       -0.29821016       0.43842737      -0.69766057
C       -0.86928982      -0.81349240      -0.63450450
C       -0.76796031      -2.04448987      -0.44918019
C       -0.84502633       1.51756276       0.08208767
C       -1.21708033       2.43266001       0.75961253
H        0.56029314      -2.00839034       0.05890028
H        1.08038837       0.28896714       1.31274439
H        2.09953621       0.56865063      -0.21043625
H        0.03884271       0.73717952      -1.68875656
H       -1.36712262      -2.93413054      -0.49332256
H       -1.54466111       3.28312784       1.30942958
13
Frame=7 idx=008025 GeodesicLength=0.398693896294242 rxn_smarts="[O:1]([C:2]([C:3]([C:4]#[C:5][H:12])([C:6]#[C:7][H:13])[H:11])([H:9])[H:10])[H:8]>>[C:3](=[C:4]=[C:5]([H:8])[H:12])([C:6]#[C:7][H:13])[H:11].[O:1]=[C:2]([H:9])[H:10]"
O        1.69688794      -1.35781315       0.28691513
C        1.45328741      -0.09875478       0.35828638
C       -0.29864076       0.43610455      -0.69737816
C       -0.87819815      -0.81371711      -0.63147519
C       -0.77374360      -2.04596567      -0.45256665
C       -0.84841797       1.51783056       0.07790473
C       -1.21557590       2.43372939       0.75700209
H        0.57383144      -2.02125853       0.05159366
H        1.08257134       0.27639551       1.32125988
H        2.10714332       0.58390725      -0.19252563
H        0.02862051       0.73259237      -1.69271666
H       -1.38325994      -2.92914127      -0.48939380
H       -1.54450564       3.28609086       1.30309422
13
Frame=8 idx=008025 GeodesicLength=0.4555138743394523 rxn_smarts="[O:1]([C:2]([C:3]([C:4]#[C:5][H:12])([C:6]#[C:7][H:13])[H:11])([H:9])[H:10])[H:8]>>[C:3](=[C:4]=[C:5]([H:8])[H:12])([C:6]#[C:7][H:13])[H:11].[O:1]=[C:2]([H:9])[H:10]"
O        1.71137864      -1.35253421       0.27869205
C        1.45856817      -0.09414526       0.36074877
C       -0.29930953       0.43363902      -0.69694004
C       -0.88755408      -0.81391575      -0.62771495
C       -0.78009693      -2.04731379      -0.45465776
C       -0.85171022       1.51831970       0.07359359
C       -1.21342805       2.43527906       0.75416921
H        0.58751224      -2.03419324       0.04435041
H        1.08504371       0.26387041       1.32962882
H        2.11450166       0.59903844      -0.17447912
H        0.01795358       0.72744671      -1.69660031
H       -1.39852100      -2.92463157      -0.48752715
H       -1.54433819       3.28914049       1.29673647
13
Frame=9 idx=008025 GeodesicLength=0.512342506152235 rxn_smarts="[O:1]([C:2]([C:3]([C:4]#[C:5][H:12])([C:6]#[C:7][H:13])[H:11])([H:9])[H:10])[H:8]>>[C:3](=[C:4]=[C:5]([H:8])[H:12])([C:6]#[C:7][H:13])[H:11].[O:1]=[C:2]([H:9])[H:10]"
O        1.72602848      -1.34696072       0.27005374
C        1.46369996      -0.08949885       0.36343702
C       -0.30007509       0.43111203      -0.69648857
C       -0.89702594      -0.81412916      -0.62408549
C       -0.78657236      -2.04862166      -0.45667934
C       -0.85515810       1.51868942       0.06930915
C       -1.21171488       2.43673898       0.75113111
H        0.60184546      -2.04730196       0.03575748
H        1.08727298       0.25063391       1.33810753
H        2.12152018       0.61443979      -0.15544883
H        0.00726206       0.72228833      -1.70031702
H       -1.41371484      -2.92006339      -0.48477124
H       -1.54336791       3.29267328       1.28999445
13
Frame=10 idx=008025 GeodesicLength=0.5692138440708632 rxn_smarts="[O:1]([C:2]([C:3]([C:4]#[C:5][H:12])([C:6]#[C:7][H:13])[H:11])([H:9])[H:10])[H:8]>>[C:3](=[C:4]=[C:5]([H:8])[H:12])([C:6]#[C:7][H:13])[H:11].[O:1]=[C:2]([H:9])[H:10]"
O        1.74101518      -1.34104598       0.26056946
C        1.46856940      -0.08490766       0.36653109
C       -0.30084655       0.42859592      -0.69611882
C       -0.90635895      -0.81440640      -0.62133512
C       -0.79278401      -2.04998291      -0.45973945
C       -0.85900937       1.51863207       0.06524979
C       -1.21134760       2.43761790       0.74800023
H        0.61727311      -2.06064317       0.02452522
H        1.08879658       0.23597554       1.34690224
H        2.12805775       0.63041004      -0.13464947
H       -0.00311898       0.71762082      -1.70377163
H       -1.42939734      -2.91506144      -0.47856271
H       -1.54084923       3.29719526       1.28239916
13
Frame=11 idx=008025 GeodesicLength=0.6260892505202575 rxn_smarts="[O:1]([C:2]([C:3]([C:4]#[C:5][H:12])([C:6]#[C:7][H:13])[H:11])([H:9])[H:10])[H:8]>>[C:3](=[C:4]=[C:5]([H:8])[H:12])([C:6]#[C:7][H:13])[H:11].[O:1]=[C:2]([H:9])[H:10]"
O        1.75625212      -1.33473765       0.25036747
C        1.47314081      -0.08035501       0.37002177
C       -0.30189003       0.42596421      -0.69553440
C       -0.91589079      -0.81481557      -0.61868555
C       -0.79907887      -2.05141724      -0.46268370
C       -0.86323296       1.51826850       0.06157895
C       -1.21195441       2.43826996       0.74481770
H        0.63369394      -2.07413868       0.01098018
H        1.08983052       0.22005973       1.35597555
H        2.13391458       0.64680290      -0.11234257
H       -0.01368780       0.71302151      -1.70683215
H       -1.44455685      -2.91013169      -0.47125153
H       -1.53654026       3.30320904       1.27358827
13
Frame=12 idx=008025 GeodesicLength=0.6830141437809468 rxn_smarts="[O:1]([C:2]([C:3]([C:4]#[C:5][H:12])([C:6]#[C:7][H:13])[H:11])([H:9])[H:10])[H:8]>>[C:3](=[C:4]=[C:5]([H:8])[H:12])([C:6]#[C:7][H:13])[H:11].[O:1]=[C:2]([H:9])[H:10]"
O        1.77157836      -1.32805621       0.23982625
C        1.47756528      -0.07576951       0.37373764
C       -0.30304915       0.42326599      -0.69492868
C       -0.92563636      -0.81521566      -0.61601427
C       -0.80554425      -2.05278736      -0.46535759
C       -0.86751555       1.51789121       0.05787897
C       -1.21271867       2.43904794       0.74135720
H        0.65067197      -2.08763323      -0.00380885
H        1.09075829       0.20346910       1.36502523
H        2.13936944       0.66326299      -0.08905866
H       -0.02430997       0.70829549      -1.70977794
H       -1.45949409      -2.90528006      -0.46338180
H       -1.53167531       3.30950932       1.26450251
13
Frame=13 idx=008025 GeodesicLength=0.7399619887042457 rxn_smarts="[O:1]([C:2]([C:3]([C:4]#[C:5][H:12])([C:6]#[C:7][H:13])[H:11])([H:9])[H:10])[H:8]>>[C:3](=[C:4]=[C:5]([H:8])[H:12])([C:6]#[C:7][H:13])[H:11].[O:1]=[C:2]([H:9])[H:10]"
O        1.78709743      -1.32091237       0.22863489
C        1.48168316      -0.07121549       0.37786162
C       -0.30439448       0.42049255      -0.69425123
C       -0.93552192      -0.81569474      -0.61365373
C       -0.81198838      -2.05418310      -0.46817482
C       -0.87213490       1.51724635       0.05437930
C       -1.21440863       2.43967386       0.73761574
H        0.66857535      -2.10111717      -0.02092317
H        1.09117651       0.18562591       1.37423852
H        2.14415926       0.68002783      -0.06416688
H       -0.03493003       0.70368885      -1.71244655
H       -1.47414008      -2.90040345      -0.45372899
H       -1.52517329       3.31677097       1.25461530
13
Frame=14 idx=008025 GeodesicLength=0.7969372042297439 rxn_smarts="[O:1]([C:2]([C:3]([C:4]#[C:5][H:12])([C:6]#[C:7][H:13])[H:11])([H:9])[H:10])[H:8]>>[C:3](=[C:4]=[C:5]([H:8])[H:12])([C:6]#[C:7][H:13])[H:11].[O:1]=[C:2]([H:9])[H:10]"
O        1.80265148      -1.31334212       0.21713192
C        1.48560002      -0.06665248       0.38224415
C       -0.30588065       0.41765557      -0.69356623
C       -0.94563778      -0.81616518      -0.61134600
C       -0.81857793      -2.05551565      -0.47078985
C       -0.87686014       1.51656742       0.05084915
C       -1.21632158       2.44043448       0.73354699
H        0.68701331      -2.11446712      -0.03938346
H        1.09145117       0.16704151       1.38337123
H        2.14845189       0.69674192      -0.03820950
H       -0.04558621       0.69898877      -1.71500057
H       -1.48837653      -2.89558061      -0.44331124
H       -1.51792704       3.32429350       1.24446341
13
Frame=15 idx=008025 GeodesicLength=0.8539149108609576 rxn_smarts="[O:1]([C:2]([C:3]([C:4]#[C:5][H:12])([C:6]#[C:7][H:13])[H:11])([H:9])[H:10])[H:8]>>[C:3](=[C:4]=[C:5]([H:8])[H:12])([C:6]#[C:7][H:13])[H:11].[O:1]=[C:2]([H:9])[H:10]"
O        1.81816499      -1.30536608       0.20547655
C        1.48936485      -0.06206446       0.38681195
C       -0.30747627       0.41476856      -0.69291378
C       -0.95599159      -0.81658373      -0.60904788
C       -0.82534425      -2.05674756      -0.47317960
C       -0.88161472       1.51592849       0.04719407
C       -1.21821732       2.44137966       0.72916836
H        0.70579951      -2.12762454      -0.05870277
H        1.09174118       0.14795601       1.39230152
H        2.15233888       0.71322584      -0.01144951
H       -0.05626412       0.69415358      -1.71750205
H       -1.50220141      -2.89080493      -0.43243375
H       -1.51029974       3.33177918       1.23427687
13
Frame=16 idx=008025 GeodesicLength=0.9108796374027476 rxn_smarts="[O:1]([C:2]([C:3]([C:4]#[C:5][H:12])([C:6]#[C:7][H:13])[H:11])([H:9])[H:10])[H:8]>>[C:3](=[C:4]=[C:5]([H:8])[H:12])([C:6]#[C:7][H:13])[H:11].[O:1]=[C:2]([H:9])[H:10]"
O        1.83359142      -1.29700226       0.19377655
C        1.49301554      -0.05743881       0.39150829
C       -0.30914776       0.41184700      -0.69233771
C       -0.96657153      -0.81691623      -0.60677361
C       -0.83230410      -2.05785231      -0.47538597
C       -0.88634813       1.51537376       0.04333962
C       -1.21996071       2.44250609       0.72450826
H        0.72480551      -2.14056504      -0.07850502
H        1.09215357       0.12854359       1.40094067
H        2.15589694       0.72935514       0.01592008
H       -0.06692831       0.68917896      -1.72000203
H       -1.51565283      -2.88604391      -0.42122421
H       -1.50254961       3.33901403       1.22423509
