15
Frame=0 idx=011672 GeodesicLength=0.0 rxn_smarts="[O:1]([C:2]([C@@:3]1([H:11])[C:4]([H:12])([H:13])[C@:5]1([C:6]#[C:7][H:15])[H:14])([H:9])[H:10])[H:8]>>[O:1]1[C:2]([H:9])([H:10])[C@@:3]2([H:11])[C:4]([H:12])([H:13])[C@@:5]2([H:14])[C:6]1=[C:7]([H:8])[H:15]"
O       -0.72621271      -0.41066035       1.36817809
C       -1.45096829       0.17590684       0.27208527
C       -0.71135251      -0.32295603      -0.96486135
C        0.46751518       0.44707551      -1.47655294
C        0.68026036      -0.71181421      -0.54040822
C        0.80246988      -0.36149141       0.89297162
C        1.37595137       0.24049715       1.88882750
H       -0.21461542       0.20330726       2.14518948
H       -1.42810389       1.26489310       0.36344533
H       -2.48015149      -0.17659426       0.31052873
H       -1.25746643      -0.95234644      -1.65430256
H        0.73150749       0.30797344      -2.51704278
H        0.64975336       1.43936393      -1.08465309
H        1.12931802      -1.62582633      -0.90372616
H        2.43209509       0.48267174       1.90032114
15
Frame=1 idx=011672 GeodesicLength=0.08204815507915365 rxn_smarts="[O:1]([C:2]([C@@:3]1([H:11])[C:4]([H:12])([H:13])[C@:5]1([C:6]#[C:7][H:15])[H:14])([H:9])[H:10])[H:8]>>[O:1]1[C:2]([H:9])([H:10])[C@@:3]2([H:11])[C:4]([H:12])([H:13])[C@@:5]2([H:14])[C:6]1=[C:7]([H:8])[H:15]"
O       -0.73771517      -0.39587986       1.37177696
C       -1.45459738       0.17818413       0.26639772
C       -0.71196600      -0.32703804      -0.96470819
C        0.45928643       0.44873468      -1.48371086
C        0.68400907      -0.70385908      -0.54257270
C        0.81049718      -0.34828412       0.88667134
C        1.38666071       0.22433011       1.89518121
H       -0.20385930       0.20583477       2.16561240
H       -1.43702876       1.26789164       0.35056370
H       -2.48351849      -0.17614795       0.30114312
H       -1.25367236      -0.96687642      -1.64806796
H        0.72319283       0.30610544      -2.52370403
H        0.63496775       1.44441217      -1.09732114
H        1.14015801      -1.61552037      -0.90263014
H        2.44358548       0.45811288       1.92536856
15
Frame=2 idx=011672 GeodesicLength=0.16416882530003024 rxn_smarts="[O:1]([C:2]([C@@:3]1([H:11])[C:4]([H:12])([H:13])[C@:5]1([C:6]#[C:7][H:15])[H:14])([H:9])[H:10])[H:8]>>[O:1]1[C:2]([H:9])([H:10])[C@@:3]2([H:11])[C:4]([H:12])([H:13])[C@@:5]2([H:14])[C:6]1=[C:7]([H:8])[H:15]"
O       -0.74927156      -0.38022012       1.37538861
C       -1.45827248       0.18059361       0.26058816
C       -0.71245802      -0.33119016      -0.96441895
C        0.45078656       0.45038820      -1.49124048
C        0.68796127      -0.69530340      -0.54470669
C        0.81891795      -0.33357786       0.88013043
C        1.39729888       0.20787421       1.90152318
H       -0.19274912       0.20772997       2.18664481
H       -1.44632892       1.27098408       0.33714041
H       -2.48680089      -0.17589486       0.29177094
H       -1.24951387      -0.98185081      -1.64129590
H        0.71453066       0.30388428      -2.53069863
H        0.61955390       1.44962762      -1.11087512
H        1.15139632      -1.60455423      -0.90124236
H        2.45494929       0.43150947       1.95129158
15
Frame=3 idx=011672 GeodesicLength=0.24638553123350715 rxn_smarts="[O:1]([C:2]([C@@:3]1([H:11])[C:4]([H:12])([H:13])[C@:5]1([C:6]#[C:7][H:15])[H:14])([H:9])[H:10])[H:8]>>[O:1]1[C:2]([H:9])([H:10])[C@@:3]2([H:11])[C:4]([H:12])([H:13])[C@@:5]2([H:14])[C:6]1=[C:7]([H:8])[H:15]"
O       -0.76088620      -0.36359873       1.37900898
C       -1.46199277       0.18315556       0.25465624
C       -0.71280358      -0.33540658      -0.96396453
C        0.44200551       0.45203136      -1.49916014
C        0.69213785      -0.68607185      -0.54677944
C        0.82775179      -0.31717485       0.87334348
C        1.40787268       0.19099571       1.90785708
H       -0.18127110       0.20890415       2.20831711
H       -1.45604542       1.27418056       0.32312609
H       -2.48998422      -0.17585078       0.28242287
H       -1.24492989      -0.99730331      -1.63391146
H        0.70552050       0.30125740      -2.53803175
H        0.60345246       1.45501797      -1.12539708
H        1.16307190      -1.59284589      -0.89949659
H        2.46610051       0.40270927       1.97800913
15
Frame=4 idx=011672 GeodesicLength=0.3287804853196772 rxn_smarts="[O:1]([C:2]([C@@:3]1([H:11])[C:4]([H:12])([H:13])[C@:5]1([C:6]#[C:7][H:15])[H:14])([H:9])[H:10])[H:8]>>[O:1]1[C:2]([H:9])([H:10])[C@@:3]2([H:11])[C:4]([H:12])([H:13])[C@@:5]2([H:14])[C:6]1=[C:7]([H:8])[H:15]"
O       -0.77251037      -0.34575975       1.38264623
C       -1.46580391       0.18584112       0.24856913
C       -0.71296858      -0.33974313      -0.96330496
C        0.43280687       0.45370849      -1.50758857
C        0.69662676      -0.67589207      -0.54874787
C        0.83705884      -0.29850326       0.86627128
C        1.41837514       0.17406758       1.91406781
H       -0.16941186       0.20958549       2.23060965
H       -1.46642766       1.27744380       0.30832503
H       -2.49304382      -0.17623343       0.27313581
H       -1.23975877      -1.01347249      -1.62573855
H        0.69603887       0.29814980      -2.54579392
H        0.58633055       1.46069802      -1.14118292
H        1.17541937      -1.58007616      -0.89723533
H        2.47726858       0.37018598       2.00596715
15
Frame=5 idx=011672 GeodesicLength=0.4114203078132277 rxn_smarts="[O:1]([C:2]([C@@:3]1([H:11])[C:4]([H:12])([H:13])[C@:5]1([C:6]#[C:7][H:15])[H:14])([H:9])[H:10])[H:8]>>[O:1]1[C:2]([H:9])([H:10])[C@@:3]2([H:11])[C:4]([H:12])([H:13])[C@@:5]2([H:14])[C:6]1=[C:7]([H:8])[H:15]"
O       -0.78422767      -0.32678396       1.38628310
C       -1.46965190       0.18873259       0.24236866
C       -0.71291279      -0.34412041      -0.96239593
C        0.42333448       0.45535418      -1.51641459
C        0.70138799      -0.66486958      -0.55055465
C        0.84681011      -0.27768676       0.85896782
C        1.42881403       0.15627097       1.92024121
H       -0.15715158       0.20932140       2.25364318
H       -1.47729920       1.28083056       0.29283777
H       -2.49596723      -0.17683874       0.26389407
H       -1.23399953      -1.03016553      -1.61677100
H        0.68625606       0.29450986      -2.55386492
H        0.56841959       1.46654560      -1.15808536
H        1.18828462      -1.56637692      -0.89444306
H        2.48790300       0.33527675       2.03429370
15
Frame=6 idx=011672 GeodesicLength=0.4943230640279528 rxn_smarts="[O:1]([C:2]([C@@:3]1([H:11])[C:4]([H:12])([H:13])[C@:5]1([C:6]#[C:7][H:15])[H:14])([H:9])[H:10])[H:8]>>[O:1]1[C:2]([H:9])([H:10])[C@@:3]2([H:11])[C:4]([H:12])([H:13])[C@@:5]2([H:14])[C:6]1=[C:7]([H:8])[H:15]"
O       -0.79600062      -0.30638636       1.38994035
C       -1.47358266       0.19181505       0.23602570
C       -0.71258036      -0.34858537      -0.96117042
C        0.41346645       0.45700158      -1.52573989
C        0.70651633      -0.65269779      -0.55212316
C        0.85706263      -0.25408492       0.85141281
C        1.43916137       0.13792587       1.92620598
H       -0.14449546       0.20826568       2.27739497
H       -1.48891042       1.28430495       0.27646362
H       -2.49872661      -0.17787478       0.25473623
H       -1.22744206      -1.04761944      -1.60677968
H        0.67608186       0.29023187      -2.56230501
H        0.54938397       1.47265509      -1.17640511
H        1.20191463      -1.55138837      -0.89092160
H        2.49815094       0.29643692       2.06326519
15
Frame=7 idx=011672 GeodesicLength=0.5775284812287587 rxn_smarts="[O:1]([C:2]([C@@:3]1([H:11])[C:4]([H:12])([H:13])[C@:5]1([C:6]#[C:7][H:15])[H:14])([H:9])[H:10])[H:8]>>[O:1]1[C:2]([H:9])([H:10])[C@@:3]2([H:11])[C:4]([H:12])([H:13])[C@@:5]2([H:14])[C:6]1=[C:7]([H:8])[H:15]"
O       -0.80793188      -0.28464395       1.39361019
C       -1.47754496       0.19518395       0.22958525
C       -0.71192630      -0.35304794      -0.95956665
C        0.40337054       0.45857597      -1.53542287
C        0.71196515      -0.63948588      -0.55336465
C        0.86778284      -0.22785720       0.84369442
C        1.44936586       0.11824318       1.93189633
H       -0.13144929       0.20582263       2.30198330
H       -1.50106197       1.28793063       0.25931429
H       -2.50131340      -0.17911369       0.24564284
H       -1.22007893      -1.06561844      -1.59573005
H        0.66572639       0.28525275      -2.57095296
H        0.52949787       1.47887631      -1.19595459
H        1.21613243      -1.53524999      -0.88664499
H        2.50746566       0.25513167       2.09191014
15
Frame=8 idx=011672 GeodesicLength=0.6611412662941958 rxn_smarts="[O:1]([C:2]([C@@:3]1([H:11])[C:4]([H:12])([H:13])[C@:5]1([C:6]#[C:7][H:15])[H:14])([H:9])[H:10])[H:8]>>[O:1]1[C:2]([H:9])([H:10])[C@@:3]2([H:11])[C:4]([H:12])([H:13])[C@@:5]2([H:14])[C:6]1=[C:7]([H:8])[H:15]"
O       -0.82006357      -0.26136625       1.39731381
C       -1.48157074       0.19883825       0.22303962
C       -0.71088640      -0.35751653      -0.95749804
C        0.39302425       0.46007513      -1.54545006
C        0.71778543      -0.62504357      -0.55416658
C        0.87897742      -0.19866111       0.83587066
C        1.45932746       0.09762733       1.93694845
H       -0.11804315       0.20189879       2.32743544
H       -1.51389162       1.29167300       0.24127829
H       -2.50371373      -0.18066365       0.23662279
H       -1.21172735      -1.08425538      -1.58343176
H        0.65523072       0.27948792      -2.57974653
H        0.50862622       1.48520261      -1.21681880
H        1.23107300      -1.51772779      -0.88144539
H        2.51585207       0.21043125       2.12004809
15
Frame=9 idx=011672 GeodesicLength=0.7436120143209379 rxn_smarts="[O:1]([C:2]([C@@:3]1([H:11])[C:4]([H:12])([H:13])[C@:5]1([C:6]#[C:7][H:15])[H:14])([H:9])[H:10])[H:8]>>[O:1]1[C:2]([H:9])([H:10])[C@@:3]2([H:11])[C:4]([H:12])([H:13])[C@@:5]2([H:14])[C:6]1=[C:7]([H:8])[H:15]"
O       -0.83231493      -0.23621622       1.40117263
C       -1.48562086       0.20293961       0.21642612
C       -0.70942150      -0.36195148      -0.95484100
C        0.38242547       0.46140398      -1.55582121
C        0.72399902      -0.60927370      -0.55446435
C        0.89072172      -0.16635007       0.82792094
C        1.46878576       0.07710154       1.94103539
H       -0.10414605       0.19496091       2.35332028
H       -1.52731530       1.29565096       0.22226650
H       -2.50590044      -0.18235685       0.22780923
H       -1.20233970      -1.10351347      -1.56963406
H        0.64457817       0.27273376      -2.58863695
H        0.48679480       1.49150129      -1.23909978
H        1.24675382      -1.49873582      -0.87522295
H        2.52300002       0.16210557       2.14776921
15
Frame=10 idx=011672 GeodesicLength=0.8258573461272942 rxn_smarts="[O:1]([C:2]([C@@:3]1([H:11])[C:4]([H:12])([H:13])[C@:5]1([C:6]#[C:7][H:15])[H:14])([H:9])[H:10])[H:8]>>[O:1]1[C:2]([H:9])([H:10])[C@@:3]2([H:11])[C:4]([H:12])([H:13])[C@@:5]2([H:14])[C:6]1=[C:7]([H:8])[H:15]"
O       -0.84505679      -0.20972622       1.40511788
C       -1.48962714       0.20756174       0.20983576
C       -0.70755275      -0.36617678      -0.95157940
C        0.37201613       0.46243906      -1.56608168
C        0.73038026      -0.59280240      -0.55415023
C        0.90280449      -0.13231111       0.82018273
C        1.47765765       0.05641416       1.94368666
H       -0.09000679       0.18392833       2.37992045
H       -1.54078147       1.29993543       0.20272884
H       -2.50794121      -0.18370094       0.21902605
H       -1.19216556      -1.12276042      -1.55460932
H        0.63430185       0.26512887      -2.59719511
H        0.46494371       1.49743338      -1.26187572
H        1.26257210      -1.47898704      -0.86817088
H        2.52845552       0.11362393       2.17316396
15
Frame=11 idx=011672 GeodesicLength=0.9075663110373113 rxn_smarts="[O:1]([C:2]([C@@:3]1([H:11])[C:4]([H:12])([H:13])[C@:5]1([C:6]#[C:7][H:15])[H:14])([H:9])[H:10])[H:8]>>[O:1]1[C:2]([H:9])([H:10])[C@@:3]2([H:11])[C:4]([H:12])([H:13])[C@@:5]2([H:14])[C:6]1=[C:7]([H:8])[H:15]"
O       -0.85845125      -0.18217422       1.40914970
C       -1.49349053       0.21287013       0.20336623
C       -0.70537627      -0.37003728      -0.94771832
C        0.36209499       0.46302883      -1.57594255
C        0.73671023      -0.57622967      -0.55326387
C        0.91513887      -0.09787196       0.81279666
C        1.48584637       0.03614997       1.94460053
H       -0.07573265       0.16684218       2.40696194
H       -1.55372784       1.30468943       0.18301798
H       -2.50987893      -0.18412031       0.21024790
H       -1.18160865      -1.14144586      -1.53858982
H        0.62466657       0.25672700      -2.60517030
H        0.44388790       1.50266826      -1.28447431
H        1.27795069      -1.45921941      -0.86057761
H        2.53197049       0.06812292       2.19559584
15
Frame=12 idx=011672 GeodesicLength=0.9887283792354911 rxn_smarts="[O:1]([C:2]([C@@:3]1([H:11])[C:4]([H:12])([H:13])[C@:5]1([C:6]#[C:7][H:15])[H:14])([H:9])[H:10])[H:8]>>[O:1]1[C:2]([H:9])([H:10])[C@@:3]2([H:11])[C:4]([H:12])([H:13])[C@@:5]2([H:14])[C:6]1=[C:7]([H:8])[H:15]"
O       -0.87250680      -0.15342201       1.41330863
C       -1.49721951       0.21889905       0.19703800
C       -0.70294125      -0.37352083      -0.94323430
C        0.35266814       0.46313098      -1.58536188
C        0.74294800      -0.55966894      -0.55183191
C        0.92770997      -0.06339701       0.80577025
C        1.49330773       0.01820604       1.94363810
H       -0.06146035       0.14266508       2.43399811
H       -1.56611200       1.30993829       0.16310646
H       -2.51173026      -0.18355935       0.20152872
H       -1.17078934      -1.15949945      -1.52154714
H        0.61564788       0.24751802      -2.61252246
H        0.42376639       1.50712801      -1.30677726
H        1.29282727      -1.43956903      -0.85247802
H        2.53388414       0.02515114       2.21536470
15
Frame=13 idx=011672 GeodesicLength=1.0685761314773297 rxn_smarts="[O:1]([C:2]([C@@:3]1([H:11])[C:4]([H:12])([H:13])[C@:5]1([C:6]#[C:7][H:15])[H:14])([H:9])[H:10])[H:8]>>[O:1]1[C:2]([H:9])([H:10])[C@@:3]2([H:11])[C:4]([H:12])([H:13])[C@@:5]2([H:14])[C:6]1=[C:7]([H:8])[H:15]"
O       -0.88717278      -0.12322940       1.41766596
C       -1.50074426       0.22588005       0.19093832
C       -0.70035795      -0.37653789      -0.93807686
C        0.34380170       0.46263078      -1.59429420
C        0.74898506      -0.54339717      -0.54990645
C        0.94055521      -0.02945005       0.79906043
C        1.50013878       0.00318633       1.94104004
H       -0.04723980       0.10912160       2.45991344
H       -1.57765586       1.31592156       0.14305321
H       -2.51350256      -0.18159448       0.19300930
H       -1.16004124      -1.17670202      -1.50343404
H        0.60719936       0.23738607      -2.61922733
H        0.40493113       1.51067321      -1.32866837
H        1.30689993      -1.42043447      -0.84397322
H        2.53420326      -0.01345410       2.23289976
15
Frame=14 idx=011672 GeodesicLength=1.1480614379240024 rxn_smarts="[O:1]([C:2]([C@@:3]1([H:11])[C:4]([H:12])([H:13])[C@:5]1([C:6]#[C:7][H:15])[H:14])([H:9])[H:10])[H:8]>>[O:1]1[C:2]([H:9])([H:10])[C@@:3]2([H:11])[C:4]([H:12])([H:13])[C@@:5]2([H:14])[C:6]1=[C:7]([H:8])[H:15]"
O       -0.90230617      -0.09136414       1.42225894
C       -1.50403789       0.23381630       0.18510735
C       -0.69765091      -0.37909792      -0.93220425
C        0.33542051       0.46152148      -1.60279310
C        0.75486378      -0.52738995      -0.54754604
C        0.95377297       0.00406648       0.79255133
C        1.50637068      -0.00821136       1.93709813
H       -0.03329910       0.06589415       2.48409347
H       -1.58844169       1.32263217       0.12274466
H       -2.51515082      -0.17832076       0.18483511
H       -1.14942570      -1.19309181      -1.48412905
H        0.59916688       0.22629601      -2.62533696
H        0.38730600       1.51333280      -1.35025537
H        1.32024846      -1.40179944      -0.83506579
H        2.53316300      -0.04828401       2.24864157
15
Frame=15 idx=011672 GeodesicLength=1.227473047300039 rxn_smarts="[O:1]([C:2]([C@@:3]1([H:11])[C:4]([H:12])([H:13])[C@:5]1([C:6]#[C:7][H:15])[H:14])([H:9])[H:10])[H:8]>>[O:1]1[C:2]([H:9])([H:10])[C@@:3]2([H:11])[C:4]([H:12])([H:13])[C@@:5]2([H:14])[C:6]1=[C:7]([H:8])[H:15]"
O       -0.91768657      -0.05759409       1.42716469
C       -1.50701998       0.24277597       0.17966869
C       -0.69485890      -0.38117753      -0.92554188
C        0.32746747       0.45977543      -1.61088539
C        0.76060931      -0.51169755      -0.54482646
C        0.96753464       0.03711237       0.78611043
C        1.51202413      -0.01611553       1.93220589
H       -0.01982834       0.01239654       2.50523736
H       -1.59842411       1.33012477       0.10219423
H       -2.51659955      -0.17368911       0.17726567
H       -1.13907985      -1.20863940      -1.46349211
H        0.59136779       0.21419253      -2.63089391
H        0.37089523       1.51510214      -1.37159356
H        1.33285157      -1.38375916      -0.82584135
H        2.53074715      -0.07880737       2.26322770
15
Frame=16 idx=011672 GeodesicLength=1.307519808778554 rxn_smarts="[O:1]([C:2]([C@@:3]1([H:11])[C:4]([H:12])([H:13])[C@:5]1([C:6]#[C:7][H:15])[H:14])([H:9])[H:10])[H:8]>>[O:1]1[C:2]([H:9])([H:10])[C@@:3]2([H:11])[C:4]([H:12])([H:13])[C@@:5]2([H:14])[C:6]1=[C:7]([H:8])[H:15]"
O       -0.93307823      -0.02210646       1.43243571
C       -1.50962375       0.25257652       0.17477170
C       -0.69198159      -0.38280359      -0.91806715
C        0.31985809       0.45746727      -1.61854447
C        0.76629371      -0.49635248      -0.54187668
C        0.98202160       0.06954907       0.77960871
C        1.51712903      -0.02112722       1.92669836
H       -0.00715933      -0.04974887       2.52215563
H       -1.60767019       1.33819972       0.08156523
H       -2.51776004      -0.16797832       0.17053267
H       -1.12902871      -1.22334005      -1.44153020
H        0.58362141       0.20125662      -2.63591295
H        0.35558796       1.51606061      -1.39256672
H        1.34479494      -1.36632105      -0.81653452
H        2.52699509      -0.10533178       2.27726466
