15
Frame=0 idx=010632 GeodesicLength=0.0 rxn_smarts="[O:1]=[C:2]1[C:3]([H:8])([H:9])[C:4]([H:10])([H:11])[C@@:5]2([H:12])[C:6]([H:13])([H:14])[C@@:7]12[H:15]>>[O-:1][C:2](=[C+:3][H:9])[C@@:7]1([H:15])[C@:5]([C:4]([H:8])([H:10])[H:11])([H:12])[C:6]1([H:13])[H:14]"
O       -0.04490132       2.77434198       0.27159110
C       -0.12519564       1.56934426       0.07598765
C       -1.32379825       1.21968709      -0.63754844
C       -0.96385533      -1.13398198       0.14310791
C        0.48961680      -0.85992454       0.42456731
C        1.35881712      -0.37691344      -0.68136111
C        0.92625860       0.58213738       0.40508234
H       -1.33768872      -0.44391084      -0.66959865
H       -2.20667463       1.29190498       0.00658871
H       -1.59291983      -1.03131965       1.02608863
H       -1.12168090      -2.12320701      -0.29213991
H        0.94869129      -1.49803290       1.17045963
H        0.91866638      -0.24683116      -1.66200993
H        2.40122119      -0.66408672      -0.68112748
H        1.67344323       0.94079260       1.10031218
15
Frame=1 idx=010632 GeodesicLength=0.06973726277201973 rxn_smarts="[O:1]=[C:2]1[C:3]([H:8])([H:9])[C:4]([H:10])([H:11])[C@@:5]2([H:12])[C:6]([H:13])([H:14])[C@@:7]12[H:15]>>[O-:1][C:2](=[C+:3][H:9])[C@@:7]1([H:15])[C@:5]([C:4]([H:8])([H:10])[H:11])([H:12])[C:6]1([H:13])[H:14]"
O       -0.05415404       2.77237896       0.26093109
C       -0.12217845       1.56531230       0.07382254
C       -1.32912810       1.20794936      -0.62067697
C       -0.96539651      -1.12441919       0.13995756
C        0.49015563      -0.85959898       0.42439102
C        1.36229828      -0.37891484      -0.67982365
C        0.93054959       0.58198593       0.40550035
H       -1.33940958      -0.44195668      -0.70143447
H       -2.20966852       1.29474716       0.02376000
H       -1.59030719      -1.02942337       1.02706568
H       -1.12403007      -2.11702100      -0.28768185
H        0.94603285      -1.49777906       1.17206555
H        0.92443026      -0.24711584      -1.66131798
H        2.40419666      -0.66792249      -0.67770309
H        1.67660921       0.94177774       1.10114422
15
Frame=2 idx=010632 GeodesicLength=0.13945811774644357 rxn_smarts="[O:1]=[C:2]1[C:3]([H:8])([H:9])[C:4]([H:10])([H:11])[C@@:5]2([H:12])[C:6]([H:13])([H:14])[C@@:7]12[H:15]>>[O-:1][C:2](=[C+:3][H:9])[C@@:7]1([H:15])[C@:5]([C:4]([H:8])([H:10])[H:11])([H:12])[C:6]1([H:13])[H:14]"
O       -0.06344544       2.77030399       0.24976638
C       -0.11920101       1.56131265       0.07140193
C       -1.33430557       1.19607369      -0.60369214
C       -0.96694319      -1.11489187       0.13697451
C        0.49066428      -0.85927435       0.42435496
C        1.36570937      -0.38097383      -0.67818830
C        0.93473908       0.58186174       0.40593407
H       -1.34113073      -0.43921845      -0.73244930
H       -2.21248598       1.29755038       0.04073724
H       -1.58738456      -1.02847039       1.02844217
H       -1.12644902      -2.11024137      -0.28434178
H        0.94338655      -1.49748477       1.17380041
H        0.93007469      -0.24766575      -1.66052697
H        2.40711009      -0.67176055      -0.67416769
H        1.67966143       0.94287888       1.10195452
15
Frame=3 idx=010632 GeodesicLength=0.2091452175049437 rxn_smarts="[O:1]=[C:2]1[C:3]([H:8])([H:9])[C:4]([H:10])([H:11])[C@@:5]2([H:12])[C:6]([H:13])([H:14])[C@@:7]12[H:15]>>[O-:1][C:2](=[C+:3][H:9])[C@@:7]1([H:15])[C@:5]([C:4]([H:8])([H:10])[H:11])([H:12])[C:6]1([H:13])[H:14]"
O       -0.07280546       2.76809988       0.23818566
C       -0.11628067       1.55733384       0.06877632
C       -1.33929865       1.18409115      -0.58663289
C       -0.96847782      -1.10543124       0.13420217
C        0.49115951      -0.85896203       0.42446175
C        1.36904438      -0.38309125      -0.67646905
C        0.93883355       0.58175971       0.40638436
H       -1.34288300      -0.43566188      -0.76266299
H       -2.21514436       1.30033060       0.05741864
H       -1.58417699      -1.02837738       1.03018775
H       -1.12891602      -2.10294149      -0.28204153
H        0.94079138      -1.49716170       1.17565934
H        0.93557706      -0.24848303      -1.65964900
H        2.40995939      -0.67559354      -0.67055591
H        1.68261769       0.94408835       1.10273538
15
Frame=4 idx=010632 GeodesicLength=0.27884897333364733 rxn_smarts="[O:1]=[C:2]1[C:3]([H:8])([H:9])[C:4]([H:10])([H:11])[C@@:5]2([H:12])[C:6]([H:13])([H:14])[C@@:7]12[H:15]>>[O-:1][C:2](=[C+:3][H:9])[C@@:7]1([H:15])[C@:5]([C:4]([H:8])([H:10])[H:11])([H:12])[C:6]1([H:13])[H:14]"
O       -0.08225644       2.76571443       0.22631253
C       -0.11342173       1.55335156       0.06598362
C       -1.34406320       1.17200264      -0.56953142
C       -0.96999513      -1.09604392       0.13168569
C        0.49164835      -0.85865345       0.42470915
C        1.37229102      -0.38525751      -0.67467272
C        0.94284253       0.58167440       0.40683987
H       -1.34469166      -0.43125959      -0.79213230
H       -2.21763085       1.30304350       0.07370623
H       -1.58071654      -1.02903612       1.03226824
H       -1.13142158      -2.09517591      -0.28068225
H        0.93827045      -1.49679033       1.17762530
H        0.94091081      -0.24956331      -1.65867102
H        2.41273245      -0.67939999      -0.66689644
H        1.68550154       0.94539362       1.10345553
15
Frame=5 idx=010632 GeodesicLength=0.348519775247591 rxn_smarts="[O:1]=[C:2]1[C:3]([H:8])([H:9])[C:4]([H:10])([H:11])[C@@:5]2([H:12])[C:6]([H:13])([H:14])[C@@:7]12[H:15]>>[O-:1][C:2](=[C+:3][H:9])[C@@:7]1([H:15])[C@:5]([C:4]([H:8])([H:10])[H:11])([H:12])[C:6]1([H:13])[H:14]"
O       -0.09181129       2.76316014       0.21417662
C       -0.11064486       1.54936451       0.06308093
C       -1.34859346       1.15985050      -0.55241689
C       -0.97147253      -1.08677074       0.12945177
C        0.49215057      -0.85837084       0.42510134
C        1.37544971      -0.38747739      -0.67281396
C        0.94677025       0.58160144       0.40731164
H       -1.34657953      -0.42598972      -0.82087881
H       -2.21998525       1.30572986       0.08953253
H       -1.57702359      -1.03039392       1.03465586
H       -1.13394551      -2.08700898      -0.28019572
H        0.93586252      -1.49640046       1.17970301
H        0.94606324      -0.25090133      -1.65761694
H        2.41543462      -0.68318292      -0.66321807
H        1.68832511       0.94678985       1.10412668
15
Frame=6 idx=010632 GeodesicLength=0.41817558912510566 rxn_smarts="[O:1]=[C:2]1[C:3]([H:8])([H:9])[C:4]([H:10])([H:11])[C@@:5]2([H:12])[C:6]([H:13])([H:14])[C@@:7]12[H:15]>>[O-:1][C:2](=[C+:3][H:9])[C@@:7]1([H:15])[C@:5]([C:4]([H:8])([H:10])[H:11])([H:12])[C:6]1([H:13])[H:14]"
O       -0.10147628       2.76041347       0.20183008
C       -0.10795692       1.54535833       0.06010618
C       -1.35287035       1.14764391      -0.53530721
C       -0.97290236      -1.07762577       0.12752900
C        0.49267466      -0.85811538       0.42563877
C        1.37851562      -0.38974586      -0.67089849
C        0.95062343       0.58153646       0.40779816
H       -1.34856915      -0.41982468      -0.84894905
H       -2.22221260       1.30837030       0.10484165
H       -1.57312369      -1.03238492       1.03732149
H       -1.13647654      -2.07848617      -0.28050982
H        0.93358747      -1.49598893       1.18188702
H        0.95101974      -0.25248824      -1.65648452
H        2.41806235      -0.68693186      -0.65953998
H        1.69110463       0.94826936       1.10473670
15
Frame=7 idx=010632 GeodesicLength=0.48782891041497967 rxn_smarts="[O:1]=[C:2]1[C:3]([H:8])([H:9])[C:4]([H:10])([H:11])[C@@:5]2([H:12])[C:6]([H:13])([H:14])[C@@:7]12[H:15]>>[O-:1][C:2](=[C+:3][H:9])[C@@:7]1([H:15])[C@:5]([C:4]([H:8])([H:10])[H:11])([H:12])[C:6]1([H:13])[H:14]"
O       -0.11126615       2.75746482       0.18933035
C       -0.10536733       1.54132701       0.05709769
C       -1.35688141       1.13539705      -0.51822698
C       -0.97427540      -1.06862356       0.12594464
C        0.49323227      -0.85789397       0.42632357
C        1.38148769      -0.39206282      -0.66893629
C        0.95440910       0.58147511       0.40829997
H       -1.35067687      -0.41273922      -0.87639241
H       -2.22433038       1.31095592       0.11957329
H       -1.56903859      -1.03494755       1.04024649
H       -1.13900547      -2.06964991      -0.28155006
H        0.93146921      -1.49556353       1.18417734
H        0.95576935      -0.25431717      -1.65528125
H        2.42061780      -0.69064571      -0.65588579
H        1.69385617       0.94982351       1.10527945
15
Frame=8 idx=010632 GeodesicLength=0.5574179270341915 rxn_smarts="[O:1]=[C:2]1[C:3]([H:8])([H:9])[C:4]([H:10])([H:11])[C@@:5]2([H:12])[C:6]([H:13])([H:14])[C@@:7]12[H:15]>>[O-:1][C:2](=[C+:3][H:9])[C@@:7]1([H:15])[C@:5]([C:4]([H:8])([H:10])[H:11])([H:12])[C:6]1([H:13])[H:14]"
O       -0.12116167       2.75428349       0.17669087
C       -0.10287951       1.53724336       0.05411230
C       -1.36062308       1.12312644      -0.50119384
C       -0.97557220      -1.05979163       0.12471093
C        0.49383528      -0.85771251       0.42714932
C        1.38435981      -0.39441726      -0.66692853
C        0.95813304       0.58140987       0.40882346
H       -1.35291870      -0.40472527      -0.90323311
H       -2.22636803       1.31349419       0.13366589
H       -1.56478506      -1.03803144       1.04340406
H       -1.14153192      -2.06052784      -0.28324012
H        0.92952950      -1.49512633       1.18655425
H        0.96029835      -0.25636794      -1.65399871
H        2.42309263      -0.69430073      -0.65226919
H        1.69659154       0.95144360       1.10575242
15
Frame=9 idx=010632 GeodesicLength=0.6270337792188971 rxn_smarts="[O:1]=[C:2]1[C:3]([H:8])([H:9])[C:4]([H:10])([H:11])[C@@:5]2([H:12])[C:6]([H:13])([H:14])[C@@:7]12[H:15]>>[O-:1][C:2](=[C+:3][H:9])[C@@:7]1([H:15])[C@:5]([C:4]([H:8])([H:10])[H:11])([H:12])[C:6]1([H:13])[H:14]"
O       -0.13118837       2.75087841       0.16395532
C       -0.10049596       1.53312245       0.05114696
C       -1.36408194       1.11081706      -0.48421292
C       -0.97680187      -1.05112118       0.12385251
C        0.49448360      -0.85756623       0.42812704
C        1.38713113      -0.39681713      -0.66488069
C        0.96180139       0.58134375       0.40936104
H       -1.35530681      -0.39572837      -0.92954054
H       -2.22830467       1.31592850       0.14712139
H       -1.56037881      -1.04160603       1.04677463
H       -1.14404402      -2.05114763      -0.28554615
H        0.92777241      -1.49466907       1.18903962
H        0.96459993      -0.25864611      -1.65264248
H        2.42548778      -0.69791981      -0.64869706
H        1.69932621       0.95313137       1.10614133
15
Frame=10 idx=010632 GeodesicLength=0.6966356807396683 rxn_smarts="[O:1]=[C:2]1[C:3]([H:8])([H:9])[C:4]([H:10])([H:11])[C@@:5]2([H:12])[C:6]([H:13])([H:14])[C@@:7]12[H:15]>>[O-:1][C:2](=[C+:3][H:9])[C@@:7]1([H:15])[C@:5]([C:4]([H:8])([H:10])[H:11])([H:12])[C:6]1([H:13])[H:14]"
O       -0.14134239       2.74723655       0.15114143
C       -0.09822561       1.52894938       0.04825561
C       -1.36726586       1.09849336      -0.46730846
C       -0.97794711      -1.04263641       0.12338429
C        0.49519352      -0.85746991       0.42925437
C        1.38980527      -0.39925860      -0.66280136
C        0.96542034       0.58126807       0.40992152
H       -1.35785136      -0.38573265      -0.95534954
H       -2.23018856       1.31827941       0.15987371
H       -1.55583561      -1.04562790       1.05035824
H       -1.14654009      -2.04153566      -0.28839406
H        0.92622519      -1.49421194       1.19162492
H        0.96867018      -0.26113506      -1.65122004
H        2.42781056      -0.70149251      -0.64519247
H        1.70207152       0.95487386       1.10645182
15
Frame=11 idx=010632 GeodesicLength=0.7662299339114373 rxn_smarts="[O:1]=[C:2]1[C:3]([H:8])([H:9])[C:4]([H:10])([H:11])[C@@:5]2([H:12])[C:6]([H:13])([H:14])[C@@:7]12[H:15]>>[O-:1][C:2](=[C+:3][H:9])[C@@:7]1([H:15])[C@:5]([C:4]([H:8])([H:10])[H:11])([H:12])[C:6]1([H:13])[H:14]"
O       -0.15163283       2.74334280       0.13830890
C       -0.09606923       1.52471658       0.04547052
C       -1.37016462       1.08615200      -0.45050824
C       -0.97900161      -1.03434247       0.12332728
C        0.49597370      -0.85742683       0.43053044
C        1.39237844      -0.40173942      -0.66069681
C        0.96899753       0.58117848       0.41050478
H       -1.36055829      -0.37471253      -0.98070476
H       -2.23203647       1.32052389       0.17185503
H       -1.55116287      -1.05004824       1.05415110
H       -1.14902502      -2.03170751      -0.29171308
H        0.92490446      -1.49375754       1.19430395
H        0.97249622      -0.26382868      -1.64973151
H        2.43005756      -0.70501296      -0.64177433
H        1.70484302       0.95666245       1.10667672
15
Frame=12 idx=010632 GeodesicLength=0.8358230387501437 rxn_smarts="[O:1]=[C:2]1[C:3]([H:8])([H:9])[C:4]([H:10])([H:11])[C@@:5]2([H:12])[C:6]([H:13])([H:14])[C@@:7]12[H:15]>>[O-:1][C:2](=[C+:3][H:9])[C@@:7]1([H:15])[C@:5]([C:4]([H:8])([H:10])[H:11])([H:12])[C:6]1([H:13])[H:14]"
O       -0.16207310       2.73919243       0.12551029
C       -0.09403057       1.52042283       0.04281918
C       -1.37277439       1.07379472      -0.43383871
C       -0.97996119      -1.02624755       0.12370142
C        0.49683290      -0.85744396       0.43195695
C        1.39485080      -0.40426060      -0.65857618
C        0.97253960       0.58107123       0.41111118
H       -1.36342861      -0.36263820      -1.00565386
H       -2.23386891       1.32264747       0.18300537
H       -1.54636845      -1.05482811       1.05815924
H       -1.15150161      -2.02168050      -0.29543763
H        0.92382708      -1.49331532       1.19707765
H        0.97607096      -0.26672076      -1.64818481
H        2.43223144      -0.70848278      -0.63846269
H        1.70765404       0.95848909       1.10681263
15
Frame=13 idx=010632 GeodesicLength=0.9053867236581454 rxn_smarts="[O:1]=[C:2]1[C:3]([H:8])([H:9])[C:4]([H:10])([H:11])[C@@:5]2([H:12])[C:6]([H:13])([H:14])[C@@:7]12[H:15]>>[O-:1][C:2](=[C+:3][H:9])[C@@:7]1([H:15])[C@:5]([C:4]([H:8])([H:10])[H:11])([H:12])[C:6]1([H:13])[H:14]"
O       -0.17265024       2.73475347       0.11276546
C       -0.09210784       1.51604600       0.04034132
C       -1.37509476       1.06141534      -0.41731924
C       -0.98081730      -1.01836150       0.12451673
C        0.49777895      -0.85752157       0.43352894
C        1.39721567      -0.40681288      -0.65643864
C        0.97605340       0.58093841       0.41174422
H       -1.36647001      -0.34948395      -1.03022179
H       -2.23570515       1.32463325       0.19326229
H       -1.54145609      -1.05993059       1.06237651
H       -1.15397692      -2.01145838      -0.29950555
H        0.92300876      -1.49288132       1.19992923
H        0.97937902      -0.26979479      -1.64656787
H        2.43432417      -0.71188346      -0.63526693
H        1.71051833       0.96034196       1.10685532
15
Frame=14 idx=010632 GeodesicLength=0.9749556554206841 rxn_smarts="[O:1]=[C:2]1[C:3]([H:8])([H:9])[C:4]([H:10])([H:11])[C@@:5]2([H:12])[C:6]([H:13])([H:14])[C@@:7]12[H:15]>>[O-:1][C:2](=[C+:3][H:9])[C@@:7]1([H:15])[C@:5]([C:4]([H:8])([H:10])[H:11])([H:12])[C:6]1([H:13])[H:14]"
O       -0.18337891       2.73004251       0.10009153
C       -0.09030706       1.51159929       0.03805307
C       -1.37713404       1.04901290      -0.40096245
C       -0.98156826      -1.01068964       0.12579152
C        0.49881922      -0.85766912       0.43525316
C        1.39947951      -0.40940284      -0.65429364
C        0.97954237       0.58077914       0.41240542
H       -1.36967621      -0.33519819      -1.05446598
H       -2.23756579       1.32646287       0.20260213
H       -1.53643001      -1.06534181       1.06681824
H       -1.15645052      -2.00105532      -0.30387458
H        0.92246141      -1.49247258       1.20287105
H        0.98242093      -0.27305248      -1.64489382
H        2.43634565      -0.71523209      -0.63220232
H        1.71344173       0.96221736       1.10680667
15
Frame=15 idx=010632 GeodesicLength=1.0445305239646885 rxn_smarts="[O:1]=[C:2]1[C:3]([H:8])([H:9])[C:4]([H:10])([H:11])[C@@:5]2([H:12])[C:6]([H:13])([H:14])[C@@:7]12[H:15]>>[O-:1][C:2](=[C+:3][H:9])[C@@:7]1([H:15])[C@:5]([C:4]([H:8])([H:10])[H:11])([H:12])[C:6]1([H:13])[H:14]"
O       -0.19425951       2.72504683       0.08750622
C       -0.08862536       1.50707668       0.03596903
C       -1.37890084       1.03657734      -0.38477803
C       -0.98220929      -1.00323911       0.12753243
C        0.49995761      -0.85788655       0.43713201
C        1.40163949      -0.41203147      -0.65214105
C        0.98301117       0.58059064       0.41309328
H       -1.37304185      -0.31973302      -1.07842756
H       -2.23946115       1.32810746       0.21100359
H       -1.53128944      -1.07104891       1.07148264
H       -1.15892694      -1.99046797      -0.30850702
H        0.92218985      -1.49208041       1.20590979
H        0.98518883      -0.27649486      -1.64315894
H        2.43829061      -0.71853270      -0.62927095
H        1.71643682       0.96411605       1.10665459
15
Frame=16 idx=010632 GeodesicLength=1.1141015032537194 rxn_smarts="[O:1]=[C:2]1[C:3]([H:8])([H:9])[C:4]([H:10])([H:11])[C@@:5]2([H:12])[C:6]([H:13])([H:14])[C@@:7]12[H:15]>>[O-:1][C:2](=[C+:3][H:9])[C@@:7]1([H:15])[C@:5]([C:4]([H:8])([H:10])[H:11])([H:12])[C:6]1([H:13])[H:14]"
O       -0.20529896       2.71975160       0.07508374
C       -0.08706323       1.50247058       0.03412266
C       -1.38038988       1.02410381      -0.36881065
C       -0.98273402      -0.99601570       0.12976200
C        0.50120377      -0.85817988       0.43916370
C        1.40369096      -0.41469800      -0.64999039
C        0.98646671       0.58036672       0.41380822
H       -1.37656813      -0.30305347      -1.10213884
H       -2.24141453       1.32954641       0.21836669
H       -1.52603725      -1.07700727       1.07639095
H       -1.16141259      -1.97970705      -0.31332517
H        0.92221561      -1.49171121       1.20903652
H        0.98767041      -0.28011147      -1.64136729
H        2.44015645      -0.72177793      -0.62650090
H        1.71951468       0.96602287       1.10639875
