15
Frame=0 idx=008168 GeodesicLength=0.0 rxn_smarts="[O:1]([C@@:2]12[C:3]([H:9])([H:10])[C@@:4]3([H:11])[C:5]([H:12])([H:13])[C@:6]1([H:14])[C@@:7]23[H:15])[H:8]>>[O:1]=[C:2]1[C:3]([H:9])([H:10])[C@@:4]2([H:11])[C:5]([H:12])([H:13])[C@:6]1([H:14])[C:7]2([H:8])[H:15]"
O        2.26919057       0.82825943      -0.15635223
C        1.08355696       0.34024519       0.17234891
C        0.71315931      -1.12809061       0.36058736
C       -0.65467691      -0.82658020      -0.28144058
C       -1.29175184       0.15612146       0.72256146
C       -0.16734194       1.10760568       0.33251204
C       -0.06428141       0.38499198      -1.06921281
H        1.46828888       0.53135196      -1.13636559
H        0.70181943      -1.47713477       1.39510540
H        1.35143989      -1.76013605      -0.25445387
H       -1.22283158      -1.63435549      -0.73211794
H       -2.25324020       0.53126058       0.37065767
H       -1.37189091      -0.15887953       1.76658583
H       -0.12405683       2.18293790       0.44264950
H       -0.43738335       0.92240242      -1.93306512
15
Frame=1 idx=008168 GeodesicLength=0.07832858337042511 rxn_smarts="[O:1]([C@@:2]12[C:3]([H:9])([H:10])[C@@:4]3([H:11])[C:5]([H:12])([H:13])[C@:6]1([H:14])[C@@:7]23[H:15])[H:8]>>[O:1]=[C:2]1[C:3]([H:9])([H:10])[C@@:4]2([H:11])[C:5]([H:12])([H:13])[C@:6]1([H:14])[C:7]2([H:8])[H:15]"
O        2.27348235       0.81931975      -0.14231250
C        1.08632863       0.33651086       0.17993489
C        0.71203372      -1.13101523       0.36212820
C       -0.65396298      -0.82641767      -0.28194691
C       -1.29075585       0.15714718       0.72144501
C       -0.16636136       1.10805217       0.32914747
C       -0.06504114       0.38618254      -1.06938568
H        1.47489839       0.56016855      -1.15083348
H        0.70063167      -1.48320669       1.39562674
H        1.34875915      -1.76442138      -0.25337182
H       -1.22313476      -1.63449867      -0.73092355
H       -2.25274940       0.53084053       0.36935992
H       -1.36867561      -0.15463349       1.76656577
H       -0.12372731       2.18356009       0.43859527
H       -0.45172551       0.91241146      -1.93402933
15
Frame=2 idx=008168 GeodesicLength=0.15660182217669505 rxn_smarts="[O:1]([C@@:2]12[C:3]([H:9])([H:10])[C@@:4]3([H:11])[C:5]([H:12])([H:13])[C@:6]1([H:14])[C@@:7]23[H:15])[H:8]>>[O:1]=[C:2]1[C:3]([H:9])([H:10])[C@@:4]2([H:11])[C:5]([H:12])([H:13])[C@:6]1([H:14])[C:7]2([H:8])[H:15]"
O        2.27755493       0.80991562      -0.12932857
C        1.08912604       0.33263903       0.18782975
C        0.71085503      -1.13405054       0.36385280
C       -0.65319536      -0.82630020      -0.28243463
C       -1.28976542       0.15817201       0.72026664
C       -0.16527312       1.10840894       0.32583274
C       -0.06562594       0.38728993      -1.06953853
H        1.48123381       0.59052959      -1.16518266
H        0.69927606      -1.48938012       1.39632354
H        1.34602642      -1.76886119      -0.25205370
H       -1.22338236      -1.63466618      -0.72974337
H       -2.25220204       0.53047690       0.36789750
H       -1.36561721      -0.15038084       1.76646008
H       -0.12323259       2.18408596       0.43463939
H       -0.46577827       0.90212108      -1.93482096
15
Frame=3 idx=008168 GeodesicLength=0.23485267132566956 rxn_smarts="[O:1]([C@@:2]12[C:3]([H:9])([H:10])[C@@:4]3([H:11])[C:5]([H:12])([H:13])[C@:6]1([H:14])[C@@:7]23[H:15])[H:8]>>[O:1]=[C:2]1[C:3]([H:9])([H:10])[C@@:4]2([H:11])[C:5]([H:12])([H:13])[C@:6]1([H:14])[C:7]2([H:8])[H:15]"
O        2.28139566       0.80003698      -0.11752096
C        1.09195388       0.32861878       0.19606186
C        0.70961878      -1.13720396       0.36578238
C       -0.65236735      -0.82623186      -0.28290189
C       -1.28878243       0.15919371       0.71902056
C       -0.16406822       1.10866728       0.32257678
C       -0.06601751       0.38830955      -1.06966448
H        1.48724072       0.62250229      -1.17940515
H        0.69773928      -1.49565539       1.39721922
H        1.34323557      -1.77347526      -0.25046692
H       -1.22356555      -1.63485997      -0.72858255
H       -2.25159404       0.53017189       0.36625234
H       -1.36273292      -0.14612402       1.76626263
H       -0.12256702       2.18450575       0.43080123
H       -0.47948886       0.89154422      -1.93543506
15
Frame=4 idx=008168 GeodesicLength=0.3131172200330004 rxn_smarts="[O:1]([C@@:2]12[C:3]([H:9])([H:10])[C@@:4]3([H:11])[C:5]([H:12])([H:13])[C@:6]1([H:14])[C@@:7]23[H:15])[H:8]>>[O:1]=[C:2]1[C:3]([H:9])([H:10])[C@@:4]2([H:11])[C:5]([H:12])([H:13])[C@:6]1([H:14])[C:7]2([H:8])[H:15]"
O        2.28499013       0.78967655      -0.10701304
C        1.09481591       0.32443938       0.20466152
C        0.70832037      -1.14048258       0.36793899
C       -0.65147155      -0.82621632      -0.28334672
C       -1.28780866       0.16021011       0.71770069
C       -0.16273697       1.10881856       0.31938936
C       -0.06619678       0.38923776      -1.06975586
H        1.49286195       0.65614712      -1.19349392
H        0.69600771      -1.50203279       1.39833694
H        1.34038075      -1.77828282      -0.24857774
H       -1.22367486      -1.63508131      -0.72744669
H       -2.25092078       0.52992810       0.36440556
H       -1.36004062      -0.14186595       1.76596686
H       -0.12172402       2.18480948       0.42710194
H       -0.49280260       0.88069470      -1.93586789
15
Frame=5 idx=008168 GeodesicLength=0.3913950274773196 rxn_smarts="[O:1]([C@@:2]12[C:3]([H:9])([H:10])[C@@:4]3([H:11])[C:5]([H:12])([H:13])[C@:6]1([H:14])[C@@:7]23[H:15])[H:8]>>[O:1]=[C:2]1[C:3]([H:9])([H:10])[C@@:4]2([H:11])[C:5]([H:12])([H:13])[C@:6]1([H:14])[C:7]2([H:8])[H:15]"
O        2.28831813       0.77882830      -0.09793435
C        1.09771981       0.32008999       0.21365656
C        0.70695543      -1.14389378       0.37034467
C       -0.65049963      -0.82625719      -0.28376806
C       -1.28684448       0.16121920       0.71630047
C       -0.16126757       1.10885353       0.31627985
C       -0.06614325       0.39007083      -1.06980584
H        1.49803785       0.69152061      -1.20742804
H        0.69406785      -1.50851161       1.39970147
H        1.33745430      -1.78330649      -0.24635119
H       -1.22369991      -1.63533124      -0.72634238
H       -2.25017619       0.52974854       0.36233767
H       -1.35755656      -0.13760879       1.76556595
H       -0.12069916       2.18498727       0.42356173
H       -0.50566662       0.86959082      -1.93611852
15
Frame=6 idx=008168 GeodesicLength=0.4696929142803259 rxn_smarts="[O:1]([C@@:2]12[C:3]([H:9])([H:10])[C@@:4]3([H:11])[C:5]([H:12])([H:13])[C@:6]1([H:14])[C@@:7]23[H:15])[H:8]>>[O:1]=[C:2]1[C:3]([H:9])([H:10])[C@@:4]2([H:11])[C:5]([H:12])([H:13])[C@:6]1([H:14])[C:7]2([H:8])[H:15]"
O        2.29135142       0.76748462      -0.09041326
C        1.10067356       0.31556022       0.22307662
C        0.70552042      -1.14744346       0.37302158
C       -0.64944187      -0.82635729      -0.28416515
C       -1.28588903       0.16221942       0.71481291
C       -0.15964697       1.10876303       0.31325776
C       -0.06583581       0.39080605      -1.06980783
H        1.50270495       0.72867394      -1.22118732
H        0.69190594      -1.51509076       1.40133703
H        1.33444933      -1.78856791      -0.24375165
H       -1.22362933      -1.63560995      -0.72527691
H       -2.24935269       0.52963690       0.36002897
H       -1.35529615      -0.13335431       1.76505274
H       -0.11948689       2.18502922       0.42020189
H       -0.51802688       0.85825028      -1.93618735
15
Frame=7 idx=008168 GeodesicLength=0.5480538900681928 rxn_smarts="[O:1]([C@@:2]12[C:3]([H:9])([H:10])[C@@:4]3([H:11])[C:5]([H:12])([H:13])[C@:6]1([H:14])[C@@:7]23[H:15])[H:8]>>[O:1]=[C:2]1[C:3]([H:9])([H:10])[C@@:4]2([H:11])[C:5]([H:12])([H:13])[C@:6]1([H:14])[C:7]2([H:8])[H:15]"
O        2.29405873       0.75564705      -0.08458132
C        1.10368216       0.31084093       0.23296107
C        0.70401120      -1.15113788       0.37599309
C       -0.64828760      -0.82651813      -0.28453635
C       -1.28494204       0.16320912       0.71323166
C       -0.15786236       1.10853928       0.31033570
C       -0.06525060       0.39144313      -1.06975134
H        1.50680797       0.76763832      -1.23476715
H        0.68950631      -1.52177341       1.40326676
H        1.33135998      -1.79408570      -0.24074341
H       -1.22344952      -1.63591585      -0.72425834
H       -2.24844263       0.52959685       0.35745927
H       -1.35327690      -0.12910582       1.76441929
H       -0.11808407       2.18492744       0.41704528
H       -0.52983063       0.84669468      -1.93607420
15
Frame=8 idx=008168 GeodesicLength=0.6264347107973098 rxn_smarts="[O:1]([C@@:2]12[C:3]([H:9])([H:10])[C@@:4]3([H:11])[C:5]([H:12])([H:13])[C@:6]1([H:14])[C@@:7]23[H:15])[H:8]>>[O:1]=[C:2]1[C:3]([H:9])([H:10])[C@@:4]2([H:11])[C:5]([H:12])([H:13])[C@:6]1([H:14])[C:7]2([H:8])[H:15]"
O        2.29639392       0.74331149      -0.08057151
C        1.10675534       0.30592461       0.24333592
C        0.70242417      -1.15498064       0.37928044
C       -0.64702440      -0.82674095      -0.28488206
C       -1.28399898       0.16418727       0.71154840
C       -0.15589803       1.10817366       0.30752374
C       -0.06436615       0.39198223      -1.06963023
H        1.51028554       0.80844033      -1.24812973
H        0.68685529      -1.52855566       1.40551314
H        1.32817742      -1.79988201      -0.23728979
H       -1.22314515      -1.63624817      -0.72329478
H       -2.24743375       0.52963245       0.35460894
H       -1.35150937      -0.12486450       1.76365565
H       -0.11648788       2.18467304       0.41411508
H       -0.54102798       0.83494685      -1.93578321
15
Frame=9 idx=008168 GeodesicLength=0.7044983934390217 rxn_smarts="[O:1]([C@@:2]12[C:3]([H:9])([H:10])[C@@:4]3([H:11])[C:5]([H:12])([H:13])[C@:6]1([H:14])[C@@:7]23[H:15])[H:8]>>[O:1]=[C:2]1[C:3]([H:9])([H:10])[C@@:4]2([H:11])[C:5]([H:12])([H:13])[C@:6]1([H:14])[C:7]2([H:8])[H:15]"
O        2.29817514       0.73044500      -0.07836280
C        1.10995858       0.30081720       0.25412715
C        0.70077384      -1.15895727       0.38287561
C       -0.64563308      -0.82702139      -0.28521952
C       -1.28303051       0.16515931       0.70975448
C       -0.15371921       1.10765622       0.30480128
C       -0.06318137       0.39242828      -1.06947918
H        1.51307275       0.85101972      -1.26110507
H        0.68397267      -1.53539898       1.40808471
H        1.32489345      -1.80598171      -0.23338078
H       -1.22270105      -1.63660635      -0.72239340
H       -2.24629919       0.52975282       0.35147783
H       -1.34995154      -0.12061269       1.76276081
H       -0.11469431       2.18425867       0.41140288
H       -0.55163618       0.82304116      -1.93534400
15
Frame=10 idx=008168 GeodesicLength=0.7825561465427594 rxn_smarts="[O:1]([C@@:2]12[C:3]([H:9])([H:10])[C@@:4]3([H:11])[C:5]([H:12])([H:13])[C@:6]1([H:14])[C@@:7]23[H:15])[H:8]>>[O:1]=[C:2]1[C:3]([H:9])([H:10])[C@@:4]2([H:11])[C:5]([H:12])([H:13])[C@:6]1([H:14])[C:7]2([H:8])[H:15]"
O        2.29942633       0.71710799      -0.07816789
C        1.11325868       0.29550079       0.26545226
C        0.69904488      -1.16308410       0.38681512
C       -0.64410813      -0.82736128      -0.28553471
C       -1.28205137       0.16612094       0.70784806
C       -0.15132693       1.10698391       0.30220348
C       -0.06166274       0.39278333      -1.06925676
H        1.51514835       0.89538794      -1.27379912
H        0.68082138      -1.54233658       1.41100385
H        1.32150601      -1.81238934      -0.22897494
H       -1.22210494      -1.63698387      -0.72156314
H       -2.24504054       0.52995985       0.34803986
H       -1.34865141      -0.11636658       1.76172454
H       -0.11270542       2.18367893       0.40895065
H       -0.56155416       0.81099807      -1.93474127
15
Frame=11 idx=008168 GeodesicLength=0.8606383273897308 rxn_smarts="[O:1]([C@@:2]12[C:3]([H:9])([H:10])[C@@:4]3([H:11])[C:5]([H:12])([H:13])[C@:6]1([H:14])[C@@:7]23[H:15])[H:8]>>[O:1]=[C:2]1[C:3]([H:9])([H:10])[C@@:4]2([H:11])[C:5]([H:12])([H:13])[C@:6]1([H:14])[C:7]2([H:8])[H:15]"
O        2.30006183       0.70333507      -0.08003184
C        1.11667111       0.28997002       0.27732997
C        0.69723841      -1.16736103       0.39110756
C       -0.64243938      -0.82775826      -0.28582914
C       -1.28105325       0.16707357       0.70582708
C       -0.14870457       1.10615189       0.29973565
C       -0.05979878       0.39305269      -1.06896124
H        1.51648554       0.94148041      -1.28620917
H        0.67739610      -1.54936900       1.41427952
H        1.31801372      -1.81911174      -0.22405706
H       -1.22134742      -1.63737591      -0.72081071
H       -2.24364613       0.53025925       0.34428862
H       -1.34760715      -0.11212512       1.76054590
H       -0.11052077       2.18292890       0.40676935
H       -0.57074926       0.79884925      -1.93398448
15
Frame=12 idx=008168 GeodesicLength=0.9387198378782367 rxn_smarts="[O:1]([C@@:2]12[C:3]([H:9])([H:10])[C@@:4]3([H:11])[C:5]([H:12])([H:13])[C@:6]1([H:14])[C@@:7]23[H:15])[H:8]>>[O:1]=[C:2]1[C:3]([H:9])([H:10])[C@@:4]2([H:11])[C:5]([H:12])([H:13])[C@:6]1([H:14])[C:7]2([H:8])[H:15]"
O        2.29998244       0.68917147      -0.08397509
C        1.12021318       0.28422101       0.28976551
C        0.69535630      -1.17178541       0.39575510
C       -0.64061706      -0.82820902      -0.28610594
C       -1.28002422       0.16801932       0.70369016
C       -0.14583442       1.10515608       0.29739987
C       -0.05758431       0.39324320      -1.06859518
H        1.51706822       0.98920303      -1.29831400
H        0.67369541      -1.55649336       1.41791422
H        1.31441492      -1.82615334      -0.21861837
H       -1.22041991      -1.63777747      -0.72014162
H       -2.24210176       0.53065698       0.34022295
H       -1.34680741      -0.10788554       1.75922424
H       -0.10814195       2.18200529       0.40486487
H       -0.57919943       0.78662775      -1.93308673
15
Frame=13 idx=008168 GeodesicLength=1.0167936235109716 rxn_smarts="[O:1]([C@@:2]12[C:3]([H:9])([H:10])[C@@:4]3([H:11])[C:5]([H:12])([H:13])[C@:6]1([H:14])[C@@:7]23[H:15])[H:8]>>[O:1]=[C:2]1[C:3]([H:9])([H:10])[C@@:4]2([H:11])[C:5]([H:12])([H:13])[C@:6]1([H:14])[C:7]2([H:8])[H:15]"
O        2.29907890       0.67468100      -0.08997941
C        1.12390035       0.27824903       0.30275940
C        0.69340106      -1.17635419       0.40075412
C       -0.63863311      -0.82870976      -0.28636781
C       -1.27895054       0.16896124       0.70143825
C       -0.14269906       1.10399333       0.29519593
C       -0.05502010       0.39336230      -1.06816277
H        1.51689994       1.03843354      -1.31010603
H        0.66972049      -1.56370926       1.42190278
H        1.31070990      -1.83351271      -0.21266012
H       -1.21931666      -1.63818340      -0.71955848
H       -2.24039303       0.53115948       0.33584765
H       -1.34623486      -0.10364365       1.75776088
H       -0.10557067       2.18090571       0.40323749
H       -0.58689260       0.77436735      -1.93206190
15
Frame=14 idx=008168 GeodesicLength=1.0948505927467247 rxn_smarts="[O:1]([C@@:2]12[C:3]([H:9])([H:10])[C@@:4]3([H:11])[C:5]([H:12])([H:13])[C@:6]1([H:14])[C@@:7]23[H:15])[H:8]>>[O:1]=[C:2]1[C:3]([H:9])([H:10])[C@@:4]2([H:11])[C:5]([H:12])([H:13])[C@:6]1([H:14])[C:7]2([H:8])[H:15]"
O        2.29726059       0.65994407      -0.09794198
C        1.12774286       0.27205658       0.31629283
C        0.69137726      -1.18105973       0.40608669
C       -0.63648499      -0.82925530      -0.28661808
C       -1.27781693       0.16990279       0.69907662
C       -0.13928721       1.10266567       0.29311631
C       -0.05212208       0.39341960      -1.06767420
H        1.51600885       1.08899348      -1.32158759
H        0.66548134      -1.57101576       1.42622510
H        1.30690350      -1.84117429      -0.20620503
H       -1.21803959      -1.63858848      -0.71905957
H       -2.23850826       0.53177011       0.33118100
H       -1.34585949      -0.09939460       1.75616221
H       -0.10281445       2.17963384       0.40187285
H       -0.59384138       0.76210202      -1.93092717
15
Frame=15 idx=008168 GeodesicLength=1.1728852213360619 rxn_smarts="[O:1]([C@@:2]12[C:3]([H:9])([H:10])[C@@:4]3([H:11])[C:5]([H:12])([H:13])[C@:6]1([H:14])[C@@:7]23[H:15])[H:8]>>[O:1]=[C:2]1[C:3]([H:9])([H:10])[C@@:4]2([H:11])[C:5]([H:12])([H:13])[C@:6]1([H:14])[C:7]2([H:8])[H:15]"
O        2.29443625       0.64505820      -0.10771387
C        1.13174796       0.26564514       0.33033877
C        0.68928976      -1.18589469       0.41172775
C       -0.63417345      -0.82984070      -0.28685972
C       -1.27660683       0.17084819       0.69661321
C       -0.13558988       1.10117608       0.29114984
C       -0.04891383       0.39342381      -1.06714221
H        1.51444320       1.14068478      -1.33277318
H        0.66099172      -1.57841443       1.43085224
H        1.30300234      -1.84911691      -0.19928760
H       -1.21659563      -1.63898790      -0.71863923
H       -2.23643665       0.53249195       0.32624880
H       -1.34564434      -0.09513200       1.75443754
H       -0.09988090       2.17819441       0.40074815
H       -0.60006973       0.74986408      -1.92970050
15
Frame=16 idx=008168 GeodesicLength=1.2508689219666216 rxn_smarts="[O:1]([C@@:2]12[C:3]([H:9])([H:10])[C@@:4]3([H:11])[C:5]([H:12])([H:13])[C@:6]1([H:14])[C@@:7]23[H:15])[H:8]>>[O:1]=[C:2]1[C:3]([H:9])([H:10])[C@@:4]2([H:11])[C:5]([H:12])([H:13])[C@:6]1([H:14])[C:7]2([H:8])[H:15]"
O        2.29052753       0.63013284      -0.11907905
C        1.13592295       0.25901898       0.34485181
C        0.68714543      -1.19084975       0.41764079
C       -0.63170418      -0.83046120      -0.28709648
C       -1.27530233       0.17180257       0.69405913
C       -0.13160056       1.09952999       0.28927748
C       -0.04543075       0.39338272      -1.06658660
H        1.51226530       1.19328248      -1.34367532
H        0.65627247      -1.58590630       1.43574525
H        1.29901597      -1.85731171      -0.19196040
H       -1.21499947      -1.63937817      -0.71828773
H       -2.23416990       0.53332702       0.32108641
H       -1.34554174      -0.09084688       1.75260073
H       -0.09677939       2.17659534       0.39982650
H       -0.60562134       0.73768207      -1.92840252
