10
Frame=0 idx=001543 GeodesicLength=0.0 rxn_smarts="[C:1]([C:2]([C:3](=[O:4])[H:10])([H:8])[H:9])([H:5])([H:6])[H:7]>>[C:1]([C:2]([H:6])([H:8])[H:9])([O+:4]=[C-:3][H:10])([H:5])[H:7]"
C       -0.82714379       0.52311411       0.14460305
C       -0.40487755      -0.82261172      -0.07339486
C        1.66707122       0.16601794      -0.12724201
O        1.12847740       1.23736705       0.06346960
H       -1.03053730       0.86522171       1.14861101
H       -1.65423790      -0.64726169       0.06230999
H       -1.19389320       1.11073062      -0.68397102
H       -0.14853720      -1.46204193       0.75694968
H       -0.31279696      -1.21648232      -1.07367619
H        2.77647528       0.24594623      -0.21765925
10
Frame=1 idx=001543 GeodesicLength=0.049176884978208955 rxn_smarts="[C:1]([C:2]([C:3](=[O:4])[H:10])([H:8])[H:9])([H:5])([H:6])[H:7]>>[C:1]([C:2]([H:6])([H:8])[H:9])([O+:4]=[C-:3][H:10])([H:5])[H:7]"
C       -0.82753870       0.52578204       0.14513074
C       -0.39389771      -0.82018128      -0.07497832
C        1.65385867       0.16346485      -0.13642785
O        1.12016868       1.23825327       0.06022314
H       -1.02631319       0.86665549       1.15087429
H       -1.65359006      -0.64605782       0.06490164
H       -1.19472069       1.11256370      -0.68431603
H       -0.13636232      -1.45946274       0.75586209
H       -0.30650771      -1.21450612      -1.07613705
H        2.76490303       0.23348862      -0.20513265
10
Frame=2 idx=001543 GeodesicLength=0.09834745128962573 rxn_smarts="[C:1]([C:2]([C:3](=[O:4])[H:10])([H:8])[H:9])([H:5])([H:6])[H:7]>>[C:1]([C:2]([H:6])([H:8])[H:9])([O+:4]=[C-:3][H:10])([H:5])[H:7]"
C       -0.82787535       0.52836471       0.14562528
C       -0.38300176      -0.81783735      -0.07646929
C        1.64100786       0.16093523      -0.14456020
O        1.11198178       1.23905591       0.05764790
H       -1.02236162       0.86806493       1.15299854
H       -1.65318598      -0.64471725       0.06721996
H       -1.19516843       1.11435875      -0.68480715
H       -0.12453499      -1.45693863       0.75497170
H       -0.29991589      -1.21260770      -1.07845403
H        2.75305438       0.22132140      -0.19417270
10
Frame=3 idx=001543 GeodesicLength=0.1475186103715423 rxn_smarts="[C:1]([C:2]([C:3](=[O:4])[H:10])([H:8])[H:9])([H:5])([H:6])[H:7]>>[C:1]([C:2]([H:6])([H:8])[H:9])([O+:4]=[C-:3][H:10])([H:5])[H:7]"
C       -0.82814727       0.53086137       0.14611073
C       -0.37219455      -0.81556022      -0.07801476
C        1.62841727       0.15855433      -0.15264466
O        1.10384119       1.23987761       0.05496986
H       -1.01828501       0.86944292       1.15508587
H       -1.65298435      -0.64328762       0.06962626
H       -1.19559846       1.11609000      -0.68526779
H       -0.11270654      -1.45443586       0.75402626
H       -0.29340907      -1.21076662      -1.08080720
H        2.74106680       0.20922409      -0.18308456
10
Frame=4 idx=001543 GeodesicLength=0.19668338969527213 rxn_smarts="[C:1]([C:2]([C:3](=[O:4])[H:10])([H:8])[H:9])([H:5])([H:6])[H:7]>>[C:1]([C:2]([H:6])([H:8])[H:9])([O+:4]=[C-:3][H:10])([H:5])[H:7]"
C       -0.82837330       0.53327513       0.14657251
C       -0.36148331      -0.81336635      -0.07952169
C        1.61613183       0.15621749      -0.16010944
O        1.09579062       1.24064490       0.05263841
H       -1.01433340       0.87079277       1.15708144
H       -1.65303269      -0.64173768       0.07191280
H       -1.19580993       1.11777875      -0.68580499
H       -0.10108911      -1.45198082       0.75318294
H       -0.28677080      -1.20899402      -1.08309154
H        2.72897008       0.19736982      -0.17286045
10
Frame=5 idx=001543 GeodesicLength=0.24584659162801728 rxn_smarts="[C:1]([C:2]([C:3](=[O:4])[H:10])([H:8])[H:9])([H:5])([H:6])[H:7]>>[C:1]([C:2]([H:6])([H:8])[H:9])([O+:4]=[C-:3][H:10])([H:5])[H:7]"
C       -0.82855805       0.53560741       0.14700594
C       -0.35087260      -0.81126304      -0.08096021
C        1.60415372       0.15387889      -0.16681212
O        1.08784247       1.24132713       0.05077585
H       -1.01057370       0.87211638       1.15897074
H       -1.65334706      -0.64005452       0.07402074
H       -1.19574307       1.11943029      -0.68644601
H       -0.08974516      -1.44958125       0.75248626
H       -0.27994843      -1.20729566      -1.08527584
H        2.71679188       0.18583437      -0.16376534
10
Frame=6 idx=001543 GeodesicLength=0.2950168381736238 rxn_smarts="[C:1]([C:2]([C:3](=[O:4])[H:10])([H:8])[H:9])([H:5])([H:6])[H:7]>>[C:1]([C:2]([H:6])([H:8])[H:9])([O+:4]=[C-:3][H:10])([H:5])[H:7]"
C       -0.82870116       0.53785968       0.14742605
C       -0.34035866      -0.80923694      -0.08241323
C        1.59243689       0.15160272      -0.17327550
O        1.07995713       1.24198044       0.04896012
H       -1.00679382       0.87340808       1.16081635
H       -1.65390728      -0.63826008       0.07614372
H       -1.19560206       1.12103212      -0.68709897
H       -0.07848182      -1.44721978       0.75180051
H       -0.27313224      -1.20565184      -1.08746573
H        2.70458302       0.17448558      -0.15489334
10
Frame=7 idx=001543 GeodesicLength=0.344166727764819 rxn_smarts="[C:1]([C:2]([C:3](=[O:4])[H:10])([H:8])[H:9])([H:5])([H:6])[H:7]>>[C:1]([C:2]([H:6])([H:8])[H:9])([O+:4]=[C-:3][H:10])([H:5])[H:7]"
C       -0.82880477       0.54003050       0.14782608
C       -0.32994817      -0.80729387      -0.08384169
C        1.58097236       0.14936105      -0.17930933
O        1.07214202       1.24258209       0.04736711
H       -1.00308375       0.87466329       1.16258441
H       -1.65472540      -0.63634636       0.07820334
H       -1.19530158       1.12258265      -0.68779659
H       -0.06738706      -1.44490111       0.75118112
H       -0.26625590      -1.20406391      -1.08960814
H        2.69239225       0.16338567      -0.14660631
10
Frame=8 idx=001543 GeodesicLength=0.39332464688079183 rxn_smarts="[C:1]([C:2]([C:3](=[O:4])[H:10])([H:8])[H:9])([H:5])([H:6])[H:7]>>[C:1]([C:2]([H:6])([H:8])[H:9])([O+:4]=[C-:3][H:10])([H:5])[H:7]"
C       -0.82887868       0.54212403       0.14820750
C       -0.31963788      -0.80543847      -0.08524057
C        1.56976703       0.14712964      -0.18490815
O        1.06440183       1.24312161       0.04600714
H       -0.99945875       0.87588749       1.16428857
H       -1.65581595      -0.63430411       0.08019073
H       -1.19484629       1.12409090      -0.68854836
H       -0.05645761      -1.44262978       0.75064294
H       -0.25930533      -1.20253637      -1.09171074
H        2.68023163       0.15255505      -0.13892907
10
Frame=9 idx=001543 GeodesicLength=0.442486626637764 rxn_smarts="[C:1]([C:2]([C:3](=[O:4])[H:10])([H:8])[H:9])([H:5])([H:6])[H:7]>>[C:1]([C:2]([H:6])([H:8])[H:9])([O+:4]=[C-:3][H:10])([H:5])[H:7]"
C       -0.82891814       0.54414027       0.14857755
C       -0.30942245      -0.80366222      -0.08665179
C        1.55879432       0.14494357      -0.19031093
O        1.05671554       1.24363078       0.04467756
H       -0.99581182       0.87707516       1.16595354
H       -1.65716374      -0.63214503       0.08219654
H       -1.19432997       1.12554992      -0.68930524
H       -0.04559976      -1.44039433       0.75011588
H       -0.25236242      -1.20105637      -1.09382097
H        2.66809844       0.14191826      -0.13143213
10
Frame=10 idx=001543 GeodesicLength=0.49165525897482515 rxn_smarts="[C:1]([C:2]([C:3](=[O:4])[H:10])([H:8])[H:9])([H:5])([H:6])[H:7]>>[C:1]([C:2]([H:6])([H:8])[H:9])([O+:4]=[C-:3][H:10])([H:5])[H:7]"
C       -0.82892398       0.54608082       0.14893635
C       -0.29929688      -0.80196250      -0.08808419
C        1.54804341       0.14280905      -0.19558185
O        1.04907777       1.24411578       0.04334272
H       -0.99212495       0.87822560       1.16758287
H       -1.65876508      -0.62987110       0.08424741
H       -1.19377220       1.12695907      -0.69006004
H       -0.03478143      -1.43818963       0.74958313
H       -0.24544332      -1.19961867      -1.09595033
H        2.65598667       0.13145159      -0.12401608
10
Frame=11 idx=001543 GeodesicLength=0.5408149059477718 rxn_smarts="[C:1]([C:2]([C:3](=[O:4])[H:10])([H:8])[H:9])([H:5])([H:6])[H:7]>>[C:1]([C:2]([H:6])([H:8])[H:9])([O+:4]=[C-:3][H:10])([H:5])[H:7]"
C       -0.82889285       0.54794641       0.14928955
C       -0.28925342      -0.80033447      -0.08957968
C        1.53750752       0.14077075      -0.20094559
O        1.04147715       1.24461458       0.04181617
H       -0.98830052       0.87933493       1.16920136
H       -1.66061186      -0.62749946       0.08644154
H       -1.19326576       1.12831540      -0.69077730
H       -0.02390875      -1.43601137       0.74898007
H       -0.23862458      -1.19820696      -1.09815399
H        2.64387306       0.12107018      -0.11627212
10
Frame=12 idx=001543 GeodesicLength=0.5900121403733003 rxn_smarts="[C:1]([C:2]([C:3](=[O:4])[H:10])([H:8])[H:9])([H:5])([H:6])[H:7]>>[C:1]([C:2]([H:6])([H:8])[H:9])([O+:4]=[C-:3][H:10])([H:5])[H:7]"
C       -0.82882518       0.54973397       0.14963543
C       -0.27928669      -0.79877438      -0.09111437
C        1.52716237       0.13877091      -0.20617563
O        1.03389943       1.24509209       0.04024322
H       -0.98440485       0.88041663       1.17078325
H       -1.66268970      -0.62499723       0.08869541
H       -1.19273300       1.12960387      -0.69147416
H       -0.01303858      -1.43384688       0.74834504
H       -0.23182075      -1.19682843      -1.10038806
H        2.63173696       0.11082943      -0.10855013
10
Frame=13 idx=001543 GeodesicLength=0.639204090561205 rxn_smarts="[C:1]([C:2]([C:3](=[O:4])[H:10])([H:8])[H:9])([H:5])([H:6])[H:7]>>[C:1]([C:2]([H:6])([H:8])[H:9])([O+:4]=[C-:3][H:10])([H:5])[H:7]"
C       -0.82872669       0.55144843       0.14997096
C       -0.26939916      -0.79729235      -0.09268119
C        1.51703464       0.13683003      -0.21135014
O        1.02636942       1.24555640       0.03861660
H       -0.98044906       0.88145861       1.17233752
H       -1.66503156      -0.62238105       0.09103543
H       -1.19219020       1.13084413      -0.69216583
H       -0.00217209      -1.43171430       0.74768817
H       -0.22505028      -1.19548013      -1.10266395
H        2.61961499       0.10073022      -0.10078758
10
Frame=14 idx=001543 GeodesicLength=0.6884017052571436 rxn_smarts="[C:1]([C:2]([C:3](=[O:4])[H:10])([H:8])[H:9])([H:5])([H:6])[H:7]>>[C:1]([C:2]([H:6])([H:8])[H:9])([O+:4]=[C-:3][H:10])([H:5])[H:7]"
C       -0.82860664       0.55308950       0.15029094
C       -0.25959565      -0.79589279      -0.09424119
C        1.50711744       0.13489453      -0.21627278
O        1.01889255       1.24596929       0.03710797
H       -0.97652873       0.88246429       1.17384193
H       -1.66765150      -0.61962764       0.09337554
H       -1.19155814       1.13203731      -0.69288492
H        0.00860875      -1.42961665       0.74707011
H       -0.21824373      -1.19417484      -1.10493233
H        2.60756565       0.09085701      -0.09335527
10
Frame=15 idx=001543 GeodesicLength=0.7376007994845444 rxn_smarts="[C:1]([C:2]([C:3](=[O:4])[H:10])([H:8])[H:9])([H:5])([H:6])[H:7]>>[C:1]([C:2]([H:6])([H:8])[H:9])([O+:4]=[C-:3][H:10])([H:5])[H:7]"
C       -0.82847010       0.55465718       0.15059316
C       -0.24987783      -0.79457961      -0.09577998
C        1.49740822       0.13294929      -0.22090030
O        1.01147312       1.24631738       0.03577240
H       -0.97267862       0.88343172       1.17529153
H       -1.67056248      -0.61672725       0.09569128
H       -1.19081464       1.13318575      -0.69364353
H        0.01927878      -1.42755723       0.74651298
H       -0.21138521      -1.19291787      -1.10717851
H        2.59562875       0.08124064      -0.08635903
10
Frame=16 idx=001543 GeodesicLength=0.786795641474576 rxn_smarts="[C:1]([C:2]([C:3](=[O:4])[H:10])([H:8])[H:9])([H:5])([H:6])[H:7]>>[C:1]([C:2]([H:6])([H:8])[H:9])([O+:4]=[C-:3][H:10])([H:5])[H:7]"
C       -0.82832281       0.55615141       0.15087570
C       -0.24024726      -0.79335624      -0.09728502
C        1.48790475       0.13098216      -0.22520467
O        1.00411530       1.24658974       0.03465313
H       -0.96892866       0.88435795       1.17668368
H       -1.67377798      -0.61367089       0.09796304
H       -1.18994404       1.13429223      -0.69445161
H        0.02981893      -1.42553919       0.74603593
H       -0.20446432      -1.19171369      -1.10939082
H        2.58384609       0.07190652      -0.07987935
