12
Frame=0 idx=005869 GeodesicLength=0.0 rxn_smarts="[C:1]([C:2]([C:3](=[O:4])[H:11])([C:5](=[O:6])[H:12])[H:10])([H:7])([H:8])[H:9]>>[C:1]1([H:7])([H:9])[C@@:2]2([H:10])[C@:3]1([H:11])[O:4][C@:5]2([O:6][H:8])[H:12]"
C       -1.18698833      -0.33658320      -0.46143773
C        0.32767173      -0.27874276      -0.58987119
C        0.43199101       1.14718091      -0.48083182
O        0.70849971       1.32611921       0.75842853
C        0.87859694      -0.38916403       0.85064692
O        0.07908665      -0.96876525       1.67699583
H       -1.69835595      -0.60028771      -1.38195882
H       -0.79000678      -1.03100089       1.08383846
H       -1.65546642       0.50514241       0.04788506
H        0.73032640      -0.86862978      -1.40575324
H        0.23649903       1.96157093      -1.17090184
H        1.93814605      -0.46683988       1.07295980
12
Frame=1 idx=005869 GeodesicLength=0.08646759891861268 rxn_smarts="[C:1]([C:2]([C:3](=[O:4])[H:11])([C:5](=[O:6])[H:12])[H:10])([H:7])([H:8])[H:9]>>[C:1]1([H:7])([H:9])[C@@:2]2([H:10])[C@:3]1([H:11])[O:4][C@:5]2([O:6][H:8])[H:12]"
C       -1.18107861      -0.32403401      -0.46095311
C        0.33271387      -0.28239099      -0.58684869
C        0.42386511       1.14778628      -0.47958588
O        0.73028310       1.33265903       0.75299860
C        0.88180589      -0.39673203       0.85248923
O        0.08182171      -0.97634998       1.67890826
H       -1.68704115      -0.61213875      -1.37712957
H       -0.81086296      -1.01671106       1.08411491
H       -1.67167846       0.51006836       0.03848612
H        0.74336015      -0.86496008      -1.40360846
H        0.21368841       1.96239149      -1.16559632
H        1.94312293      -0.47958826       1.06672491
12
Frame=2 idx=005869 GeodesicLength=0.172930744130379 rxn_smarts="[C:1]([C:2]([C:3](=[O:4])[H:11])([C:5](=[O:6])[H:12])[H:10])([H:7])([H:8])[H:9]>>[C:1]1([H:7])([H:9])[C@@:2]2([H:10])[C@:3]1([H:11])[O:4][C@:5]2([O:6][H:8])[H:12]"
C       -1.17523140      -0.31150359      -0.46043765
C        0.33758129      -0.28584494      -0.58382870
C        0.41574277       1.14849318      -0.47803741
O        0.75249506       1.33916490       0.74700811
C        0.88495000      -0.40433821       0.85429200
O        0.08451961      -0.98397956       1.68080128
H       -1.67584389      -0.62459881      -1.37136281
H       -0.83172026      -1.00212205       1.08416048
H       -1.68827848       0.51456484       0.02821659
H        0.75636470      -0.86080409      -1.40146843
H        0.19146630       1.96337428      -1.15976405
H        1.94795430      -0.49240596       1.06042060
12
Frame=3 idx=005869 GeodesicLength=0.2593963222908775 rxn_smarts="[C:1]([C:2]([C:3](=[O:4])[H:11])([C:5](=[O:6])[H:12])[H:10])([H:7])([H:8])[H:9]>>[C:1]1([H:7])([H:9])[C@@:2]2([H:10])[C@:3]1([H:11])[O:4][C@:5]2([O:6][H:8])[H:12]"
C       -1.16945479      -0.29899752      -0.45989927
C        0.34227445      -0.28911411      -0.58080452
C        0.40763188       1.14930213      -0.47617422
O        0.77513387       1.34562846       0.74043119
C        0.88803044      -0.41198380       0.85606162
O        0.08720662      -0.99166432       1.68269740
H       -1.66475738      -0.63759744      -1.36464473
H       -0.85260175      -0.98724063       1.08396825
H       -1.70524277       0.51859265       0.01704015
H        0.76933344      -0.85617273      -1.39931791
H        0.16980149       1.96452817      -1.15340554
H        1.95264450      -0.50528086       1.05404758
12
Frame=4 idx=005869 GeodesicLength=0.34597584584973434 rxn_smarts="[C:1]([C:2]([C:3](=[O:4])[H:11])([C:5](=[O:6])[H:12])[H:10])([H:7])([H:8])[H:9]>>[C:1]1([H:7])([H:9])[C@@:2]2([H:10])[C@:3]1([H:11])[O:4][C@:5]2([O:6][H:8])[H:12]"
C       -1.16377045      -0.28653372      -0.45936462
C        0.34678395      -0.29221560      -0.57778370
C        0.39954664       1.15024909      -0.47399843
O        0.79822257       1.35208141       0.73326330
C        0.89106209      -0.41968336       0.85783404
O        0.08992952      -0.99946112       1.68466511
H       -1.65380728      -0.65108774      -1.35701030
H       -0.87353316      -0.97208868       1.08357248
H       -1.72254487       0.52212541       0.00490474
H        0.78223471      -0.85109595      -1.39717654
H        0.14865817       1.96592255      -1.14655158
H        1.95721809      -0.51821231       1.04764549
12
Frame=5 idx=005869 GeodesicLength=0.4322923903541093 rxn_smarts="[C:1]([C:2]([C:3](=[O:4])[H:11])([C:5](=[O:6])[H:12])[H:10])([H:7])([H:8])[H:9]>>[C:1]1([H:7])([H:9])[C@@:2]2([H:10])[C@:3]1([H:11])[O:4][C@:5]2([O:6][H:8])[H:12]"
C       -1.15813055      -0.27407469      -0.45876441
C        0.35114181      -0.29513027      -0.57471214
C        0.39146944       1.15120495      -0.47145005
O        0.82165729       1.35836693       0.72539113
C        0.89398953      -0.42738717       0.85950657
O        0.09264140      -1.00722536       1.68656715
H       -1.64285013      -0.66490537      -1.34829068
H       -0.89454522      -0.95659741       1.08283322
H       -1.74013571       0.52506189      -0.00814564
H        0.79514100      -0.84551444      -1.39491723
H        0.12802810       1.96733957      -1.13908241
H        1.96159305      -0.53113863       1.04106449
12
Frame=6 idx=005869 GeodesicLength=0.5187360663888462 rxn_smarts="[C:1]([C:2]([C:3](=[O:4])[H:11])([C:5](=[O:6])[H:12])[H:10])([H:7])([H:8])[H:9]>>[C:1]1([H:7])([H:9])[C@@:2]2([H:10])[C@:3]1([H:11])[O:4][C@:5]2([O:6][H:8])[H:12]"
C       -1.15260167      -0.26168035      -0.45817838
C        0.35531304      -0.29790456      -0.57162643
C        0.38343173       1.15229256      -0.46856319
O        0.84551911       1.36462684       0.71687228
C        0.89687830      -0.43514619       0.86119746
O        0.09546307      -1.01515258       1.68857675
H       -1.63201303      -0.67904029      -1.33867026
H       -0.91566340      -0.94080637       1.08190436
H       -1.75799312       0.52742595      -0.02223493
H        0.80795871      -0.83952612      -1.39262970
H        0.10783663       1.96899962      -1.13110002
H        1.96587064      -0.54408851       1.03445206
12
Frame=7 idx=005869 GeodesicLength=0.6052818412026604 rxn_smarts="[C:1]([C:2]([C:3](=[O:4])[H:11])([C:5](=[O:6])[H:12])[H:10])([H:7])([H:8])[H:9]>>[C:1]1([H:7])([H:9])[C@@:2]2([H:10])[C@:3]1([H:11])[O:4][C@:5]2([O:6][H:8])[H:12]"
C       -1.14718186      -0.24932680      -0.45759743
C        0.35930170      -0.30053618      -0.56851131
C        0.37542654       1.15349856      -0.46531376
O        0.86977464       1.37082649       0.70766166
C        0.89971657      -0.44295010       0.86289242
O        0.09840701      -1.02321043       1.69069684
H       -1.62126852      -0.69343868      -1.32809593
H       -0.93691440      -0.92473772       1.08071300
H       -1.77607301       0.52916991      -0.03735617
H        0.82068170      -0.83313174      -1.39028468
H        0.08809364       1.97087881      -1.12258947
H        1.97003598      -0.55704212       1.02778483
12
Frame=8 idx=005869 GeodesicLength=0.6916720095929793 rxn_smarts="[C:1]([C:2]([C:3](=[O:4])[H:11])([C:5](=[O:6])[H:12])[H:10])([H:7])([H:8])[H:9]>>[C:1]1([H:7])([H:9])[C@@:2]2([H:10])[C@:3]1([H:11])[O:4][C@:5]2([O:6][H:8])[H:12]"
C       -1.14185808      -0.23703945      -0.45697761
C        0.36312005      -0.30302234      -0.56532974
C        0.36747560       1.15474221      -0.46167159
O        0.89435338       1.37688415       0.69768709
C        0.90248176      -0.45077155       0.86454262
O        0.10147503      -1.03143839       1.69282484
H       -1.61054218      -0.70793752      -1.31652357
H       -0.95835637      -0.90826226       1.07929492
H       -1.79431170       0.53021409      -0.05354448
H        0.83333940      -0.82628669      -1.38779810
H        0.06876389       1.97283651      -1.11347678
H        1.97405920      -0.56991875       1.02097241
12
Frame=9 idx=005869 GeodesicLength=0.778053425268429 rxn_smarts="[C:1]([C:2]([C:3](=[O:4])[H:11])([C:5](=[O:6])[H:12])[H:10])([H:7])([H:8])[H:9]>>[C:1]1([H:7])([H:9])[C@@:2]2([H:10])[C@:3]1([H:11])[O:4][C@:5]2([O:6][H:8])[H:12]"
C       -1.13664445      -0.22480582      -0.45634898
C        0.36675270      -0.30539545      -0.56209461
C        0.35956331       1.15606221      -0.45763425
O        0.91921222       1.38284386       0.68696445
C        0.90519012      -0.45862434       0.86619237
O        0.10473829      -1.03987638       1.69504084
H       -1.59985420      -0.72248095      -1.30402240
H       -0.97998223      -0.89142699       1.07763602
H       -1.81264165       0.53056250      -0.07078825
H        0.84587510      -0.81908314      -1.38520976
H        0.04982877       1.97494235      -1.10381052
H        1.97796202      -0.58271783       1.01407511
12
Frame=10 idx=005869 GeodesicLength=0.8644728581419229 rxn_smarts="[C:1]([C:2]([C:3](=[O:4])[H:11])([C:5](=[O:6])[H:12])[H:10])([H:7])([H:8])[H:9]>>[C:1]1([H:7])([H:9])[C@@:2]2([H:10])[C@:3]1([H:11])[O:4][C@:5]2([O:6][H:8])[H:12]"
C       -1.13156912      -0.21264495      -0.45570388
C        0.37019301      -0.30766489      -0.55878602
C        0.35170700       1.15746028      -0.45319767
O        0.94433135       1.38871142       0.67545975
C        0.90785833      -0.46650536       0.86785713
O        0.10824432      -1.04858351       1.69736408
H       -1.58923217      -0.73696135      -1.29064062
H       -1.00183868      -0.87424606       1.07574145
H       -1.83101342       0.53017190      -0.08911053
H        0.85826016      -0.81153812      -1.38248251
H        0.03128112       1.97719409      -1.09360598
H        1.98177810      -0.59539346       1.00710479
12
Frame=11 idx=005869 GeodesicLength=0.9508891274466392 rxn_smarts="[C:1]([C:2]([C:3](=[O:4])[H:11])([C:5](=[O:6])[H:12])[H:10])([H:7])([H:8])[H:9]>>[C:1]1([H:7])([H:9])[C@@:2]2([H:10])[C@:3]1([H:11])[O:4][C@:5]2([O:6][H:8])[H:12]"
C       -1.12663266      -0.20056096      -0.45503099
C        0.37343897      -0.30984436      -0.55538956
C        0.34390984       1.15891626      -0.44834699
O        0.96964661       1.39447150       0.66314611
C        0.91048451      -0.47440815       0.86953537
O        0.11203233      -1.05761115       1.69977826
H       -1.57865494      -0.75128765      -1.27640181
H       -1.02396062      -0.85666972       1.07362087
H       -1.84934640       0.52901636      -0.10851515
H        0.87047766      -0.80367715      -1.37959349
H        0.01309831       1.97955735      -1.08284905
H        1.98550640      -0.60790235       1.00004642
12
Frame=12 idx=005869 GeodesicLength=1.0372991213930238 rxn_smarts="[C:1]([C:2]([C:3](=[O:4])[H:11])([C:5](=[O:6])[H:12])[H:10])([H:7])([H:8])[H:9]>>[C:1]1([H:7])([H:9])[C@@:2]2([H:10])[C@:3]1([H:11])[O:4][C@:5]2([O:6][H:8])[H:12]"
C       -1.12184367      -0.18855873      -0.45432347
C        0.37648559      -0.31194764      -0.55189172
C        0.33617699       1.16042110      -0.44307147
O        0.99510010       1.40012247       0.65000338
C        0.91307374      -0.48232967       0.87123498
O        0.11614842      -1.06702560       1.70227732
H       -1.56811926      -0.76538280      -1.26134422
H       -1.04638500      -0.83865831       1.07128542
H       -1.86756023       0.52707764      -0.12900664
H        0.88250186      -0.79553062      -1.37652382
H       -0.00473669       1.98201495      -1.07153877
H        1.98915817      -0.62020278       0.99289900
12
Frame=13 idx=005869 GeodesicLength=1.123707143697648 rxn_smarts="[C:1]([C:2]([C:3](=[O:4])[H:11])([C:5](=[O:6])[H:12])[H:10])([H:7])([H:8])[H:9]>>[C:1]1([H:7])([H:9])[C@@:2]2([H:10])[C@:3]1([H:11])[O:4][C@:5]2([O:6][H:8])[H:12]"
C       -1.11721183      -0.17664314      -0.45357532
C        0.37932765      -0.31398940      -0.54827856
C        0.32851353       1.16196729      -0.43736193
O        1.02062908       1.40566777       0.63601594
C        0.91563321      -0.49026832       0.87296618
O        0.12064214      -1.07690476       1.70485098
H       -1.55762716      -0.77917831      -1.24551121
H       -1.06915046      -0.82016430       1.06874853
H       -1.88556983       0.52434550      -0.15058693
H        0.89430577      -0.78713220      -1.37325535
H       -0.02224047       1.98455183      -1.05967750
H        1.99274838      -0.63225196       0.98566518
12
Frame=14 idx=005869 GeodesicLength=1.210174648946765 rxn_smarts="[C:1]([C:2]([C:3](=[O:4])[H:11])([C:5](=[O:6])[H:12])[H:10])([H:7])([H:8])[H:9]>>[C:1]1([H:7])([H:9])[C@@:2]2([H:10])[C@:3]1([H:11])[O:4][C@:5]2([O:6][H:8])[H:12]"
C       -1.11275742      -0.16482225      -0.45279188
C        0.38195522      -0.31598927      -0.54454023
C        0.32092615       1.16356795      -0.43121671
O        1.04618333       1.41113839       0.62118266
C        0.91818265      -0.49823244       0.87475718
O        0.12557909      -1.08735886       1.70750681
H       -1.54720746      -0.79262983      -1.22896966
H       -1.09229540      -0.80114198       1.06603605
H       -1.90329479       0.52082456      -0.17326856
H        0.90585006      -0.77852801      -1.36978205
H       -0.03943266       1.98718790      -1.04728683
H        1.99631123      -0.64401615       0.97837323
12
Frame=15 idx=005869 GeodesicLength=1.2966117130462698 rxn_smarts="[C:1]([C:2]([C:3](=[O:4])[H:11])([C:5](=[O:6])[H:12])[H:10])([H:7])([H:8])[H:9]>>[C:1]1([H:7])([H:9])[C@@:2]2([H:10])[C@:3]1([H:11])[O:4][C@:5]2([O:6][H:8])[H:12]"
C       -1.10846898      -0.15309016      -0.45194133
C        0.38437062      -0.31795595      -0.54065380
C        0.31341104       1.16517735      -0.42461763
O        1.07165066       1.41650387       0.60547905
C        0.92071001      -0.50620521       0.87659078
O        0.13099027      -1.09842241       1.71019554
H       -1.53682094      -0.80563726      -1.21173889
H       -1.11586146      -0.78154064       1.06312351
H       -1.92062317       0.51650928      -0.19700168
H        0.91712500      -0.76974604      -1.36606829
H       -0.05631570       1.98983712      -1.03435517
H        1.99983266      -0.65542997       0.97098791
12
Frame=16 idx=005869 GeodesicLength=1.3828784451457257 rxn_smarts="[C:1]([C:2]([C:3](=[O:4])[H:11])([C:5](=[O:6])[H:12])[H:10])([H:7])([H:8])[H:9]>>[C:1]1([H:7])([H:9])[C@@:2]2([H:10])[C@:3]1([H:11])[O:4][C@:5]2([O:6][H:8])[H:12]"
C       -1.10432614      -0.14144498      -0.45098286
C        0.38657676      -0.31987509      -0.53659159
C        0.30598333       1.16674863      -0.41755298
O        1.09691849       1.42170805       0.58887193
C        0.92318115      -0.51415375       0.87843624
O        0.13688348      -1.11013047       1.71285521
H       -1.52644022      -0.81811519      -1.19380126
H       -1.13991684      -0.76134381       1.05997238
H       -1.93741307       0.51136577      -0.22169871
H        0.92811866      -0.76076790      -1.36207018
H       -0.07283400       1.99239959      -1.02089360
H        2.00326841      -0.66639085       0.96345542
