14
Frame=0 idx=003573 GeodesicLength=0.0 rxn_smarts="[C:1]([C@@:2]1([H:10])[O:3][C:4]([H:11])([H:12])[C@:5]1([O:6][H:14])[H:13])([H:7])([H:8])[H:9]>>[C:1]([C:2]([O:3][C:4]([C:5](=[O:6])[H:13])([H:11])[H:12])([H:10])[H:14])([H:7])([H:8])[H:9]"
C        1.66210699       0.75076990       0.05539350
C        0.62181608      -0.34780603       0.00490384
O       -0.04640797      -0.51446582       1.23510062
C       -1.39511334      -0.54316297       0.78184406
C       -1.11997316      -0.24077478      -0.69697033
O       -1.35716672       0.96305235      -1.20679377
H        1.20358297       1.72345153       0.24726641
H        2.35008979       0.53327929       0.87524302
H        2.23137947       0.79813763      -0.87393002
H        1.02272333      -1.28336178      -0.39314400
H       -1.98771315       0.24607579       1.24864918
H       -1.85882776      -1.51979805       0.94958736
H       -1.18992581      -1.10392603      -1.37587713
H       -0.13657071       0.53852891      -0.85127278
14
Frame=1 idx=003573 GeodesicLength=0.09290682846947541 rxn_smarts="[C:1]([C@@:2]1([H:10])[O:3][C:4]([H:11])([H:12])[C@:5]1([O:6][H:14])[H:13])([H:7])([H:8])[H:9]>>[C:1]([C:2]([O:3][C:4]([C:5](=[O:6])[H:13])([H:11])[H:12])([H:10])[H:14])([H:7])([H:8])[H:9]"
C        1.67175760       0.74981054       0.05950298
C        0.62150389      -0.33862392       0.00234468
O       -0.04905194      -0.49533368       1.23413146
C       -1.39551738      -0.54580829       0.78017950
C       -1.13321691      -0.24532843      -0.70005992
O       -1.36596217       0.95614186      -1.21178145
H        1.21934370       1.72510198       0.25258267
H        2.35821616       0.52600827       0.87877498
H        2.24203061       0.79536422      -0.86936659
H        1.02412382      -1.27924697      -0.38301396
H       -1.99998049       0.23388473       1.24821091
H       -1.84256596      -1.52991101       0.95123067
H       -1.21980537      -1.10833727      -1.37712195
H       -0.13087557       0.55627796      -0.86561396
14
Frame=2 idx=003573 GeodesicLength=0.18568614658870503 rxn_smarts="[C:1]([C@@:2]1([H:10])[O:3][C:4]([H:11])([H:12])[C@:5]1([O:6][H:14])[H:13])([H:7])([H:8])[H:9]>>[C:1]([C:2]([O:3][C:4]([C:5](=[O:6])[H:13])([H:11])[H:12])([H:10])[H:14])([H:7])([H:8])[H:9]"
C        1.68138336       0.74884520       0.06380705
C        0.62115641      -0.32923407      -0.00058409
O       -0.05175981      -0.47626192       1.23269189
C       -1.39579431      -0.54841168       0.77849939
C       -1.14676052      -0.25043182      -0.70324336
O       -1.37434099       0.94865634      -1.21726696
H        1.23517846       1.72670444       0.25834169
H        2.36612199       0.51841458       0.88253492
H        2.25276451       0.79284314      -0.86453133
H        1.02551018      -1.27478708      -0.37312838
H       -2.01178878       0.22168190       1.24780334
H       -1.82605550      -1.53965723       0.95312441
H       -1.25062910      -1.11323734      -1.37801669
H       -0.12498590       0.57487553      -0.88003187
14
Frame=3 idx=003573 GeodesicLength=0.2783808464201486 rxn_smarts="[C:1]([C@@:2]1([H:10])[O:3][C:4]([H:11])([H:12])[C@:5]1([O:6][H:14])[H:13])([H:7])([H:8])[H:9]>>[C:1]([C:2]([O:3][C:4]([C:5](=[O:6])[H:13])([H:11])[H:12])([H:10])[H:14])([H:7])([H:8])[H:9]"
C        1.69098525       0.74787061       0.06831235
C        0.62077028      -0.31961619      -0.00390550
O       -0.05452565      -0.45726225       1.23076608
C       -1.39594403      -0.55097180       0.77679603
C       -1.16061365      -0.25613544      -0.70652252
O       -1.38226334       0.94052377      -1.22331452
H        1.25110501       1.72825127       0.26459772
H        2.37381051       0.51046110       0.88650767
H        2.26357654       0.79059873      -0.85941966
H        1.02686884      -1.26995711      -0.36353132
H       -2.02312720       0.20949181       1.24741182
H       -1.80930421      -1.54902254       0.95527855
H       -1.28244458      -1.11867541      -1.37850676
H       -0.11889376       0.59444345      -0.89446993
14
Frame=4 idx=003573 GeodesicLength=0.37105666816971533 rxn_smarts="[C:1]([C@@:2]1([H:10])[O:3][C:4]([H:11])([H:12])[C@:5]1([O:6][H:14])[H:13])([H:7])([H:8])[H:9]>>[C:1]([C:2]([O:3][C:4]([C:5](=[O:6])[H:13])([H:11])[H:12])([H:10])[H:14])([H:7])([H:8])[H:9]"
C        1.70056490       0.74688308       0.07302723
C        0.62033926      -0.30974253      -0.00764857
O       -0.05734376      -0.43834696       1.22833502
C       -1.39596805      -0.55348726       0.77506084
C       -1.17478941      -0.26250203      -0.70989987
O       -1.38966898       0.93165082      -1.23000577
H        1.26714779       1.72973381       0.27141972
H        2.38128722       0.50209685       0.89066869
H        2.27445851       0.78866361      -0.85402736
H        1.02818286      -1.26472527      -0.35427718
H       -2.03398613       0.19734466       1.24701442
H       -1.79232040      -1.55798895       0.95770851
H       -1.31530743      -1.12471603      -1.37852496
H       -0.11259639       0.61513619      -0.90885073
14
Frame=5 idx=003573 GeodesicLength=0.4637544956103014 rxn_smarts="[C:1]([C@@:2]1([H:10])[O:3][C:4]([H:11])([H:12])[C@:5]1([O:6][H:14])[H:13])([H:7])([H:8])[H:9]>>[C:1]([C:2]([O:3][C:4]([C:5](=[O:6])[H:13])([H:11])[H:12])([H:10])[H:14])([H:7])([H:8])[H:9]"
C        1.71012142       0.74588025       0.07795686
C        0.61985574      -0.29958507      -0.01184510
O       -0.06020812      -0.41953135       1.22537705
C       -1.39586770      -0.55595478       0.77328449
C       -1.18930149      -0.26959979      -0.71337809
O       -1.39647819       0.92193877      -1.23743015
H        1.28332887       1.73113562       0.27888297
H        2.38855662       0.49326980       0.89499158
H        2.28539721       0.78707531      -0.84835550
H        1.02943438      -1.25905914      -0.34542595
H       -2.04435292       0.18527832       1.24658810
H       -1.77511837      -1.56653769       0.96043497
H       -1.34927064      -1.13143018      -1.37800107
H       -0.10609681       0.63711992      -0.92308015
14
Frame=6 idx=003573 GeodesicLength=0.5565049894200641 rxn_smarts="[C:1]([C@@:2]1([H:10])[O:3][C:4]([H:11])([H:12])[C@:5]1([O:6][H:14])[H:13])([H:7])([H:8])[H:9]>>[C:1]([C:2]([O:3][C:4]([C:5](=[O:6])[H:13])([H:11])[H:12])([H:10])[H:14])([H:7])([H:8])[H:9]"
C        1.71965399       0.74485821       0.08310496
C        0.61931236      -0.28911261      -0.01652288
O       -0.06311398      -0.40082428       1.22187726
C       -1.39564454      -0.55837370       0.77145773
C       -1.20416130      -0.27749903      -0.71695351
O       -1.40259881       0.91127415      -1.24567965
H        1.29967029       1.73244055       0.28705562
H        2.39562039       0.48392489       0.89944064
H        2.29638068       0.78586454      -0.84240393
H        1.03060177      -1.25292697      -0.33703490
H       -2.05422410       0.17332321       1.24610542
H       -1.75770405      -1.57465068       0.96347104
H       -1.38439141      -1.13887044      -1.37685767
H       -0.09940128       0.66057216      -0.93706014
14
Frame=7 idx=003573 GeodesicLength=0.6493299061064333 rxn_smarts="[C:1]([C@@:2]1([H:10])[O:3][C:4]([H:11])([H:12])[C@:5]1([O:6][H:14])[H:13])([H:7])([H:8])[H:9]>>[C:1]([C:2]([O:3][C:4]([C:5](=[O:6])[H:13])([H:11])[H:12])([H:10])[H:14])([H:7])([H:8])[H:9]"
C        1.72915831       0.74380739       0.08847135
C        0.61869683      -0.27828616      -0.02171829
O       -0.06605494      -0.38224446       1.21781038
C       -1.39530254      -0.56073818       0.76957033
C       -1.21938668      -0.28628286      -0.72062794
O       -1.40788694       0.89951711      -1.25487414
H        1.31619711       1.73362148       0.29603136
H        2.40248514       0.47399452       0.90396617
H        2.30738308       0.78508719      -0.83617875
H        1.03165964      -1.24628635      -0.32917899
H       -2.06358808       0.16153235       1.24553460
H       -1.74010004      -1.58230488       0.96684273
H       -1.42072621      -1.14712378      -1.37500535
H       -0.09253468       0.68570662      -0.95064347
14
Frame=8 idx=003573 GeodesicLength=0.7421993559125728 rxn_smarts="[C:1]([C@@:2]1([H:10])[O:3][C:4]([H:11])([H:12])[C@:5]1([O:6][H:14])[H:13])([H:7])([H:8])[H:9]>>[C:1]([C:2]([O:3][C:4]([C:5](=[O:6])[H:13])([H:11])[H:12])([H:10])[H:14])([H:7])([H:8])[H:9]"
C        1.73862772       0.74272468       0.09405620
C        0.61800162      -0.26707073      -0.02745849
O       -0.06902342      -0.36380873       1.21316115
C       -1.39484199      -0.56304773       0.76761094
C       -1.23498035      -0.29603402      -0.72439398
O       -1.41218486       0.88652963      -1.26513618
H        1.33292052       1.73464583       0.30588148
H        2.40914824       0.46342412       0.90851588
H        2.31838014       0.78478440      -0.82968602
H        1.03258548      -1.23910263      -0.32192406
H       -2.07244007       0.14995091       1.24484244
H       -1.72231943      -1.58948564       0.97056505
H       -1.45835006      -1.15622960      -1.37234750
H       -0.08552353       0.71271952      -0.96368689
14
Frame=9 idx=003573 GeodesicLength=0.8351545570635976 rxn_smarts="[C:1]([C@@:2]1([H:10])[O:3][C:4]([H:11])([H:12])[C@:5]1([O:6][H:14])[H:13])([H:7])([H:8])[H:9]>>[C:1]([C:2]([O:3][C:4]([C:5](=[O:6])[H:13])([H:11])[H:12])([H:10])[H:14])([H:7])([H:8])[H:9]"
C        1.74803641       0.74161507       0.09985072
C        0.61721458      -0.25542195      -0.03383204
O       -0.07199583      -0.34561096       1.20787220
C       -1.39426782      -0.56525854       0.76555635
C       -1.25099973      -0.30688282      -0.72822615
O       -1.41496569       0.87171425      -1.27678495
H        1.34985199       1.73545997       0.31688146
H        2.41566280       0.45205704       0.91294669
H        2.32923563       0.78517557      -0.82299182
H        1.03337075      -1.23132245      -0.31543412
H       -2.08070036       0.13876513       1.24390786
H       -1.70446721      -1.59611419       0.97468437
H       -1.49742252      -1.16620595      -1.36869244
H       -0.07855300       0.74202982      -0.97573813
14
Frame=10 idx=003573 GeodesicLength=0.9280396565472884 rxn_smarts="[C:1]([C@@:2]1([H:10])[O:3][C:4]([H:11])([H:12])[C@:5]1([O:6][H:14])[H:13])([H:7])([H:8])[H:9]>>[C:1]([C:2]([O:3][C:4]([C:5](=[O:6])[H:13])([H:11])[H:12])([H:10])[H:14])([H:7])([H:8])[H:9]"
C        1.75737418       0.74046832       0.10584168
C        0.61633500      -0.24332616      -0.04081312
O       -0.07497256      -0.32764095       1.20196858
C       -1.39358282      -0.56740037       0.76341133
C       -1.26742600      -0.31887463      -0.73212495
O       -1.41612258       0.85522173      -1.28980853
H        1.36696060       1.73603528       0.32894465
H        2.42198425       0.43993406       0.91724365
H        2.33997055       0.78620416      -0.81608570
H        1.03398792      -1.22294029      -0.30970610
H       -2.08841375       0.12793642       1.24276150
H       -1.68651379      -1.60221349       0.97920620
H       -1.53797377      -1.17707652      -1.36403223
H       -0.07160723       0.77367243      -0.98680696
14
Frame=11 idx=003573 GeodesicLength=1.0208222643989016 rxn_smarts="[C:1]([C@@:2]1([H:10])[O:3][C:4]([H:11])([H:12])[C@:5]1([O:6][H:14])[H:13])([H:7])([H:8])[H:9]>>[C:1]([C:2]([O:3][C:4]([C:5](=[O:6])[H:13])([H:11])[H:12])([H:10])[H:14])([H:7])([H:8])[H:9]"
C        1.76661641       0.73927982       0.11200504
C        0.61536010      -0.23076251      -0.04841997
O       -0.07794441      -0.30993984       1.19544447
C       -1.39279196      -0.56946787       0.76116580
C       -1.28428069      -0.33207500      -0.73606795
O       -1.41531584       0.83683057      -1.30434114
H        1.38421775       1.73633064       0.34214247
H        2.42810606       0.42701285       0.92132568
H        2.35052904       0.78794129      -0.80899926
H        1.03441662      -1.21393825      -0.30481315
H       -2.09556833       0.11752826       1.24136877
H       -1.66849712      -1.60775788       0.98415111
H       -1.58008545      -1.18883012      -1.35827444
H       -0.06476218       0.80784805      -0.99668742
14
Frame=12 idx=003573 GeodesicLength=1.1134518213329125 rxn_smarts="[C:1]([C@@:2]1([H:10])[O:3][C:4]([H:11])([H:12])[C@:5]1([O:6][H:14])[H:13])([H:7])([H:8])[H:9]>>[C:1]([C:2]([O:3][C:4]([C:5](=[O:6])[H:13])([H:11])[H:12])([H:10])[H:14])([H:7])([H:8])[H:9]"
C        1.77573387       0.73805597       0.11831959
C        0.61429738      -0.21772579      -0.05665833
O       -0.08089876      -0.29256033       1.18830514
C       -1.39189548      -0.57146747       0.75880936
C       -1.30158017      -0.34653671      -0.74002168
O       -1.41212591       0.81629572      -1.32050956
H        1.40156530       1.73629754       0.35650247
H        2.43401475       0.41329549       0.92511779
H        2.36085275       0.79045463      -0.80176726
H        1.03465311      -1.20431632      -0.30080959
H       -2.10215423       0.10759513       1.23969832
H       -1.65044933      -1.61273776       0.98952147
H       -1.62390091      -1.20135813      -1.35132683
H       -0.05811236       0.84470802      -1.00518089
14
Frame=13 idx=003573 GeodesicLength=1.2058560181142164 rxn_smarts="[C:1]([C@@:2]1([H:10])[O:3][C:4]([H:11])([H:12])[C@:5]1([O:6][H:14])[H:13])([H:7])([H:8])[H:9]>>[C:1]([C:2]([O:3][C:4]([C:5](=[O:6])[H:13])([H:11])[H:12])([H:10])[H:14])([H:7])([H:8])[H:9]"
C        1.78468649       0.73680616       0.12475053
C        0.61315551      -0.20422216      -0.06551951
O       -0.08381930      -0.27556327       1.18056524
C       -1.39089742      -0.57340080       0.75634010
C       -1.31935440      -0.36228003      -0.74394884
O       -1.40603164       0.79337901      -1.33841030
H        1.41891441       1.73589090       0.37202951
H        2.43970065       0.39880749       0.92853170
H        2.37086330       0.79381542      -0.79443537
H        1.03469338      -1.19408490      -0.29773519
H       -2.10815805       0.09818673       1.23773999
H       -1.63242352      -1.61715298       0.99529959
H       -1.66954552      -1.21452637      -1.34311451
H       -0.05178390       0.88434481      -1.01209295
14
Frame=14 idx=003573 GeodesicLength=1.2980196305683498 rxn_smarts="[C:1]([C@@:2]1([H:10])[O:3][C:4]([H:11])([H:12])[C@:5]1([O:6][H:14])[H:13])([H:7])([H:8])[H:9]>>[C:1]([C:2]([O:3][C:4]([C:5](=[O:6])[H:13])([H:11])[H:12])([H:10])[H:14])([H:7])([H:8])[H:9]"
C        1.79343474       0.73555004       0.13126564
C        0.61196670      -0.19028745      -0.07495879
O       -0.08669298      -0.25900174       1.17225873
C       -1.38978908      -0.57529951       0.75375026
C       -1.33761953      -0.37927705      -0.74779536
O       -1.39653180       0.76782762      -1.35808982
H        1.43613905       1.73508473       0.38864492
H        2.44513753       0.38365555       0.93151578
H        2.38051184       0.79805463      -0.78702984
H        1.03456289      -1.18328739      -0.29557105
H       -2.11357761       0.08930357       1.23550497
H       -1.61442628      -1.62105076       1.00143068
H       -1.71724281      -1.22799642      -1.33358660
H       -0.04587265       0.92672417      -1.01733952
14
Frame=15 idx=003573 GeodesicLength=1.3899474725989978 rxn_smarts="[C:1]([C@@:2]1([H:10])[O:3][C:4]([H:11])([H:12])[C@:5]1([O:6][H:14])[H:13])([H:7])([H:8])[H:9]>>[C:1]([C:2]([O:3][C:4]([C:5](=[O:6])[H:13])([H:11])[H:12])([H:10])[H:14])([H:7])([H:8])[H:9]"
C        1.80192646       0.73432338       0.13782433
C        0.61078100      -0.17599515      -0.08490743
O       -0.08950135      -0.24294409       1.16343605
C       -1.38855829      -0.57720513       0.75103782
C       -1.35640539      -0.39743057      -0.75149351
O       -1.38305553       0.73941211      -1.37949310
H        1.45305143       1.73387342       0.40619703
H        2.45029589       0.36802224       0.93405630
H        2.38974569       0.80318779      -0.77957887
H        1.03431204      -1.17200365      -0.29425754
H       -2.11840235       0.08090590       1.23304511
H       -1.59647314      -1.62450509       1.00780540
H       -1.76723491      -1.24129919      -1.32271884
H       -0.04048155       0.97165803      -1.02095275
14
Frame=16 idx=003573 GeodesicLength=1.4817317653194177 rxn_smarts="[C:1]([C@@:2]1([H:10])[O:3][C:4]([H:11])([H:12])[C@:5]1([O:6][H:14])[H:13])([H:7])([H:8])[H:9]>>[C:1]([C:2]([O:3][C:4]([C:5](=[O:6])[H:13])([H:11])[H:12])([H:10])[H:14])([H:7])([H:8])[H:9]"
C        1.81010442       0.73318361       0.14439134
C        0.60968370      -0.16147662      -0.09525215
O       -0.09222629      -0.22746509       1.15418291
C       -1.38717662      -0.57919615       0.74819996
C       -1.37573102      -0.41655596      -0.75495752
O       -1.36507147       0.70793847      -1.40242078
H        1.46939416       1.73230776       0.42441427
H        2.45512088       0.35221073       0.93621829
H        2.39854739       0.80918374      -0.77209493
H        1.03404363      -1.16037574      -0.29364952
H       -2.12262231       0.07285327       1.23045364
H       -1.57853909      -1.62764673       1.01423124
H       -1.81987094      -1.25370059      -1.31051630
H       -0.03565644       1.01873929      -1.02320046
