18
Frame=0 idx=011099 GeodesicLength=0.0 rxn_smarts="[C:1]([C@@:2]1([H:11])[C:3]([H:12])([H:13])[N:4]1[C:5]([C:6]([O:7][H:18])([H:16])[H:17])([H:14])[H:15])([H:8])([H:9])[H:10]>>[C:1]([C-:2]1[C:3]([H:12])([H:13])[N+:4]1([C:5]([C:6]([O:7][H:18])([H:16])[H:17])([H:14])[H:15])[H:11])([H:8])([H:9])[H:10]"
C        2.18931902       0.09691252      -1.38816169
C        1.31949531      -0.84403918      -0.60160603
C        1.26814232      -0.46555756       0.83491720
N        0.07839968       0.20464746       0.30363755
C       -1.16043301      -0.43157343       0.79162615
C       -2.35145260       0.23655797       0.13435357
O       -2.39031278       1.61748833       0.40586045
H        1.88966456       0.17281309      -2.43315072
H        3.17764467      -0.37862145      -1.37090435
H        2.30036981       1.09877994      -0.95777417
H        0.08140333      -0.33433536      -0.75651436
H        2.00999141       0.24301259       1.20044051
H        1.05542073      -1.25200541       1.55696411
H       -1.16093450      -1.51279821       0.60235581
H       -1.19173650      -0.26857234       1.87194618
H       -2.32933651       0.04779517      -0.94934776
H       -3.27653895      -0.19314908       0.52256611
H       -1.50910601       1.96264496       0.23279145
18
Frame=1 idx=011099 GeodesicLength=0.0738083020846993 rxn_smarts="[C:1]([C@@:2]1([H:11])[C:3]([H:12])([H:13])[N:4]1[C:5]([C:6]([O:7][H:18])([H:16])[H:17])([H:14])[H:15])([H:8])([H:9])[H:10]>>[C:1]([C-:2]1[C:3]([H:12])([H:13])[N+:4]1([C:5]([C:6]([O:7][H:18])([H:16])[H:17])([H:14])[H:15])[H:11])([H:8])([H:9])[H:10]"
C        2.19248908       0.08856770      -1.38768562
C        1.32124877      -0.83741521      -0.58578346
C        1.27123080      -0.44842741       0.84598498
N        0.07652856       0.18541430       0.28709544
C       -1.16240793      -0.44389883       0.77863934
C       -2.35180746       0.24252482       0.13728729
O       -2.38141175       1.61902265       0.43217180
H        1.89374175       0.14798812      -2.43414133
H        3.18318534      -0.38092222      -1.36399351
H        2.29534257       1.09864166      -0.97406146
H        0.07630515      -0.34914494      -0.78580875
H        1.99760166       0.27945523       1.20479408
H        1.06729379      -1.22806850       1.57761822
H       -1.17191694      -1.52260370       0.57622975
H       -1.19111266      -0.29861681       1.86135096
H       -2.33795754       0.07167289      -0.94946056
H       -3.27797473      -0.18773218       0.52243662
H       -1.50037846       1.96354242       0.25732621
18
Frame=2 idx=011099 GeodesicLength=0.14768123604024846 rxn_smarts="[C:1]([C@@:2]1([H:11])[C:3]([H:12])([H:13])[N:4]1[C:5]([C:6]([O:7][H:18])([H:16])[H:17])([H:14])[H:15])([H:8])([H:9])[H:10]>>[C:1]([C-:2]1[C:3]([H:12])([H:13])[N+:4]1([C:5]([C:6]([O:7][H:18])([H:16])[H:17])([H:14])[H:15])[H:11])([H:8])([H:9])[H:10]"
C        2.19555406       0.07980432      -1.38717090
C        1.32234874      -0.83040518      -0.57012466
C        1.27374069      -0.43015566       0.85678112
N        0.07466675       0.16619383       0.27110007
C       -1.16446268      -0.45654938       0.76546015
C       -2.35173754       0.24844700       0.14030958
O       -2.37193708       1.61985456       0.45936713
H        1.89804686       0.12232958      -2.43494501
H        3.18848575      -0.38373038      -1.35673788
H        2.29023662       1.09793897      -0.99098211
H        0.07195998      -0.36392194      -0.81481408
H        1.98407117       0.31704523       1.20812169
H        1.07877323      -1.20247095       1.59829656
H       -1.18309031      -1.53235631       0.54922471
H       -1.19090493      -0.32976154       1.85034387
H       -2.34553272       0.09634037      -0.94923433
H       -3.27920022      -0.18244362       0.52174550
H       -1.49101837       1.96384110       0.28325857
18
Frame=3 idx=011099 GeodesicLength=0.22163580112039757 rxn_smarts="[C:1]([C@@:2]1([H:11])[C:3]([H:12])([H:13])[N:4]1[C:5]([C:6]([O:7][H:18])([H:16])[H:17])([H:14])[H:15])([H:8])([H:9])[H:10]>>[C:1]([C-:2]1[C:3]([H:12])([H:13])[N+:4]1([C:5]([C:6]([O:7][H:18])([H:16])[H:17])([H:14])[H:15])[H:11])([H:8])([H:9])[H:10]"
C        2.19855701       0.07063259      -1.38659016
C        1.32285137      -0.82304013      -0.55467276
C        1.27561290      -0.41076092       0.86722351
N        0.07281885       0.14704026       0.25562335
C       -1.16658997      -0.46948236       0.75208899
C       -2.35126141       0.25431791       0.14346887
O       -2.36192870       1.61993556       0.48745077
H        1.90263184       0.09587908      -2.43551539
H        3.19359679      -0.38701187      -1.34911424
H        2.28510821       1.09664312      -1.00848800
H        0.06837511      -0.37870715      -0.84351750
H        1.96935857       0.35568312       1.21036158
H        1.08976299      -1.17519645       1.61891072
H       -1.19445665      -1.54198355       0.52135211
H       -1.19104959      -0.36193486       1.83888721
H       -2.35209243       0.12175834      -0.94858868
H       -3.28021995      -0.17726830       0.52057885
H       -1.48107492       1.96349562       0.31054076
18
Frame=4 idx=011099 GeodesicLength=0.2956905742528798 rxn_smarts="[C:1]([C@@:2]1([H:11])[C:3]([H:12])([H:13])[N:4]1[C:5]([C:6]([O:7][H:18])([H:16])[H:17])([H:14])[H:15])([H:8])([H:9])[H:10]>>[C:1]([C-:2]1[C:3]([H:12])([H:13])[N+:4]1([C:5]([C:6]([O:7][H:18])([H:16])[H:17])([H:14])[H:15])[H:11])([H:8])([H:9])[H:10]"
C        2.20153907       0.06106372      -1.38591561
C        1.32280713      -0.81534691      -0.53946669
C        1.27679267      -0.39026648       0.87723490
N        0.07098979       0.12800496       0.24063392
C       -1.16878159      -0.48265442       0.73852390
C       -2.35039762       0.26013069       0.14681244
O       -2.35142602       1.61921807       0.51642436
H        1.90754650       0.06867775      -2.43580695
H        3.19856486      -0.39073526      -1.34109856
H        2.28001435       1.09472772      -1.02653018
H        0.06555288      -0.39353985      -0.87191325
H        1.95343097       0.39526868       1.21145507
H        1.10016508      -1.14623378       1.63937429
H       -1.20601485      -1.55141166       0.49262655
H       -1.19147907      -0.39506035       1.82694065
H       -2.35766957       0.14788669      -0.94744361
H       -3.28103702      -0.17219255       0.51902230
H       -1.47059755       1.96246300       0.33912648
18
Frame=5 idx=011099 GeodesicLength=0.36986511774052183 rxn_smarts="[C:1]([C@@:2]1([H:11])[C:3]([H:12])([H:13])[N:4]1[C:5]([C:6]([O:7][H:18])([H:16])[H:17])([H:14])[H:15])([H:8])([H:9])[H:10]>>[C:1]([C-:2]1[C:3]([H:12])([H:13])[N+:4]1([C:5]([C:6]([O:7][H:18])([H:16])[H:17])([H:14])[H:15])[H:11])([H:8])([H:9])[H:10]"
C        2.20453797       0.05111270      -1.38511847
C        1.32225920      -0.80734754      -0.52454323
C        1.27723054      -0.36870422       0.88674289
N        0.06918571       0.10913627       0.22610027
C       -1.17102832      -0.49602038       0.72476354
C       -2.34916438       0.26587686       0.15038588
O       -2.34046633       1.61765664       0.54627811
H        1.91283433       0.04077692      -2.43577354
H        3.20342930      -0.39487242      -1.33267021
H        2.27501576       1.09216956      -1.04505276
H        0.06349051      -0.40845443      -0.90000112
H        1.93626630       0.43569505       1.21134873
H        1.10988007      -1.11558364       1.65960031
H       -1.21776053      -1.56056570       0.46307217
H       -1.19212273      -0.42905181       1.81446469
H       -2.36230014       0.17467649      -0.94571968
H       -3.28165294      -0.16720292       0.51716399
H       -1.45963431       1.96070256       0.36895842
18
Frame=6 idx=011099 GeodesicLength=0.44418102722218084 rxn_smarts="[C:1]([C@@:2]1([H:11])[C:3]([H:12])([H:13])[N:4]1[C:5]([C:6]([O:7][H:18])([H:16])[H:17])([H:14])[H:15])([H:8])([H:9])[H:10]>>[C:1]([C-:2]1[C:3]([H:12])([H:13])[N+:4]1([C:5]([C:6]([O:7][H:18])([H:16])[H:17])([H:14])[H:15])[H:11])([H:8])([H:9])[H:10]"
C        2.20758914       0.04079420      -1.38417043
C        1.32124351      -0.79905974      -0.50993627
C        1.27688263      -0.34610981       0.89567991
N        0.06741304       0.09048123       0.21199026
C       -1.17332026      -0.50953416       0.71080522
C       -2.34758003       0.27154734       0.15423257
O       -2.32908795       1.61520698       0.57700001
H        1.91853729       0.01222409      -2.43537138
H        3.20822481      -0.39939951      -1.32380640
H        2.27017266       1.08894782      -1.06400142
H        0.06218186      -0.42347813      -0.92778679
H        1.91785271       0.47685563       1.20999233
H        1.11880887      -1.08325277       1.67950346
H       -1.22968580      -1.56937027       0.43271698
H       -1.19290835      -0.46381892       1.80141969
H       -2.36602135       0.20207880      -0.94333984
H       -3.28206838      -0.16228969       0.51508870
H       -1.44823442       1.95817690       0.39998342
18
Frame=7 idx=011099 GeodesicLength=0.5186611524754698 rxn_smarts="[C:1]([C@@:2]1([H:11])[C:3]([H:12])([H:13])[N:4]1[C:5]([C:6]([O:7][H:18])([H:16])[H:17])([H:14])[H:15])([H:8])([H:9])[H:10]>>[C:1]([C-:2]1[C:3]([H:12])([H:13])[N+:4]1([C:5]([C:6]([O:7][H:18])([H:16])[H:17])([H:14])[H:15])[H:11])([H:8])([H:9])[H:10]"
C        2.21072373       0.03012645      -1.38304292
C        1.31978859      -0.79049714      -0.49567869
C        1.27571188      -0.32252769       0.90398329
N        0.06567919       0.07208471       0.19827392
C       -1.17564684      -0.52314757       0.69664841
C       -2.34566267       0.27713115       0.15839296
O       -2.31732766       1.61182812       0.60856523
H        1.92468952      -0.01692294      -2.43455725
H        3.21297860      -0.40429638      -1.31448828
H        2.26554818       1.08504550      -1.08331520
H        0.06161691      -0.43863054      -0.95527949
H        1.89819097       0.51863698       1.20734216
H        1.12685381      -1.04926228       1.69899752
H       -1.24177950      -1.57774994       0.40160021
H       -1.19376305      -0.49926127       1.78776996
H       -2.36887276       0.23003520      -0.94023002
H       -3.28228308      -0.15744457       0.51288188
H       -1.43644582       1.95485220       0.43213630
18
Frame=8 idx=011099 GeodesicLength=0.5933303376097554 rxn_smarts="[C:1]([C@@:2]1([H:11])[C:3]([H:12])([H:13])[N:4]1[C:5]([C:6]([O:7][H:18])([H:16])[H:17])([H:14])[H:15])([H:8])([H:9])[H:10]>>[C:1]([C-:2]1[C:3]([H:12])([H:13])[N+:4]1([C:5]([C:6]([O:7][H:18])([H:16])[H:17])([H:14])[H:15])[H:11])([H:8])([H:9])[H:10]"
C        2.21396926       0.01912834      -1.38170835
C        1.31791720      -0.78167030      -0.48180142
C        1.27368819      -0.29800721       0.91159536
N        0.06399177       0.05398989       0.18492251
C       -1.17799725      -0.53681132       0.68229335
C       -2.34343043       0.28261676       0.16290385
O       -2.30522266       1.60748223       0.64094309
H        1.93132023      -0.04660667      -2.43329057
H        3.21771262      -0.40954595      -1.30469762
H        2.26120399       1.08044901      -1.10293294
H        0.06178332      -0.45392533      -0.98249152
H        1.87729307       0.56092505       1.20335974
H        1.13392064      -1.01364291       1.71799743
H       -1.25402755      -1.58563045       0.36976807
H       -1.19461474      -0.53527313       1.77348315
H       -2.37089465       0.25848545      -0.93632095
H       -3.28229669      -0.15266235       0.51062429
H       -1.42431633       1.95069891       0.46535254
18
Frame=9 idx=011099 GeodesicLength=0.6682140287886092 rxn_smarts="[C:1]([C@@:2]1([H:11])[C:3]([H:12])([H:13])[N:4]1[C:5]([C:6]([O:7][H:18])([H:16])[H:17])([H:14])[H:15])([H:8])([H:9])[H:10]>>[C:1]([C-:2]1[C:3]([H:12])([H:13])[N+:4]1([C:5]([C:6]([O:7][H:18])([H:16])[H:17])([H:14])[H:15])[H:11])([H:8])([H:9])[H:10]"
C        2.21734772       0.00782238      -1.38014023
C        1.31564677      -0.77258765      -0.46833495
C        1.27078975      -0.27260735       0.91846387
N        0.06235928       0.03623737       0.17191104
C       -1.18036022      -0.55047404       0.66774418
C       -2.34090064       0.28799167       0.16779725
O       -2.29280920       1.60213706       0.67408973
H        1.93844958      -0.07676180      -2.43153337
H        3.22244203      -0.41513141      -1.29442057
H        2.25719884       1.07515016      -1.12278936
H        0.06266576      -0.46937051      -1.00943571
H        1.85518332       0.60359946       1.19801560
H        1.13992038      -0.97644251       1.73641811
H       -1.26641261      -1.59293930       0.33727963
H       -1.19539348      -0.57173897       1.75853378
H       -2.37212666       0.28736177      -0.93154947
H       -3.28210812      -0.14793912       0.50839293
H       -1.41189248       1.94569278       0.49955753
18
Frame=10 idx=011099 GeodesicLength=0.7433413676263485 rxn_smarts="[C:1]([C@@:2]1([H:11])[C:3]([H:12])([H:13])[N:4]1[C:5]([C:6]([O:7][H:18])([H:16])[H:17])([H:14])[H:15])([H:8])([H:9])[H:10]>>[C:1]([C-:2]1[C:3]([H:12])([H:13])[N+:4]1([C:5]([C:6]([O:7][H:18])([H:16])[H:17])([H:14])[H:15])[H:11])([H:8])([H:9])[H:10]"
C        2.22088342      -0.00377673      -1.37831324
C        1.31298772      -0.76325306      -0.45530804
C        1.26700072      -0.24637986       0.92453872
N        0.06078750       0.01887361       0.15921201
C       -1.18272467      -0.56408442       0.65300053
C       -2.33809494       0.29324190       0.17310440
O       -2.28013129       1.59575874       0.70797182
H        1.94610124      -0.10733439      -2.42925109
H        3.22717943      -0.42105506      -1.28363792
H        2.25360409       1.06913694      -1.14282313
H        0.06424893      -0.48495900      -1.03613190
H        1.83189697       0.64655296       1.19127687
H        1.14476835      -0.93770167       1.75417845
H       -1.27891462      -1.59960514       0.30418646
H       -1.19603068      -0.60854967       1.74289599
H       -2.37261462       0.31660396      -0.92585547
H       -3.28171881      -0.14328194       0.50626135
H       -1.39922874       1.93981282       0.53469419
18
Frame=11 idx=011099 GeodesicLength=0.8187423242706624 rxn_smarts="[C:1]([C@@:2]1([H:11])[C:3]([H:12])([H:13])[N:4]1[C:5]([C:6]([O:7][H:18])([H:16])[H:17])([H:14])[H:15])([H:8])([H:9])[H:10]>>[C:1]([C-:2]1[C:3]([H:12])([H:13])[N+:4]1([C:5]([C:6]([O:7][H:18])([H:16])[H:17])([H:14])[H:15])[H:11])([H:8])([H:9])[H:10]"
C        2.22459597      -0.01565324      -1.37620375
C        1.30994722      -0.75366901      -0.44274870
C        1.26231340      -0.21938170       0.92977463
N        0.05928206       0.00194363       0.14680056
C       -1.18507939      -0.57758995       0.63806489
C       -2.33503460       0.29835340       0.17885190
O       -2.26723295       1.58831819       0.74254856
H        1.95429126      -0.13826922      -2.42641248
H        3.23193210      -0.42732041      -1.27233286
H        2.25048735       1.06240145      -1.16297256
H        0.06651608      -0.50067976      -1.06259987
H        1.80747950       0.68967800       1.18311772
H        1.14838730      -0.89747260       1.77119873
H       -1.29151098      -1.60555937       0.27054820
H       -1.19646177      -0.64559186       1.72655003
H       -2.37240336       0.34614982      -0.91918513
H       -3.28113031      -0.13870000       0.50429653
H       -1.38637887       1.93304262       0.57070360
18
Frame=12 idx=011099 GeodesicLength=0.8944487509211143 rxn_smarts="[C:1]([C@@:2]1([H:11])[C:3]([H:12])([H:13])[N:4]1[C:5]([C:6]([O:7][H:18])([H:16])[H:17])([H:14])[H:15])([H:8])([H:9])[H:10]>>[C:1]([C-:2]1[C:3]([H:12])([H:13])[N+:4]1([C:5]([C:6]([O:7][H:18])([H:16])[H:17])([H:14])[H:15])[H:11])([H:8])([H:9])[H:10]"
C        2.22850166      -0.02779343      -1.37378998
C        1.30653056      -0.74383668      -0.43068302
C        1.25672789      -0.19166892       0.93413055
N        0.05784740      -0.01450796       0.13465241
C       -1.18741387      -0.59093845       0.62293977
C       -2.33174149       0.30331325       0.18506224
O       -2.25415944       1.57978939       0.77778022
H        1.96303161      -0.16952023      -2.42298951
H        3.23670466      -0.43393228      -1.26048652
H        2.24791081       1.05493829      -1.18318126
H        0.06945031      -0.51652033      -1.08886011
H        1.78198574       0.73287438       1.17351603
H        1.15070949      -0.85581154       1.78740214
H       -1.30417834      -1.61073695       0.23642525
H       -1.19662691      -0.68275486       1.70947966
H       -2.37153771       0.37594280      -0.91149059
H       -3.28034615      -0.13420542       0.50255583
H       -1.37339621       1.92536895       0.60753688
18
Frame=13 idx=011099 GeodesicLength=0.9704923606752307 rxn_smarts="[C:1]([C@@:2]1([H:11])[C:3]([H:12])([H:13])[N:4]1[C:5]([C:6]([O:7][H:18])([H:16])[H:17])([H:14])[H:15])([H:8])([H:9])[H:10]>>[C:1]([C-:2]1[C:3]([H:12])([H:13])[N+:4]1([C:5]([C:6]([O:7][H:18])([H:16])[H:17])([H:14])[H:15])[H:11])([H:8])([H:9])[H:10]"
C        2.23261167      -0.04018236      -1.37105175
C        1.30274191      -0.73375687      -0.41913620
C        1.25025403      -0.16330122       0.93757089
N        0.05648752      -0.03043801       0.12274612
C       -1.18971803      -0.60407746       0.60763063
C       -2.32823805       0.30810907       0.19175251
O       -2.24095623       1.57015245       0.81361976
H        1.97232445      -0.20103927      -2.41895721
H        3.24149707      -0.44089620      -1.24808339
H        2.24593231       1.04674667      -1.20339155
H        0.07303328      -0.53246783      -1.11493208
H        1.75548198       0.77604359       1.16245802
H        1.15167985      -0.81278589       1.80271448
H       -1.31689239      -1.61507771       0.20188418
H       -1.19647168      -0.71992609       1.69167550
H       -2.37006304       0.40592493      -0.90273166
H       -3.27937183      -0.12981116       0.50108866
H       -1.36033283       1.91678338       0.64514308
18
Frame=14 idx=011099 GeodesicLength=1.0468899583254625 rxn_smarts="[C:1]([C@@:2]1([H:11])[C:3]([H:12])([H:13])[N:4]1[C:5]([C:6]([O:7][H:18])([H:16])[H:17])([H:14])[H:15])([H:8])([H:9])[H:10]>>[C:1]([C-:2]1[C:3]([H:12])([H:13])[N+:4]1([C:5]([C:6]([O:7][H:18])([H:16])[H:17])([H:14])[H:15])[H:11])([H:8])([H:9])[H:10]"
C        2.23694466      -0.05280684      -1.36797021
C        1.29859269      -0.72343439      -0.40813405
C        1.24292678      -0.13433998       0.94006285
N        0.05520665      -0.04580263       0.11106248
C       -1.19198952      -0.61695836       0.59214408
C       -2.32456583       0.31273224       0.19893565
O       -2.22768636       1.55940446       0.85001947
H        1.98217160      -0.23279207      -2.41429154
H        3.24632863      -0.44821645      -1.23510501
H        2.24461030       1.03783678      -1.22355143
H        0.07723935      -0.54851251      -1.14083346
H        1.72806944       0.81909630       1.14993790
H        1.15127808      -0.76847782       1.81705916
H       -1.32963862      -1.61853711       0.16699198
H       -1.19594997      -0.75699698       1.67313191
H       -2.36804807       0.43604275      -0.89287346
H       -3.27824030      -0.12553337       0.49993364
H       -1.34724952       1.90729597       0.68348005
18
Frame=15 idx=011099 GeodesicLength=1.1237184763703398 rxn_smarts="[C:1]([C@@:2]1([H:11])[C:3]([H:12])([H:13])[N:4]1[C:5]([C:6]([O:7][H:18])([H:16])[H:17])([H:14])[H:15])([H:8])([H:9])[H:10]>>[C:1]([C-:2]1[C:3]([H:12])([H:13])[N+:4]1([C:5]([C:6]([O:7][H:18])([H:16])[H:17])([H:14])[H:15])[H:11])([H:8])([H:9])[H:10]"
C        2.24148996      -0.06566657      -1.36452448
C        1.29406546      -0.71284507      -0.39768436
C        1.23469042      -0.10479459       0.94155958
N        0.05399103      -0.06057330       0.09955840
C       -1.19421098      -0.62953430       0.57646530
C       -2.32068868       0.31716894       0.20664499
O       -2.21431622       1.54746418       0.88698986
H        1.99259774      -0.26476831      -2.40895536
H        3.25114338      -0.45588743      -1.22151487
H        2.24398376       1.02816261      -1.24364190
H        0.08209616      -0.56465343      -1.16658522
H        1.69969943       0.86198603       1.13588005
H        1.14936312      -0.72285943       1.83037232
H       -1.34238990      -1.62102002       0.13176948
H       -1.19502785      -0.79390799       1.65381523
H       -2.36546429       0.46628114      -0.88185348
H       -3.27688619      -0.12137338       0.49915000
H       -1.33413635       1.89682091       0.72255444
18
Frame=16 idx=011099 GeodesicLength=1.201053084914397 rxn_smarts="[C:1]([C@@:2]1([H:11])[C:3]([H:12])([H:13])[N:4]1[C:5]([C:6]([O:7][H:18])([H:16])[H:17])([H:14])[H:15])([H:8])([H:9])[H:10]>>[C:1]([C-:2]1[C:3]([H:12])([H:13])[N+:4]1([C:5]([C:6]([O:7][H:18])([H:16])[H:17])([H:14])[H:15])[H:11])([H:8])([H:9])[H:10]"
C        2.24630899      -0.07884825      -1.36069713
C        1.28917163      -0.70198398      -0.38779668
C        1.22558941      -0.07458216       0.94200412
N        0.05282443      -0.07465582       0.08815580
C       -1.19638353      -0.64177826       0.56052014
C       -2.31668089       0.32143341       0.21490951
O       -2.20098072       1.53426684       0.92469733
H        2.00369484      -0.29721270      -2.40292244
H        3.25601650      -0.46398889      -1.20716975
H        2.24409852       1.01767534      -1.26375665
H        0.08758640      -0.58087767      -1.19226051
H        1.67046105       0.90482335       1.12018979
H        1.14594260      -0.67579623       1.84261725
H       -1.35513220      -1.62248306       0.09610555
H       -1.19364016      -0.83070040       1.63362698
H       -2.36240023       0.49678336      -0.86960150
H       -3.27538093      -0.11739393       0.49869147
H       -1.32109573       1.88531907       0.76268670
