12
Frame=0 idx=004466 GeodesicLength=0.0 rxn_smarts="[C:1]([C:2]([C:3](=[O:4])[C:5]#[C:6][H:12])([H:10])[H:11])([H:7])([H:8])[H:9]>>[C:1](=[C:2]([C:3]([O:4][H:9])=[C:5]=[C:6]([H:10])[H:12])[H:11])([H:7])[H:8]"
C       -1.69462768      -0.12456935       0.08365978
C       -0.41844039       0.37983278       0.33556123
C        0.61672491       0.10794491      -0.79017138
O        0.13205815      -0.11261997      -1.94573846
C        1.96351067       0.01712830      -0.42098499
C        2.02177128      -0.22990450       0.83060739
H       -2.57411654       0.43309736       0.37393631
H       -1.83652070      -1.18736318      -0.09096810
H       -0.86223331      -0.06006188      -1.77574995
H        0.42804780      -0.04130431       1.19509267
H       -0.40179588       1.44780859       0.57447790
H        2.62562170      -0.62998875       1.63027758
12
Frame=1 idx=004466 GeodesicLength=0.11496774098467957 rxn_smarts="[C:1]([C:2]([C:3](=[O:4])[C:5]#[C:6][H:12])([H:10])[H:11])([H:7])([H:8])[H:9]>>[C:1](=[C:2]([C:3]([O:4][H:9])=[C:5]=[C:6]([H:10])[H:12])[H:11])([H:7])[H:8]"
C       -1.69733825      -0.12193473       0.06788584
C       -0.42337474       0.38912950       0.32839263
C        0.61579636       0.12579839      -0.79269071
O        0.13538459      -0.09496775      -1.95129281
C        1.95513868      -0.00025020      -0.40981212
C        2.02594210      -0.25810867       0.83759386
H       -2.57852623       0.42797208       0.36857597
H       -1.82678876      -1.19087747      -0.07714459
H       -0.87948113      -0.06471741      -1.77548241
H        0.43149102      -0.04793125       1.21052727
H       -0.41361273       1.45892019       0.55971871
H        2.65536909      -0.62303268       1.63372835
12
Frame=2 idx=004466 GeodesicLength=0.22992031155765408 rxn_smarts="[C:1]([C:2]([C:3](=[O:4])[C:5]#[C:6][H:12])([H:10])[H:11])([H:7])([H:8])[H:9]>>[C:1](=[C:2]([C:3]([O:4][H:9])=[C:5]=[C:6]([H:10])[H:12])[H:11])([H:7])[H:8]"
C       -1.70004098      -0.11950811       0.05238568
C       -0.42831734       0.39814266       0.32134491
C        0.61501133       0.14284734      -0.79476887
O        0.13902039      -0.07718736      -1.95664941
C        1.94593030      -0.01849839      -0.39841520
C        2.02976472      -0.28897766       0.84421480
H       -2.58268234       0.42318860       0.36274627
H       -1.81757534      -1.19347160      -0.06395427
H       -0.89670221      -0.06817903      -1.77524047
H        0.43507524      -0.05648753       1.22652089
H       -0.42520471       1.46963950       0.54513922
H        2.68572095      -0.61150843       1.63667644
12
Frame=3 idx=004466 GeodesicLength=0.34480671383137684 rxn_smarts="[C:1]([C:2]([C:3](=[O:4])[C:5]#[C:6][H:12])([H:10])[H:11])([H:7])([H:8])[H:9]>>[C:1](=[C:2]([C:3]([O:4][H:9])=[C:5]=[C:6]([H:10])[H:12])[H:11])([H:7])[H:8]"
C       -1.70255100      -0.11740940       0.03732466
C       -0.43321681       0.40717422       0.31438829
C        0.61447896       0.15929320      -0.79634219
O        0.14316770      -0.05956445      -1.96166313
C        1.93602484      -0.03694872      -0.38671675
C        2.03355986      -0.32109352       0.85062193
H       -2.58656736       0.41846571       0.35648684
H       -1.80844913      -1.19540170      -0.05098483
H       -0.91383971      -0.07085579      -1.77489945
H        0.43899721      -0.06629320       1.24315094
H       -0.43679193       1.48033785       0.53032196
H        2.71518736      -0.59770421       1.63831173
12
Frame=4 idx=004466 GeodesicLength=0.45966673030310257 rxn_smarts="[C:1]([C:2]([C:3](=[O:4])[C:5]#[C:6][H:12])([H:10])[H:11])([H:7])([H:8])[H:9]>>[C:1](=[C:2]([C:3]([O:4][H:9])=[C:5]=[C:6]([H:10])[H:12])[H:11])([H:7])[H:8]"
C       -1.70472259      -0.11579046       0.02284432
C       -0.43811496       0.41662108       0.30742812
C        0.61423999       0.17540521      -0.79740490
O        0.14797465      -0.04241992      -1.96625002
C        1.92556082      -0.05478556      -0.37465276
C        2.03774122      -0.35233996       0.85709103
H       -2.59024789       0.41344392       0.34982622
H       -1.79888892      -1.19693383      -0.03775988
H       -0.93087442      -0.07329037      -1.77436481
H        0.44341428      -0.07642784       1.26051667
H       -0.44881709       1.49149219       0.51468127
H        2.74273489      -0.58497445       1.63804476
12
Frame=5 idx=004466 GeodesicLength=0.5745160475725624 rxn_smarts="[C:1]([C:2]([C:3](=[O:4])[C:5]#[C:6][H:12])([H:10])[H:11])([H:7])([H:8])[H:9]>>[C:1](=[C:2]([C:3]([O:4][H:9])=[C:5]=[C:6]([H:10])[H:12])[H:11])([H:7])[H:8]"
C       -1.70651913      -0.11477374       0.00898457
C       -0.44315499       0.42684651       0.30033523
C        0.61424039       0.19145900      -0.79797624
O        0.15352710      -0.02597277      -1.97038635
C        1.91459535      -0.07120092      -0.36209580
C        2.04251131      -0.38093445       0.86394380
H       -2.59385837       0.40783474       0.34267722
H       -1.78852737      -1.19826076      -0.02386960
H       -0.94781996      -0.07601669      -1.77360381
H        0.44831360      -0.08606811       1.27874594
H       -0.46175871       1.50351784       0.49765155
H        2.76845078      -0.57643064       1.63559349
12
Frame=6 idx=004466 GeodesicLength=0.6893911091312315 rxn_smarts="[C:1]([C:2]([C:3](=[O:4])[C:5]#[C:6][H:12])([H:10])[H:11])([H:7])([H:8])[H:9]>>[C:1](=[C:2]([C:3]([O:4][H:9])=[C:5]=[C:6]([H:10])[H:12])[H:11])([H:7])[H:8]"
C       -1.70805718      -0.11423887      -0.00435969
C       -0.44836663       0.43768724       0.29309922
C        0.61440333       0.20729098      -0.79810787
O        0.15976302      -0.01009259      -1.97419660
C        1.90308864      -0.08655951      -0.34904524
C        2.04784240      -0.40736372       0.87115428
H       -2.59741632       0.40184701       0.33511042
H       -1.77767983      -1.19924583      -0.00958107
H       -0.96484347      -0.07878816      -1.77271338
H        0.45358446      -0.09589663       1.29780256
H       -0.47543816       1.51619378       0.47938400
H        2.79311973      -0.57083370       1.63145336
12
Frame=7 idx=004466 GeodesicLength=0.8042694021315487 rxn_smarts="[C:1]([C:2]([C:3](=[O:4])[C:5]#[C:6][H:12])([H:10])[H:11])([H:7])([H:8])[H:9]>>[C:1](=[C:2]([C:3]([O:4][H:9])=[C:5]=[C:6]([H:10])[H:12])[H:11])([H:7])[H:8]"
C       -1.70938298      -0.11416199      -0.01723783
C       -0.45384252       0.44921958       0.28564999
C        0.61467501       0.22299030      -0.79781496
O        0.16672778       0.00522993      -1.97768739
C        1.89105238      -0.10059599      -0.33539285
C        2.05367080      -0.43164175       0.87872199
H       -2.60099720       0.39546642       0.32710400
H       -1.76632885      -1.19986093       0.00517924
H       -0.98200177      -0.08174139      -1.77171452
H        0.45914743      -0.10589040       1.31772564
H       -0.48998353       1.52954844       0.45972634
H        2.81726345      -0.56856221       1.62574036
12
Frame=8 idx=004466 GeodesicLength=0.9191525166423797 rxn_smarts="[C:1]([C:2]([C:3](=[O:4])[C:5]#[C:6][H:12])([H:10])[H:11])([H:7])([H:8])[H:9]>>[C:1](=[C:2]([C:3]([O:4][H:9])=[C:5]=[C:6]([H:10])[H:12])[H:11])([H:7])[H:8]"
C       -1.71055547      -0.11444694      -0.02970829
C       -0.45959744       0.46135702       0.27797263
C        0.61502277       0.23848583      -0.79711629
O        0.17442905       0.02009151      -1.98091106
C        1.87847861      -0.11350009      -0.32110406
C        2.05995493      -0.45428974       0.88656576
H       -2.60460001       0.38883180       0.31872529
H       -1.75465160      -1.20000037       0.02027308
H       -0.99939637      -0.08475999      -1.77065641
H        0.46494179      -0.11654804       1.33849783
H       -0.50527118       1.54343489       0.43875806
H        2.84124494      -0.56865587       1.61870346
12
Frame=9 idx=004466 GeodesicLength=1.0340400481918666 rxn_smarts="[C:1]([C:2]([C:3](=[O:4])[C:5]#[C:6][H:12])([H:10])[H:11])([H:7])([H:8])[H:9]>>[C:1](=[C:2]([C:3]([O:4][H:9])=[C:5]=[C:6]([H:10])[H:12])[H:11])([H:7])[H:8]"
C       -1.71162017      -0.11499409      -0.04181444
C       -0.46562898       0.47401759       0.27005923
C        0.61543228       0.25369967      -0.79601349
O        0.18289152       0.03458383      -1.98390010
C        1.86535377      -0.12550952      -0.30614476
C        2.06669600      -0.47571429       0.89461632
H       -2.60821077       0.38208275       0.31004400
H       -1.74281863      -1.19956167       0.03556937
H       -1.01712040      -0.08774023      -1.76956627
H        0.47091917      -0.12840632       1.36008710
H       -0.52115784       1.55771501       0.41655544
H        2.86526405      -0.57017273       1.61050759
12
Frame=10 idx=004466 GeodesicLength=1.1489299945302793 rxn_smarts="[C:1]([C:2]([C:3](=[O:4])[C:5]#[C:6][H:12])([H:10])[H:11])([H:7])([H:8])[H:9]>>[C:1](=[C:2]([C:3]([O:4][H:9])=[C:5]=[C:6]([H:10])[H:12])[H:11])([H:7])[H:8]"
C       -1.71258760      -0.11577429      -0.05356656
C       -0.47198189       0.48726674       0.26186040
C        0.61588504       0.26870863      -0.79450781
O        0.19218111       0.04870878      -1.98664728
C        1.85170855      -0.13641959      -0.29042963
C        2.07387132      -0.49603642       0.90282992
H       -2.61185450       0.37521926       0.30108585
H       -1.73080623      -1.19852087       0.05112696
H       -1.03521804      -0.09079145      -1.76845883
H        0.47706343      -0.14156895       1.38253657
H       -0.53770001       1.57241297       0.39300340
H        2.88943883      -0.57320481       1.60116701
12
Frame=11 idx=004466 GeodesicLength=1.2638233314367995 rxn_smarts="[C:1]([C:2]([C:3](=[O:4])[C:5]#[C:6][H:12])([H:10])[H:11])([H:7])([H:8])[H:9]>>[C:1](=[C:2]([C:3]([O:4][H:9])=[C:5]=[C:6]([H:10])[H:12])[H:11])([H:7])[H:8]"
C       -1.71347613      -0.11672571      -0.06497840
C       -0.47867403       0.50111237       0.25334458
C        0.61637230       0.28352190      -0.79259022
O        0.20235873       0.06249937      -1.98915027
C        1.83755455      -0.14622350      -0.27388705
C        2.08148852      -0.51544028       0.91115569
H       -2.61553130       0.36830558       0.29189257
H       -1.71867207      -1.19681326       0.06693425
H       -1.05374887      -0.09394472      -1.76733832
H        0.48335441      -0.15636983       1.40584859
H       -0.55486059       1.58748767       0.36805782
H        2.91383447      -0.57740961       1.59071076
12
Frame=12 idx=004466 GeodesicLength=1.3787170286710324 rxn_smarts="[C:1]([C:2]([C:3](=[O:4])[C:5]#[C:6][H:12])([H:10])[H:11])([H:7])([H:8])[H:9]>>[C:1](=[C:2]([C:3]([O:4][H:9])=[C:5]=[C:6]([H:10])[H:12])[H:11])([H:7])[H:8]"
C       -1.71430081      -0.11778884      -0.07605720
C       -0.48572306       0.51557333       0.24447393
C        0.61688775       0.29815241      -0.79024884
O        0.21349085       0.07596911      -1.99139610
C        1.82290260      -0.15490525      -0.25644259
C        2.08956628      -0.53406310       0.91954521
H       -2.61924095       0.36140107       0.28250934
H       -1.70645930      -1.19437692       0.08299164
H       -1.07277520      -0.09722376      -1.76620826
H        0.48977812      -0.17315491       1.43002486
H       -0.57260901       1.60290810       0.34165273
H        2.93848274      -0.58249124       1.57915527
12
Frame=13 idx=004466 GeodesicLength=1.4936171707098636 rxn_smarts="[C:1]([C:2]([C:3](=[O:4])[C:5]#[C:6][H:12])([H:10])[H:11])([H:7])([H:8])[H:9]>>[C:1](=[C:2]([C:3]([O:4][H:9])=[C:5]=[C:6]([H:10])[H:12])[H:11])([H:7])[H:8]"
C       -1.71507366      -0.11890714      -0.08680553
C       -0.49315264       0.53068492       0.23520456
C        0.61742632       0.31262740      -0.78746555
O        0.22565890       0.08914188      -1.99336632
C        1.80775054      -0.16243071      -0.23800673
C        2.09812414      -0.55198172       0.92796186
H       -2.62298566       0.35455989       0.27296942
H       -1.69420041      -1.19114758       0.09932453
H       -1.09235272      -0.10069163      -1.76506477
H        0.49632286      -0.19227317       1.45506838
H       -0.59092821       1.61865753       0.31369739
H        2.96341053      -0.58823967       1.56648277
12
Frame=14 idx=004466 GeodesicLength=1.608519750641065 rxn_smarts="[C:1]([C:2]([C:3](=[O:4])[C:5]#[C:6][H:12])([H:10])[H:11])([H:7])([H:8])[H:9]>>[C:1](=[C:2]([C:3]([O:4][H:9])=[C:5]=[C:6]([H:10])[H:12])[H:11])([H:7])[H:8]"
C       -1.71581031      -0.12001307      -0.09722267
C       -0.50097857       0.54647465       0.22548751
C        0.61798614       0.32695205      -0.78421910
O        0.23894507       0.10201002      -1.99502883
C        1.79209065      -0.16880368      -0.21848910
C        2.10719883      -0.56926492       0.93636526
H       -2.62676263       0.34785534       0.26332232
H       -1.68193986      -1.18705071       0.11594148
H       -1.11255482      -0.10435913      -1.76390480
H        0.50298039      -0.21416678       1.48096099
H       -0.60977772       1.63470655       0.28409574
H        2.98862284      -0.59434033       1.55269119
12
Frame=15 idx=004466 GeodesicLength=1.7234289548033936 rxn_smarts="[C:1]([C:2]([C:3](=[O:4])[C:5]#[C:6][H:12])([H:10])[H:11])([H:7])([H:8])[H:9]>>[C:1](=[C:2]([C:3]([O:4][H:9])=[C:5]=[C:6]([H:10])[H:12])[H:11])([H:7])[H:8]"
C       -1.71652418      -0.12104131      -0.10730290
C       -0.50922579       0.56299131       0.21526468
C        0.61856574       0.34115139      -0.78048036
O        0.25345148       0.11457432      -1.99634258
C        1.77590064      -0.17398832      -0.19777369
C        2.11682211      -0.58592544       0.94472618
H       -2.63057402       0.34135707       0.25360242
H       -1.66971030      -1.18200513       0.13288434
H       -1.13344704      -0.10828839      -1.76271547
H        0.50974614      -0.23929034       1.50767865
H       -0.62913540       1.65104178       0.25271888
H        3.01413061      -0.60057693       1.53773984
12
Frame=16 idx=004466 GeodesicLength=1.8383459604528014 rxn_smarts="[C:1]([C:2]([C:3](=[O:4])[C:5]#[C:6][H:12])([H:10])[H:11])([H:7])([H:8])[H:9]>>[C:1](=[C:2]([C:3]([O:4][H:9])=[C:5]=[C:6]([H:10])[H:12])[H:11])([H:7])[H:8]"
C       -1.71723228      -0.12191350      -0.11703597
C       -0.51791350       0.58028279       0.20446989
C        0.61916634       0.35523409      -0.77621543
O        0.26928736       0.12680775      -1.99725211
C        1.75914621      -0.17796965      -0.17573049
C        2.12703661      -0.60196551       0.95301348
H       -2.63441798       0.33515757       0.24385604
H       -1.65755452      -1.17591384       0.15019184
H       -1.15511248      -0.11251030      -1.76148014
H        0.51662248      -0.26821119       1.53516278
H       -0.64895873       1.66764199       0.21942129
H        3.03993049      -0.60664021       1.52159882
