17
Frame=0 idx=009664 GeodesicLength=0.0 rxn_smarts="[C:1]([C@@:2]12[C:3]([H:11])([H:12])[C@@:4]([H:13])([C:5]([H:14])([H:15])[C:6]1([H:16])[H:17])[O:7]2)([H:8])([H:9])[H:10]>>[C:1]([C:2]1([C:6]([H:11])([H:16])[H:17])[C@:3]2([H:12])[C@@:4]([H:13])([C:5]2([H:14])[H:15])[O:7]1)([H:8])([H:9])[H:10]"
C        2.15663778       0.30232524       0.06644060
C        0.67326708       0.09703165      -0.01114600
C       -0.09815090      -1.12665191       0.45630444
C       -0.87672083      -0.87430222      -0.80721346
C       -2.04776186      -0.02768491      -0.60935205
C       -0.25400223       1.04161035       0.75094330
O        0.19190996      -0.07491046      -1.36813617
H        2.43476203       1.24873816      -0.40158827
H        2.67092287      -0.50653234      -0.45298771
H        2.48812108       0.31999846       1.10588421
H       -0.93516225       0.04928358       1.11858522
H        0.32094602      -2.07041901       0.79505660
H       -1.06872665      -1.78700768      -1.38782436
H       -2.75813502      -0.29190531       0.16729462
H       -2.44623688       0.50403655      -1.46973228
H       -0.60820358       1.96337962       0.30282635
H        0.15653331       1.23301028       1.74464494
17
Frame=1 idx=009664 GeodesicLength=0.09287360325037583 rxn_smarts="[C:1]([C@@:2]12[C:3]([H:11])([H:12])[C@@:4]([H:13])([C:5]([H:14])([H:15])[C:6]1([H:16])[H:17])[O:7]2)([H:8])([H:9])[H:10]>>[C:1]([C:2]1([C:6]([H:11])([H:16])[H:17])[C@:3]2([H:12])[C@@:4]([H:13])([C:5]2([H:14])[H:15])[O:7]1)([H:8])([H:9])[H:10]"
C        2.15005633       0.29640064       0.07459384
C        0.66597479       0.10126442      -0.01349208
C       -0.11034919      -1.12382523       0.44538343
C       -0.86571677      -0.87849432      -0.83143865
C       -2.03307842      -0.03657679      -0.59091248
C       -0.26006787       1.05097105       0.74234930
O        0.19532159      -0.06111789      -1.37513890
H        2.43542292       1.24399044      -0.38659928
H        2.66157935      -0.51530807      -0.44313298
H        2.47489047       0.30790327       1.11631830
H       -0.92693882       0.04181199       1.14759176
H        0.31531478      -2.06706694       0.77649401
H       -1.05567922      -1.78288128      -1.42363780
H       -2.73893722      -0.27201215       0.19850901
H       -2.47130783       0.45924194      -1.45380377
H       -0.58761048       1.97819519       0.28410797
H        0.15112559       1.25750373       1.73280833
17
Frame=2 idx=009664 GeodesicLength=0.18575766829278184 rxn_smarts="[C:1]([C@@:2]12[C:3]([H:11])([H:12])[C@@:4]([H:13])([C:5]([H:14])([H:15])[C:6]1([H:16])[H:17])[O:7]2)([H:8])([H:9])[H:10]>>[C:1]([C:2]1([C:6]([H:11])([H:16])[H:17])[C@:3]2([H:12])[C@@:4]([H:13])([C:5]2([H:14])[H:15])[O:7]1)([H:8])([H:9])[H:10]"
C        2.14313832       0.29057906       0.08260822
C        0.65850941       0.10549607      -0.01595804
C       -0.12280651      -1.12088658       0.43439312
C       -0.85481535      -0.88233469      -0.85551597
C       -2.01808647      -0.04597785      -0.57324233
C       -0.26635973       1.06025646       0.73373941
O        0.19863239      -0.04770353      -1.38209505
H        2.43560854       1.23924340      -0.37183316
H        2.65191472      -0.52401128      -0.43332032
H        2.46123691       0.29613140       1.12655546
H       -0.91750629       0.03423433       1.17674200
H        0.30935651      -2.06344746       0.75813587
H       -1.04273564      -1.77832038      -1.45912381
H       -2.71928794      -0.25102384       0.22830054
H       -2.49506043       0.41393455      -1.43593246
H       -0.56711517       1.99227483       0.26568886
H        0.14537673       1.28155552       1.72085766
17
Frame=3 idx=009664 GeodesicLength=0.27866170316377753 rxn_smarts="[C:1]([C@@:2]12[C:3]([H:11])([H:12])[C@@:4]([H:13])([C:5]([H:14])([H:15])[C:6]1([H:16])[H:17])[O:7]2)([H:8])([H:9])[H:10]>>[C:1]([C:2]1([C:6]([H:11])([H:16])[H:17])[C@:3]2([H:12])[C@@:4]([H:13])([C:5]2([H:14])[H:15])[O:7]1)([H:8])([H:9])[H:10]"
C        2.13589813       0.28488726       0.09044766
C        0.65088288       0.10972157      -0.01852820
C       -0.13546213      -1.11785365       0.42339436
C       -0.84406274      -0.88583622      -0.87931931
C       -2.00286555      -0.05579154      -0.55632490
C       -0.27285469       1.06943706       0.72516777
O        0.20180104      -0.03469213      -1.38897360
H        2.43529946       1.23453041      -0.35734563
H        2.64193899      -0.53260804      -0.42359942
H        2.44721945       0.28472174       1.13654814
H       -0.90686431       0.02647860       1.20593639
H        0.30315011      -2.05959117       0.73999834
H       -1.02996588      -1.77333725      -1.49415943
H       -2.69924219      -0.22876576       0.25656907
H       -2.51738871       0.36805843      -1.41642763
H       -0.54673877       2.00562023       0.24770333
H        0.13925492       1.30502046       1.70891307
17
Frame=4 idx=009664 GeodesicLength=0.3715935897468141 rxn_smarts="[C:1]([C@@:2]12[C:3]([H:11])([H:12])[C@@:4]([H:13])([C:5]([H:14])([H:15])[C:6]1([H:16])[H:17])[O:7]2)([H:8])([H:9])[H:10]>>[C:1]([C:2]1([C:6]([H:11])([H:16])[H:17])[C@:3]2([H:12])[C@@:4]([H:13])([C:5]2([H:14])[H:15])[O:7]1)([H:8])([H:9])[H:10]"
C        2.12835737       0.27934386       0.09808142
C        0.64311142       0.11393934      -0.02118526
C       -0.14825905      -1.11473754       0.41244865
C       -0.83350043      -0.88900793      -0.90273430
C       -1.98748887      -0.06590033      -0.54014255
C       -0.27952167       1.07849814       0.71668010
O        0.20479173      -0.02209518      -1.39574524
H        2.43449535       1.22987486      -0.34318462
H        2.63166546      -0.54107489      -0.41401336
H        2.43290171       0.27370065       1.14625716
H       -0.89503390       0.01848730       1.23506462
H        0.29676507      -2.05552230       0.72210025
H       -1.01743427      -1.76793753      -1.52863476
H       -2.67884033      -0.20511193       0.28319264
H       -2.53826945       0.32152000      -1.39555602
H       -0.52647037       2.01825875       0.23027429
H        0.13273023       1.32776472       1.69709697
17
Frame=5 idx=009664 GeodesicLength=0.4645536324154085 rxn_smarts="[C:1]([C@@:2]12[C:3]([H:11])([H:12])[C@@:4]([H:13])([C:5]([H:14])([H:15])[C:6]1([H:16])[H:17])[O:7]2)([H:8])([H:9])[H:10]>>[C:1]([C:2]1([C:6]([H:11])([H:16])[H:17])[C@:3]2([H:12])[C@@:4]([H:13])([C:5]2([H:14])[H:15])[O:7]1)([H:8])([H:9])[H:10]"
C        2.12053904       0.27396413       0.10548095
C        0.63520984       0.11814861      -0.02391153
C       -0.16114783      -1.11154754       0.40162053
C       -0.82316999      -0.89186371      -0.92565672
C       -1.97202951      -0.07618290      -0.52467823
C       -0.28633144       1.08743440       0.70831035
O        0.20757018      -0.00992431      -1.40238345
H        2.43320105       1.22529364      -0.32940201
H        2.62110775      -0.54939737      -0.40459857
H        2.41834726       0.26309532       1.15564622
H       -0.88205674       0.01020798       1.26401684
H        0.29026006      -2.05126130       0.70446803
H       -1.00520616      -1.76212712      -1.56245405
H       -2.65811798      -0.18000969       0.30802087
H       -2.55766394       0.27426078      -1.37350651
H       -0.50628777       2.03023142       0.21350597
H        0.12577619       1.34967766       1.68552131
17
Frame=6 idx=009664 GeodesicLength=0.5575505335881085 rxn_smarts="[C:1]([C@@:2]12[C:3]([H:11])([H:12])[C@@:4]([H:13])([C:5]([H:14])([H:15])[C:6]1([H:16])[H:17])[O:7]2)([H:8])([H:9])[H:10]>>[C:1]([C:2]1([C:6]([H:11])([H:16])[H:17])[C@:3]2([H:12])[C@@:4]([H:13])([C:5]2([H:14])[H:15])[O:7]1)([H:8])([H:9])[H:10]"
C        2.11247663       0.26875360       0.11262751
C        0.62720145       0.12235525      -0.02669022
C       -0.17408357      -1.10827963       0.39096042
C       -0.81310166      -0.89440552      -0.94800417
C       -1.95654062      -0.08648992      -0.50991609
C       -0.29323915       1.09626118       0.70007881
O        0.21011834       0.00182609      -1.40886918
H        2.43144920       1.22079180      -0.31603534
H        2.61028525      -0.55757366      -0.39538001
H        2.40362244       0.25291539       1.16469361
H       -0.86800160       0.00161348       1.29268339
H        0.28367647      -2.04681629       0.68712730
H       -0.99334212      -1.75590581      -1.59554044
H       -2.63713147      -0.15348631       0.33088756
H       -2.57563161       0.22617030      -1.35040227
H       -0.48613110       2.04160258       0.19748633
H        0.11837311       1.37066746       1.67429279
17
Frame=7 idx=009664 GeodesicLength=0.6505908374224257 rxn_smarts="[C:1]([C@@:2]12[C:3]([H:11])([H:12])[C@@:4]([H:13])([C:5]([H:14])([H:15])[C:6]1([H:16])[H:17])[O:7]2)([H:8])([H:9])[H:10]>>[C:1]([C:2]1([C:6]([H:11])([H:16])[H:17])[C@:3]2([H:12])[C@@:4]([H:13])([C:5]2([H:14])[H:15])[O:7]1)([H:8])([H:9])[H:10]"
C        2.10420197       0.26371174       0.11950932
C        0.61910684       0.12656587      -0.02950631
C       -0.18703163      -1.10492870       0.38051445
C       -0.80332301      -0.89663295      -0.96971549
C       -1.94106932      -0.09667192      -0.49585119
C       -0.30020419       1.10500601       0.69198662
O        0.21242696       0.01316232      -1.41518897
H        2.42927901       1.21636559      -0.30311644
H        2.59921585      -0.56561066      -0.38636893
H        2.38878409       0.24317003       1.17338667
H       -0.85295829      -0.00731497       1.32095725
H        0.27704119      -2.04219543       0.67009834
H       -0.98190176      -1.74926253      -1.62783899
H       -2.61592679      -0.12563307       0.35162901
H       -2.59221076       0.17715155      -1.32626877
H       -0.46593308       2.05244547       0.18228223
H        0.11050292       1.39067165       1.66349121
17
Frame=8 idx=009664 GeodesicLength=0.7436764225034141 rxn_smarts="[C:1]([C@@:2]12[C:3]([H:11])([H:12])[C@@:4]([H:13])([C:5]([H:14])([H:15])[C:6]1([H:16])[H:17])[O:7]2)([H:8])([H:9])[H:10]>>[C:1]([C:2]1([C:6]([H:11])([H:16])[H:17])[C@:3]2([H:12])[C@@:4]([H:13])([C:5]2([H:14])[H:15])[O:7]1)([H:8])([H:9])[H:10]"
C        2.09575109       0.25883391       0.12612613
C        0.61095001       0.13079036      -0.03234995
C       -0.19996623      -1.10148269       0.37031078
C       -0.79385253      -0.89854647      -0.99075428
C       -1.92565342      -0.10657066      -0.48248404
C       -0.30718463       1.11370572       0.68401664
O        0.21450045       0.02410081      -1.42134309
H        2.42674316       1.21200585      -0.29066277
H        2.58792244      -0.57352436      -0.37756253
H        2.37388236       0.23385896       1.18172765
H       -0.83703603      -0.01658348       1.34872927
H        0.27036446      -2.03739933       0.65339815
H       -0.97093388      -1.74218930      -1.65932147
H       -2.59457081      -0.09660614       0.37009570
H       -2.60745246       0.12711504      -1.30102924
H       -0.44560750       2.06283937       0.16792784
H        0.10214352       1.40965242       1.65317519
17
Frame=9 idx=009664 GeodesicLength=0.8367985323104489 rxn_smarts="[C:1]([C@@:2]12[C:3]([H:11])([H:12])[C@@:4]([H:13])([C:5]([H:14])([H:15])[C:6]1([H:16])[H:17])[O:7]2)([H:8])([H:9])[H:10]>>[C:1]([C:2]1([C:6]([H:11])([H:16])[H:17])[C@:3]2([H:12])[C@@:4]([H:13])([C:5]2([H:14])[H:15])[O:7]1)([H:8])([H:9])[H:10]"
C        2.08716292       0.25409727       0.13249146
C        0.60276236       0.13504125      -0.03520024
C       -0.21286872      -1.09793017       0.36036253
C       -0.78470844      -0.90008695      -1.01110632
C       -1.91028297      -0.11599239      -0.46984422
C       -0.31412153       1.12239385       0.67619460
O        0.21636786       0.03467240      -1.42730765
H        2.42390520       1.20768118      -0.27865382
H        2.57642744      -0.58133956      -0.36895631
H        2.35896024       0.22494433       1.18972731
H       -0.82034489      -0.02614073       1.37599202
H        0.26363960      -2.03243663       0.63701699
H       -0.96044705      -1.73461506      -1.68998704
H       -2.57309612      -0.06659002       0.38618294
H       -2.62163514       0.07581247      -1.27470689
H       -0.42507015       2.07285764       0.15444891
H        0.09334940       1.42763112       1.64334573
17
Frame=10 idx=009664 GeodesicLength=0.9299690638767926 rxn_smarts="[C:1]([C@@:2]12[C:3]([H:11])([H:12])[C@@:4]([H:13])([C:5]([H:14])([H:15])[C:6]1([H:16])[H:17])[O:7]2)([H:8])([H:9])[H:10]>>[C:1]([C:2]1([C:6]([H:11])([H:16])[H:17])[C@:3]2([H:12])[C@@:4]([H:13])([C:5]2([H:14])[H:15])[O:7]1)([H:8])([H:9])[H:10]"
C        2.07846286       0.24949807       0.13860853
C        0.59455783       0.13933229      -0.03806540
C       -0.22572983      -1.09424308       0.35068212
C       -0.77589205      -0.90128731      -1.03077120
C       -1.89501614      -0.12481590      -0.45791994
C       -0.32098790       1.13114314       0.66842700
O        0.21804049       0.04489055      -1.43311338
H        2.42082329       1.20337792      -0.26711969
H        2.56474490      -0.58908094      -0.36052190
H        2.34404391       0.21644621       1.19740106
H       -0.80299929      -0.03603358       1.40259323
H        0.25685422      -2.02729058       0.62097521
H       -0.95051714      -1.72656155      -1.71983525
H       -2.55162129      -0.03584675       0.39981104
H       -2.63460150       0.02328446      -1.24707372
H       -0.40420629       2.08259713       0.14185213
H        0.08404393       1.44458990       1.63407018
17
Frame=11 idx=009664 GeodesicLength=1.0231929509971263 rxn_smarts="[C:1]([C@@:2]12[C:3]([H:11])([H:12])[C@@:4]([H:13])([C:5]([H:14])([H:15])[C:6]1([H:16])[H:17])[O:7]2)([H:8])([H:9])[H:10]>>[C:1]([C:2]1([C:6]([H:11])([H:16])[H:17])[C@:3]2([H:12])[C@@:4]([H:13])([C:5]2([H:14])[H:15])[O:7]1)([H:8])([H:9])[H:10]"
C        2.06967353       0.24502427       0.14449345
C        0.58635350       0.14367319      -0.04094681
C       -0.23854240      -1.09040667       0.34126718
C       -0.76741476      -0.90214208      -1.04977156
C       -1.87986363      -0.13291419      -0.44673079
C       -0.32775774       1.14000410       0.66065830
O        0.21955227       0.05476534      -1.43877698
H        2.41755306       1.19907170      -0.25605793
H        2.55288936      -0.59677211      -0.35222333
H        2.32914543       0.20836503       1.20477356
H       -0.78511895      -0.04626386       1.42847842
H        0.24999129      -2.02196017       0.60526732
H       -0.94119991      -1.71800517      -1.74890115
H       -2.53022585      -0.00462992       0.41094538
H       -2.64630027      -0.03049201      -1.21793037
H       -0.38293402       2.09212620       0.13012179
H        0.07419910       1.46055634       1.62533354
17
Frame=12 idx=009664 GeodesicLength=1.1164628046401661 rxn_smarts="[C:1]([C@@:2]12[C:3]([H:11])([H:12])[C@@:4]([H:13])([C:5]([H:14])([H:15])[C:6]1([H:16])[H:17])[O:7]2)([H:8])([H:9])[H:10]>>[C:1]([C:2]1([C:6]([H:11])([H:16])[H:17])[C@:3]2([H:12])[C@@:4]([H:13])([C:5]2([H:14])[H:15])[O:7]1)([H:8])([H:9])[H:10]"
C        2.06081547       0.24066410       0.15017059
C        0.57816730       0.14807423      -0.04385268
C       -0.25130365      -1.08640399       0.33209624
C       -0.75926755      -0.90265537      -1.06814288
C       -1.86483261      -0.14017502      -0.43630481
C       -0.33441103       1.14902749       0.65281086
O        0.22094993       0.06430174      -1.44432676
H        2.41414821       1.19474030      -0.24545671
H        2.54087885      -0.60443922      -0.34401310
H        2.31426464       0.20070368       1.21188043
H       -0.76682390      -0.05683910       1.45357987
H        0.24303019      -2.01644139       0.58987612
H       -0.93253112      -1.70893205      -1.77722832
H       -2.50902203       0.02679668       0.41958592
H       -2.65667844      -0.08548846      -1.18700906
H       -0.36116093       2.10149965       0.11922495
H        0.06377668       1.47556674       1.61710936
17
Frame=13 idx=009664 GeodesicLength=1.2097651998092627 rxn_smarts="[C:1]([C@@:2]12[C:3]([H:11])([H:12])[C@@:4]([H:13])([C:5]([H:14])([H:15])[C:6]1([H:16])[H:17])[O:7]2)([H:8])([H:9])[H:10]>>[C:1]([C:2]1([C:6]([H:11])([H:16])[H:17])[C@:3]2([H:12])[C@@:4]([H:13])([C:5]2([H:14])[H:15])[O:7]1)([H:8])([H:9])[H:10]"
C        2.05190224       0.23640358       0.15567030
C        0.57001229       0.15254194      -0.04678930
C       -0.26401144      -1.08223017       0.32313772
C       -0.75145358      -0.90281953      -1.08593220
C       -1.84991756      -0.14649164      -0.42668436
C       -0.34093505       1.15825448       0.64482204
O        0.22228509       0.07350164      -1.44978334
H        2.41065611       1.19036029      -0.23528961
H        2.52872861      -0.61210439      -0.33584148
H        2.29938873       0.19345767       1.21876098
H       -0.74820742      -0.06775426       1.47788769
H        0.23595170      -2.01074579       0.57476804
H       -0.92453961      -1.69931323      -1.80487302
H       -2.48809312       0.05820317       0.42576854
H       -2.66568842      -0.14169063      -1.15406983
H       -0.33882265       2.11075432       0.10912723
H        0.05274409       1.48967255       1.60932059
17
Frame=14 idx=009664 GeodesicLength=1.3031163754140804 rxn_smarts="[C:1]([C@@:2]12[C:3]([H:11])([H:12])[C@@:4]([H:13])([C:5]([H:14])([H:15])[C:6]1([H:16])[H:17])[O:7]2)([H:8])([H:9])[H:10]>>[C:1]([C:2]1([C:6]([H:11])([H:16])[H:17])[C@:3]2([H:12])[C@@:4]([H:13])([C:5]2([H:14])[H:15])[O:7]1)([H:8])([H:9])[H:10]"
C        2.04293131       0.23224516       0.16101080
C        0.56188928       0.15707567      -0.04978144
C       -0.27666367      -1.07788314       0.31436819
C       -0.74395630      -0.90268734      -1.10319043
C       -1.83514805      -0.15186291      -0.41787715
C       -0.34734823       1.16772087       0.63657311
O        0.22360100       0.08233844      -1.45519041
H        2.40709609       1.18592072      -0.22555895
H        2.51644754      -0.61977660      -0.32764970
H        2.28448915       0.18666389       1.22544603
H       -0.72936583      -0.07906954       1.50134074
H        0.22874772      -2.00487528       0.55993138
H       -0.91731109      -1.68917020      -1.83189640
H       -2.46757069       0.08934287       0.42957499
H       -2.67299146      -0.19881220      -1.11881839
H       -0.31586549       2.11991640       0.09977888
H        0.04101873       1.50291319       1.60193874
17
Frame=15 idx=009664 GeodesicLength=1.3965130086947617 rxn_smarts="[C:1]([C@@:2]12[C:3]([H:11])([H:12])[C@@:4]([H:13])([C:5]([H:14])([H:15])[C:6]1([H:16])[H:17])[O:7]2)([H:8])([H:9])[H:10]>>[C:1]([C:2]1([C:6]([H:11])([H:16])[H:17])[C@:3]2([H:12])[C@@:4]([H:13])([C:5]2([H:14])[H:15])[O:7]1)([H:8])([H:9])[H:10]"
C        2.03389965       0.22819326       0.16621431
C        0.55379880       0.16166875      -0.05284595
C       -0.28924871      -1.07337941       0.30576354
C       -0.73676909      -0.90230710      -1.11995960
C       -1.82053380      -0.15629633      -0.40989155
C       -0.35367286       1.17744107       0.62797575
O        0.22493983       0.09077554      -1.46057737
H        2.40347868       1.18141904      -0.21625687
H        2.50405008      -0.62745618      -0.31938320
H        2.26953781       0.18035614       1.23196773
H       -0.71035826      -0.09083326       1.52393962
H        0.22142814      -1.99885160       0.54534580
H       -0.91090979      -1.67852042      -1.85834731
H       -2.44755078       0.12000580       0.43113070
H       -2.67835527      -0.25652675      -1.08109851
H       -0.29226802       2.12897992       0.09113576
H        0.02853360       1.51533154       1.59488716
17
Frame=16 idx=009664 GeodesicLength=1.4899490302624026 rxn_smarts="[C:1]([C@@:2]12[C:3]([H:11])([H:12])[C@@:4]([H:13])([C:5]([H:14])([H:15])[C:6]1([H:16])[H:17])[O:7]2)([H:8])([H:9])[H:10]>>[C:1]([C:2]1([C:6]([H:11])([H:16])[H:17])[C@:3]2([H:12])[C@@:4]([H:13])([C:5]2([H:14])[H:15])[O:7]1)([H:8])([H:9])[H:10]"
C        2.02479225       0.22427536       0.17128384
C        0.54572894       0.16629197      -0.05599763
C       -0.30172954      -1.06877445       0.29732567
C       -0.72988532      -0.90179379      -1.13624295
C       -1.80608653      -0.15990236      -0.40267144
C       -0.35996480       1.18738410       0.61894656
O        0.22631811       0.09871757      -1.46596661
H        2.39976781       1.17688209      -0.20741571
H        2.49155772      -0.63511745      -0.31099804
H        2.25451140       0.17461586       1.23833621
H       -0.69120337      -0.10313017       1.54571552
H        0.21405791      -1.99271752       0.53101535
H       -0.90542802      -1.66744781      -1.88422345
H       -2.42815896       0.14993539       0.43059542
H       -2.68137639      -0.31404993      -1.04092277
H       -0.26809036       2.13788002       0.08315188
H        0.01518918       1.52695110       1.58806815
