12
Frame=0 idx=005875 GeodesicLength=0.0 rxn_smarts="[C:1]([C:2]([C:3](=[O:4])[H:11])([C:5](=[O:6])[H:12])[H:10])([H:7])([H:8])[H:9]>>[C:1]([O:6]/[C:5](=[C:2](\[C:3](=[O:4])[H:11])[H:10])[H:12])([H:7])([H:8])[H:9]"
C       -1.47212771      -0.29888600      -0.21145202
C        0.97287331      -0.08872419      -0.39200343
C        0.60761260       1.30479812      -0.21539290
O        0.71345501       2.15962004      -1.06898378
C        0.84117883      -0.93059973       0.72483932
O       -0.24965319      -1.04584733       1.30350413
H       -1.52843048      -1.30689552      -0.59426282
H       -2.09842525      -0.07094049       0.63741788
H       -1.39970258       0.48102470      -0.95598910
H        1.70520374      -0.29359186      -1.16595759
H        0.20898802       1.55864622       0.78964065
H        1.69902769      -1.46860399       1.14863963
12
Frame=1 idx=005875 GeodesicLength=0.06980984728312459 rxn_smarts="[C:1]([C:2]([C:3](=[O:4])[H:11])([C:5](=[O:6])[H:12])[H:10])([H:7])([H:8])[H:9]>>[C:1]([O:6]/[C:5](=[C:2](\[C:3](=[O:4])[H:11])[H:10])[H:12])([H:7])([H:8])[H:9]"
C       -1.45972361      -0.31075702      -0.20773098
C        0.95247613      -0.08507516      -0.39364313
C        0.61268057       1.31568069      -0.20927990
O        0.77023789       2.17438265      -1.05017149
C        0.84184226      -0.92946864       0.72503594
O       -0.25141881      -1.07998312       1.29344202
H       -1.55630373      -1.32010634      -0.57981195
H       -2.07543552      -0.04873034       0.64002977
H       -1.40420921       0.45447503      -0.96998832
H        1.68402266      -0.29463670      -1.16749693
H        0.17310507       1.57428504       0.77692014
H        1.71272630      -1.45006610       1.14269482
12
Frame=2 idx=005875 GeodesicLength=0.13971998800218133 rxn_smarts="[C:1]([C:2]([C:3](=[O:4])[H:11])([C:5](=[O:6])[H:12])[H:10])([H:7])([H:8])[H:9]>>[C:1]([O:6]/[C:5](=[C:2](\[C:3](=[O:4])[H:11])[H:10])[H:12])([H:7])([H:8])[H:9]"
C       -1.44784925      -0.32320972      -0.20375510
C        0.93210703      -0.08087912      -0.39507720
C        0.61700604       1.32678623      -0.20391948
O        0.83113866       2.18842035      -1.02861125
C        0.84241733      -0.92765455       0.72547100
O       -0.25240682      -1.11416020       1.28283086
H       -1.58434179      -1.33256133      -0.56461166
H       -2.05202106      -0.02865716       0.64279650
H       -1.41010035       0.42747285      -0.98281199
H        1.66264270      -0.29536423      -1.16911729
H        0.13571330       1.59166931       0.76071743
H        1.72569419      -1.43186244       1.13608819
12
Frame=3 idx=005875 GeodesicLength=0.20921140752613684 rxn_smarts="[C:1]([C:2]([C:3](=[O:4])[H:11])([C:5](=[O:6])[H:12])[H:10])([H:7])([H:8])[H:9]>>[C:1]([O:6]/[C:5](=[C:2](\[C:3](=[O:4])[H:11])[H:10])[H:12])([H:7])([H:8])[H:9]"
C       -1.43650156      -0.33625475      -0.19947964
C        0.91166236      -0.07602690      -0.39621814
C        0.62060807       1.33781678      -0.19939844
O        0.89628481       2.20077583      -1.00326657
C        0.84282701      -0.92468706       0.72591496
O       -0.25256703      -1.14788673       1.27125806
H       -1.61252924      -1.34406136      -0.54838367
H       -2.02828765      -0.01089774       0.64549626
H       -1.41742256       0.39972945      -0.99420149
H        1.64091420      -0.29550699      -1.17042687
H        0.09715394       1.61043184       0.74038234
H        1.73785765      -1.41343238       1.12832319
12
Frame=4 idx=005875 GeodesicLength=0.2784387677655866 rxn_smarts="[C:1]([C:2]([C:3](=[O:4])[H:11])([C:5](=[O:6])[H:12])[H:10])([H:7])([H:8])[H:9]>>[C:1]([O:6]/[C:5](=[C:2](\[C:3](=[O:4])[H:11])[H:10])[H:12])([H:7])([H:8])[H:9]"
C       -1.42564269      -0.34988244      -0.19491822
C        0.89110721      -0.07058801      -0.39724056
C        0.62349291       1.34893169      -0.19585972
O        0.96546566       2.21138858      -0.97332084
C        0.84304696      -0.92075235       0.72629699
O       -0.25182324      -1.18116854       1.25884672
H       -1.64090573      -1.35481239      -0.53090992
H       -2.00425730       0.00489125       0.64818741
H       -1.42610374       0.37111799      -1.00443240
H        1.61889065      -0.29504257      -1.17164944
H        0.05741521       1.63068924       0.71551871
H        1.74931409      -1.39477244       1.11948127
12
Frame=5 idx=005875 GeodesicLength=0.34737390339028723 rxn_smarts="[C:1]([C:2]([C:3](=[O:4])[H:11])([C:5](=[O:6])[H:12])[H:10])([H:7])([H:8])[H:9]>>[C:1]([O:6]/[C:5](=[C:2](\[C:3](=[O:4])[H:11])[H:10])[H:12])([H:7])([H:8])[H:9]"
C       -1.41523786      -0.36397591      -0.19012283
C        0.87051451      -0.06470653      -0.39836278
C        0.62564030       1.36041312      -0.19347052
O        1.03799211       2.22030603      -0.93815272
C        0.84316221      -0.91627707       0.72667499
O       -0.25006566      -1.21413131       1.24596703
H       -1.66937116      -1.36497144      -0.51209484
H       -1.98005742       0.01918015       0.65100129
H       -1.43611006       0.34176800      -1.01388862
H        1.59682829      -0.29406538      -1.17318138
H        0.01641680       1.65275809       0.68579242
H        1.76028795      -1.37629775       1.10983795
12
Frame=6 idx=005875 GeodesicLength=0.4160086485326214 rxn_smarts="[C:1]([C:2]([C:3](=[O:4])[H:11])([C:5](=[O:6])[H:12])[H:10])([H:7])([H:8])[H:9]>>[C:1]([O:6]/[C:5](=[C:2](\[C:3](=[O:4])[H:11])[H:10])[H:12])([H:7])([H:8])[H:9]"
C       -1.40522769      -0.37842218      -0.18508725
C        0.85000207      -0.05846983      -0.39971662
C        0.62724157       1.37236683      -0.19231157
O        1.11277179       2.22725105      -0.89721596
C        0.84316201      -0.91156029       0.72694279
O       -0.24734360      -1.24680309       1.23273244
H       -1.69789695      -1.37451406      -0.49175560
H       -1.95575475       0.03232222       0.65396278
H       -1.44728154       0.31172191      -1.02269712
H        1.57507796      -0.29248303      -1.17514723
H       -0.02555922       1.67669186       0.65079982
H        1.77080834      -1.35810140       1.09949352
12
Frame=7 idx=005875 GeodesicLength=0.48331371834979187 rxn_smarts="[C:1]([C:2]([C:3](=[O:4])[H:11])([C:5](=[O:6])[H:12])[H:10])([H:7])([H:8])[H:9]>>[C:1]([O:6]/[C:5](=[C:2](\[C:3](=[O:4])[H:11])[H:10])[H:12])([H:7])([H:8])[H:9]"
C       -1.39543067      -0.39293201      -0.17994564
C        0.82944667      -0.05184627      -0.40094931
C        0.62862617       1.38348759      -0.19190607
O        1.18822809       2.23002726      -0.84863494
C        0.84320742      -0.90601703       0.72624809
O       -0.24322400      -1.27763158       1.21819337
H       -1.72703273      -1.38230711      -0.46905648
H       -1.93060078       0.04492952       0.65593023
H       -1.45952317       0.28012371      -1.03056136
H        1.55328673      -0.28967741      -1.17637155
H       -0.06804592       1.70072324       0.60947354
H        1.78106217      -1.33887992       1.08758011
12
Frame=8 idx=005875 GeodesicLength=0.5500642802199913 rxn_smarts="[C:1]([C:2]([C:3](=[O:4])[H:11])([C:5](=[O:6])[H:12])[H:10])([H:7])([H:8])[H:9]>>[C:1]([O:6]/[C:5](=[C:2](\[C:3](=[O:4])[H:11])[H:10])[H:12])([H:7])([H:8])[H:9]"
C       -1.38572233      -0.40742133      -0.17459268
C        0.80929253      -0.04506063      -0.40241096
C        0.63023922       1.39523884      -0.19219147
O        1.26223073       2.23054450      -0.79453259
C        0.84310757      -0.90108543       0.72530604
O       -0.23838473      -1.30835766       1.20359100
H       -1.75594165      -1.38919040      -0.44478157
H       -1.90515643       0.05708800       0.65804426
H       -1.47230081       0.24824590      -1.03792267
H        1.53243147      -0.28607756      -1.17807201
H       -0.11051639       1.72667767       0.56226456
H        1.79072081      -1.32060189       1.07529809
12
Frame=9 idx=005875 GeodesicLength=0.6155644270959794 rxn_smarts="[C:1]([C:2]([C:3](=[O:4])[H:11])([C:5](=[O:6])[H:12])[H:10])([H:7])([H:8])[H:9]>>[C:1]([O:6]/[C:5](=[C:2](\[C:3](=[O:4])[H:11])[H:10])[H:12])([H:7])([H:8])[H:9]"
C       -1.37610959      -0.42143217      -0.16903105
C        0.78946052      -0.03820271      -0.40380329
C        0.63197081       1.40655416      -0.19284093
O        1.33330699       2.22724811      -0.73409392
C        0.84309963      -0.89632983       0.72357620
O       -0.23251141      -1.33834423       1.18787927
H       -1.78461331      -1.39398118      -0.41874143
H       -1.87915003       0.06912115       0.65974073
H       -1.48572935       0.21599098      -1.04425471
H        1.51232796      -0.28155701      -1.17935335
H       -0.15226611       1.75295588       0.50841467
H        1.80021390      -1.30202315       1.06250780
12
Frame=10 idx=005875 GeodesicLength=0.6803683835367852 rxn_smarts="[C:1]([C:2]([C:3](=[O:4])[H:11])([C:5](=[O:6])[H:12])[H:10])([H:7])([H:8])[H:9]>>[C:1]([O:6]/[C:5](=[C:2](\[C:3](=[O:4])[H:11])[H:10])[H:12])([H:7])([H:8])[H:9]"
C       -1.36631740      -0.43499701      -0.16330274
C        0.77035096      -0.03127751      -0.40497243
C        0.63454101       1.41775528      -0.19278836
O        1.39910708       2.22138577      -0.66881194
C        0.84311642      -0.89265315       0.72119826
O       -0.22600976      -1.36788658       1.17169599
H       -1.81332401      -1.39682033      -0.39062898
H       -1.85226888       0.08153180       0.66101536
H       -1.49910472       0.18341074      -1.04994002
H        1.49362529      -0.27569913      -1.18028847
H       -0.19289430       1.77996496       0.44769802
H        1.80917830      -1.28471485       1.04912531
12
Frame=11 idx=005875 GeodesicLength=0.7445250378512007 rxn_smarts="[C:1]([C:2]([C:3](=[O:4])[H:11])([C:5](=[O:6])[H:12])[H:10])([H:7])([H:8])[H:9]>>[C:1]([O:6]/[C:5](=[C:2](\[C:3](=[O:4])[H:11])[H:10])[H:12])([H:7])([H:8])[H:9]"
C       -1.35634738      -0.44794467      -0.15732151
C        0.75194294      -0.02437865      -0.40583949
C        0.63765741       1.42862970      -0.19163671
O        1.45880930       2.21319483      -0.59873174
C        0.84323232      -0.89021946       0.71799610
O       -0.21890301      -1.39702731       1.15484181
H       -1.84182743      -1.39735344      -0.36030465
H       -1.82446411       0.09457239       0.66183450
H       -1.51235249       0.15058860      -1.05480574
H        1.47632002      -0.26851668      -1.18073423
H       -0.23180752       1.80712625       0.37951088
H        1.81773993      -1.26867156       1.03519077
12
Frame=12 idx=005875 GeodesicLength=0.8078816309900724 rxn_smarts="[C:1]([C:2]([C:3](=[O:4])[H:11])([C:5](=[O:6])[H:12])[H:10])([H:7])([H:8])[H:9]>>[C:1]([O:6]/[C:5](=[C:2](\[C:3](=[O:4])[H:11])[H:10])[H:12])([H:7])([H:8])[H:9]"
C       -1.34630515      -0.46006946      -0.15096870
C        0.73428556      -0.01752908      -0.40617307
C        0.64108679       1.43898074      -0.18881996
O        1.51138565       2.20295820      -0.52476657
C        0.84354296      -0.88918184       0.71400968
O       -0.21126804      -1.42612967       1.13697403
H       -1.86989603      -1.39518688      -0.32804795
H       -1.79581453       0.10821658       0.66227834
H       -1.52555578       0.11787690      -1.05854418
H        1.46047582      -0.25987360      -1.18038443
H       -0.26799549       1.83384639       0.30348683
H        1.82605823      -1.25390828       1.02095599
12
Frame=13 idx=005875 GeodesicLength=0.870746321627466 rxn_smarts="[C:1]([C:2]([C:3](=[O:4])[H:11])([C:5](=[O:6])[H:12])[H:10])([H:7])([H:8])[H:9]>>[C:1]([O:6]/[C:5](=[C:2](\[C:3](=[O:4])[H:11])[H:10])[H:12])([H:7])([H:8])[H:9]"
C       -1.33620067      -0.47146511      -0.14414581
C        0.71745005      -0.01072833      -0.40602030
C        0.64449338       1.44891323      -0.18384872
O        1.55639166       2.19163939      -0.44684270
C        0.84401806      -0.88986182       0.70903508
O       -0.20338021      -1.45512190       1.11834308
H       -1.89765024      -1.39037398      -0.29331384
H       -1.76633473       0.12274634       0.66233044
H       -1.53851896       0.08498951      -1.06124886
H        1.44630802      -0.24949730      -1.17941224
H       -0.30062652       1.85965476       0.21899889
H        1.83405016      -1.24089480       1.00612497
12
Frame=14 idx=005875 GeodesicLength=0.9335105041553808 rxn_smarts="[C:1]([C:2]([C:3](=[O:4])[H:11])([C:5](=[O:6])[H:12])[H:10])([H:7])([H:8])[H:9]>>[C:1]([O:6]/[C:5](=[C:2](\[C:3](=[O:4])[H:11])[H:10])[H:12])([H:7])([H:8])[H:9]"
C       -1.32590569      -0.48203097      -0.13682727
C        0.70124634      -0.00399791      -0.40550055
C        0.64707935       1.45810299      -0.17663814
O        1.59304733       2.17933370      -0.36419909
C        0.84470038      -0.89231733       0.70275565
O       -0.19513063      -1.48386766       1.09878556
H       -1.92515840      -1.38228924      -0.25544826
H       -1.73558347       0.13836901       0.66177294
H       -1.55117086       0.05177231      -1.06296789
H        1.43355439      -0.23698863      -1.17779779
H       -0.32837632       1.88326473       0.12538378
H        1.84169758      -1.22935099       0.99068106
12
Frame=15 idx=005875 GeodesicLength=0.9957450258863464 rxn_smarts="[C:1]([C:2]([C:3](=[O:4])[H:11])([C:5](=[O:6])[H:12])[H:10])([H:7])([H:8])[H:9]>>[C:1]([O:6]/[C:5](=[C:2](\[C:3](=[O:4])[H:11])[H:10])[H:12])([H:7])([H:8])[H:9]"
C       -1.31601353      -0.49181454      -0.12897180
C        0.68592567       0.00252928      -0.40461507
C        0.64840258       1.46710405      -0.16759682
O        1.62108180       2.16720127      -0.27884605
C        0.84567656      -0.89655853       0.69541850
O       -0.18691920      -1.51306551       1.07798334
H       -1.95232180      -1.37143032      -0.21523967
H       -1.70465832       0.15487783       0.66073067
H       -1.56417110       0.01866248      -1.06337473
H        1.42286892      -0.22281792      -1.17541173
H       -0.34926231       1.90443690       0.02470007
H        1.84939074      -1.21912499       0.97522329
12
Frame=16 idx=005875 GeodesicLength=1.0580063265745594 rxn_smarts="[C:1]([C:2]([C:3](=[O:4])[H:11])([C:5](=[O:6])[H:12])[H:10])([H:7])([H:8])[H:9]>>[C:1]([O:6]/[C:5](=[C:2](\[C:3](=[O:4])[H:11])[H:10])[H:12])([H:7])([H:8])[H:9]"
C       -1.30587494      -0.50034769      -0.12071632
C        0.67095096       0.00886655      -0.40317736
C        0.64762461       1.47517938      -0.15706400
O        1.63916265       2.15441940      -0.19416864
C        0.84629810      -0.90169262       0.68761761
O       -0.17872628      -1.54246004       1.05528715
H       -1.97706960      -1.35733371      -0.17437635
H       -1.67309421       0.17146105       0.65939594
H       -1.57693048      -0.01316963      -1.06211094
H        1.41302188      -0.20721607      -1.17195258
H       -0.36128103       1.92142064      -0.07928839
H        1.85591834      -1.20912725       0.96055388
