15
Frame=0 idx=003388 GeodesicLength=0.0 rxn_smarts="[C:1]([C@@:2]1([C:3]([O:4][H:12])([H:10])[H:11])[C:5]([H:13])([H:14])[N:6]1[H:15])([H:7])([H:8])[H:9]>>[C-:1]([C@@:2]1([C:3]([O:4][H:12])([H:10])[H:11])[C+:5]([H:13])[N:6]1[H:15])([H:8])[H:9].[H:7][H:14]"
C       -1.20728262      -0.83587664      -0.01470044
C        0.06473691      -0.22761987       0.24873442
C        1.17708976      -0.50909550      -0.73580306
O        2.31483567       0.28139347      -0.55462959
C       -0.38974836       1.13831289       0.48132093
N        0.51190919       0.64325225       1.41038390
H       -1.50950166       0.28311607      -1.01559637
H       -1.24810624      -1.69495107      -0.67893504
H       -1.96999771      -0.83220132       0.75375626
H        1.42953612      -1.57741486      -0.67689081
H        0.77287319      -0.31583058      -1.73884955
H        2.28598339       0.60235648       0.35488649
H       -1.38859590       1.36909631       0.84513732
H       -0.98944708       1.17338696      -1.02680454
H        0.14571536       0.50207542       2.34799007
15
Frame=1 idx=003388 GeodesicLength=0.06692903716952837 rxn_smarts="[C:1]([C@@:2]1([C:3]([O:4][H:12])([H:10])[H:11])[C:5]([H:13])([H:14])[N:6]1[H:15])([H:7])([H:8])[H:9]>>[C-:1]([C@@:2]1([C:3]([O:4][H:12])([H:10])[H:11])[C+:5]([H:13])[N:6]1[H:15])([H:8])[H:9].[H:7][H:14]"
C       -1.20889664      -0.83594226      -0.01517781
C        0.06350469      -0.22507596       0.24453937
C        1.17956908      -0.51234158      -0.73411639
O        2.31027483       0.29066582      -0.56270622
C       -0.38238790       1.14732541       0.47790357
N        0.50601563       0.63456066       1.41241942
H       -1.52720530       0.29020575      -1.02239128
H       -1.25057881      -1.69353051      -0.68140258
H       -1.95490565      -0.85169380       0.76961667
H        1.43778330      -1.57811086      -0.65743863
H        0.77962052      -0.33615207      -1.74169190
H        2.28778459       0.60868892       0.34796623
H       -1.37734319       1.39114860       0.84511136
H       -0.99001815       1.19169140      -1.02532837
H        0.12678301       0.47856047       2.34269654
15
Frame=2 idx=003388 GeodesicLength=0.13380847581054411 rxn_smarts="[C:1]([C@@:2]1([C:3]([O:4][H:12])([H:10])[H:11])[C:5]([H:13])([H:14])[N:6]1[H:15])([H:7])([H:8])[H:9]>>[C-:1]([C@@:2]1([C:3]([O:4][H:12])([H:10])[H:11])[C+:5]([H:13])[N:6]1[H:15])([H:8])[H:9].[H:7][H:14]"
C       -1.21058226      -0.83611465      -0.01564871
C        0.06217103      -0.22256298       0.24035910
C        1.18199653      -0.51568779      -0.73228549
O        2.30561840       0.29955265      -0.57072734
C       -0.37499787       1.15626135       0.47462509
N        0.49998247       0.62595209       1.41429407
H       -1.54544965       0.29739779      -1.02895661
H       -1.25309353      -1.69191503      -0.68426041
H       -1.93918391      -0.87211716       0.78495919
H        1.44584736      -1.57861008      -0.63784856
H        0.78654281      -0.35665728      -1.74416442
H        2.28955094       0.61496645       0.34093800
H       -1.36574796       1.41331497       0.84538135
H       -0.99046929       1.21035348      -1.02360692
H        0.10781491       0.45586617       2.33694167
15
Frame=3 idx=003388 GeodesicLength=0.20064873321531196 rxn_smarts="[C:1]([C@@:2]1([C:3]([O:4][H:12])([H:10])[H:11])[C:5]([H:13])([H:14])[N:6]1[H:15])([H:7])([H:8])[H:9]>>[C-:1]([C@@:2]1([C:3]([O:4][H:12])([H:10])[H:11])[C+:5]([H:13])[N:6]1[H:15])([H:8])[H:9].[H:7][H:14]"
C       -1.21233695      -0.83639950      -0.01610011
C        0.06073410      -0.22007326       0.23619159
C        1.18436959      -0.51913313      -0.73030639
O        2.30086923       0.30805824      -0.57869936
C       -0.36757773       1.16512904       0.47147367
N        0.49380485       0.61743707       1.41600841
H       -1.56427405       0.30467447      -1.03527415
H       -1.25565258      -1.69009799      -0.68750395
H       -1.92280408      -0.89349209       0.79974838
H        1.45372197      -1.57891124      -0.61811338
H        0.79363703      -0.37735127      -1.74626092
H        2.29128422       0.62118431       0.33379867
H       -1.35379497       1.43561219       0.84593472
H       -0.99078401       1.22937959      -1.02164858
H        0.08880338       0.43398358       2.33075141
15
Frame=4 idx=003388 GeodesicLength=0.26747232244758257 rxn_smarts="[C:1]([C@@:2]1([C:3]([O:4][H:12])([H:10])[H:11])[C:5]([H:13])([H:14])[N:6]1[H:15])([H:7])([H:8])[H:9]>>[C-:1]([C@@:2]1([C:3]([O:4][H:12])([H:10])[H:11])[C+:5]([H:13])[N:6]1[H:15])([H:8])[H:9].[H:7][H:14]"
C       -1.21415795      -0.83680442      -0.01651877
C        0.05919196      -0.21759971       0.23203378
C        1.18668596      -0.52267635      -0.72817553
O        2.29602923       0.31618712      -0.58662828
C       -0.36012779       1.17393551       0.46843757
N        0.48747621       0.60902529       1.41756331
H       -1.58372725       0.31201428      -1.04131474
H       -1.25825831      -1.68807278      -0.69112911
H       -1.90573571      -0.91583705       0.81394254
H        1.46140050      -1.57901324      -0.59822503
H        0.80090024      -0.39824076      -1.74797447
H        2.29298605       0.62734017       0.32654527
H       -1.34146885       1.45805449       0.84675892
H       -0.99093477       1.24878205      -1.01946548
H        0.06974048       0.41290540       2.32415000
15
Frame=5 idx=003388 GeodesicLength=0.33431051700189773 rxn_smarts="[C:1]([C@@:2]1([C:3]([O:4][H:12])([H:10])[H:11])[C:5]([H:13])([H:14])[N:6]1[H:15])([H:7])([H:8])[H:9]>>[C-:1]([C@@:2]1([C:3]([O:4][H:12])([H:10])[H:11])[C+:5]([H:13])[N:6]1[H:15])([H:8])[H:9].[H:7][H:14]"
C       -1.21604396      -0.83733637      -0.01688564
C        0.05754207      -0.21513422       0.22788339
C        1.18894223      -0.52631681      -0.72588797
O        2.29109990       0.32394146      -0.59452257
C       -0.35264832       1.18268852       0.46550709
N        0.48099042       0.60072773       1.41895971
H       -1.60386655       0.31939009      -1.04704299
H       -1.26091303      -1.68582964      -0.69513184
H       -1.88793410      -0.93917372       0.82748327
H        1.46887557      -1.57891303      -0.57817691
H        0.80832821      -0.41933483      -1.74929220
H        2.29465656       0.63342793       0.31917380
H       -1.32875437       1.48065592       0.84784222
H       -0.99088647       1.26857730      -1.01706715
H        0.05061185       0.39262966       2.31715780
15
Frame=6 idx=003388 GeodesicLength=0.4011662651338159 rxn_smarts="[C:1]([C@@:2]1([C:3]([O:4][H:12])([H:10])[H:11])[C:5]([H:13])([H:14])[N:6]1[H:15])([H:7])([H:8])[H:9]>>[C-:1]([C@@:2]1([C:3]([O:4][H:12])([H:10])[H:11])[C+:5]([H:13])[N:6]1[H:15])([H:8])[H:9].[H:7][H:14]"
C       -1.21799089      -0.83800660      -0.01718583
C        0.05578273      -0.21267114       0.22373721
C        1.19113671      -0.53005418      -0.72343884
O        2.28608413       0.33132290      -0.60238518
C       -0.34513833       1.19139395       0.46266971
N        0.47433965       0.59255426       1.42019861
H       -1.62474872       0.32677964      -1.05241638
H       -1.26362122      -1.68335776      -0.69950703
H       -1.86936289      -0.96351514       0.84031525
H        1.47614276      -1.57860700      -0.55796048
H        0.81591944      -0.44063805      -1.75020478
H        2.29629656       0.63944537       0.31167902
H       -1.31563107       1.50342952       0.84917177
H       -0.99061202       1.28877368      -1.01446760
H        0.03140315       0.37315056       2.30979456
15
Frame=7 idx=003388 GeodesicLength=0.4680500174964023 rxn_smarts="[C:1]([C@@:2]1([C:3]([O:4][H:12])([H:10])[H:11])[C:5]([H:13])([H:14])[N:6]1[H:15])([H:7])([H:8])[H:9]>>[C-:1]([C@@:2]1([C:3]([O:4][H:12])([H:10])[H:11])[C+:5]([H:13])[N:6]1[H:15])([H:8])[H:9].[H:7][H:14]"
C       -1.21999377      -0.83883015      -0.01740068
C        0.05391284      -0.21020711       0.21959371
C        1.19326834      -0.53388780      -0.72082521
O        2.28098207       0.33833693      -0.61022360
C       -0.33759762       1.20005466       0.45991660
N        0.46751638       0.58451111       1.42128239
H       -1.64643041       0.33415512      -1.05739418
H       -1.26638592      -1.68065077      -0.70425382
H       -1.84999520      -0.98885756       0.85238213
H        1.48320214      -1.57809216      -0.53757115
H        0.82367044      -0.46215786      -1.75070033
H        2.29790670       0.64539431       0.30405660
H       -1.30207974       1.52638257       0.85073666
H       -0.99007477       1.30938257      -1.01167814
H        0.01209853       0.35446614       2.30207901
15
Frame=8 idx=003388 GeodesicLength=0.5349859511917848 rxn_smarts="[C:1]([C@@:2]1([C:3]([O:4][H:12])([H:10])[H:11])[C:5]([H:13])([H:14])[N:6]1[H:15])([H:7])([H:8])[H:9]>>[C-:1]([C@@:2]1([C:3]([O:4][H:12])([H:10])[H:11])[C+:5]([H:13])[N:6]1[H:15])([H:8])[H:9].[H:7][H:14]"
C       -1.22204837      -0.83982115      -0.01751105
C        0.05192988      -0.20773670       0.21544775
C        1.19533592      -0.53781599      -0.71804159
O        2.27579449       0.34498521      -0.61804397
C       -0.33002536       1.20867543       0.45723661
N        0.46051106       0.57660634       1.42221277
H       -1.66898964       0.34148464      -1.06190952
H       -1.26921363      -1.67769667      -0.70936824
H       -1.82978626      -1.01521200       0.86361362
H        1.49005340      -1.57736312      -0.51700041
H        0.83158008      -0.48390237      -1.75076604
H        2.29948684       0.65127262       0.29630166
H       -1.28807828       1.54952417       0.85252213
H       -0.98922247       1.33042395      -1.00871901
H       -0.00732765       0.33657564       2.29402529
15
Frame=9 idx=003388 GeodesicLength=0.601988790840968 rxn_smarts="[C:1]([C@@:2]1([C:3]([O:4][H:12])([H:10])[H:11])[C:5]([H:13])([H:14])[N:6]1[H:15])([H:7])([H:8])[H:9]>>[C-:1]([C@@:2]1([C:3]([O:4][H:12])([H:10])[H:11])[C+:5]([H:13])[N:6]1[H:15])([H:8])[H:9].[H:7][H:14]"
C       -1.22413199      -0.84102018      -0.01752356
C        0.04983320      -0.20526511       0.21128361
C        1.19735002      -0.54184046      -0.71508981
O        2.27052520       0.35127891      -0.62583932
C       -0.32243148       1.21724568       0.45461104
N        0.45330632       0.56883175       1.42298621
H       -1.69252967       0.34872783      -1.06584857
H       -1.27210395      -1.67447179      -0.71487836
H       -1.80872344      -1.04250075       0.87401518
H        1.49672504      -1.57642473      -0.49625097
H        0.83965974      -0.50587955      -1.75039743
H        2.30103373       0.65709332       0.28841523
H       -1.27360765       1.57284640       0.85450263
H       -0.98798832       1.35191402      -1.00561678
H       -0.02691675       0.31946467       2.28563090
15
Frame=10 idx=003388 GeodesicLength=0.6690204041949271 rxn_smarts="[C:1]([C@@:2]1([C:3]([O:4][H:12])([H:10])[H:11])[C:5]([H:13])([H:14])[N:6]1[H:15])([H:7])([H:8])[H:9]>>[C-:1]([C@@:2]1([C:3]([O:4][H:12])([H:10])[H:11])[C+:5]([H:13])[N:6]1[H:15])([H:8])[H:9].[H:7][H:14]"
C       -1.22625248      -0.84242072      -0.01740376
C        0.04761998      -0.20278051       0.20710783
C        1.19930246      -0.54595945      -0.71195823
O        2.26517503       0.35721253      -0.63362099
C       -0.31480665       1.22578178       0.45203446
N        0.44589597       0.56120780       1.42360704
H       -1.71708873       0.35586282      -1.06918955
H       -1.27507291      -1.67097115      -0.72075472
H       -1.78673802      -1.07078025       0.88345446
H        1.50319012      -1.57526458      -0.47530274
H        0.84790223      -0.52809464      -1.74957230
H        2.30254902       0.66284466       0.28039271
H       -1.25864615       1.59636668       0.85667204
H       -0.98636010       1.37385905      -1.00238194
H       -0.04666979       0.30313597       2.27691569
15
Frame=11 idx=003388 GeodesicLength=0.7360949369636232 rxn_smarts="[C:1]([C@@:2]1([C:3]([O:4][H:12])([H:10])[H:11])[C:5]([H:13])([H:14])[N:6]1[H:15])([H:7])([H:8])[H:9]>>[C-:1]([C@@:2]1([C:3]([O:4][H:12])([H:10])[H:11])[C+:5]([H:13])[N:6]1[H:15])([H:8])[H:9].[H:7][H:14]"
C       -1.22840080      -0.84404234      -0.01713903
C        0.04528881      -0.20028065       0.20291434
C        1.20119411      -0.55017029      -0.70864196
O        2.25974522       0.36279218      -0.64139037
C       -0.30715297       1.23428433       0.44949650
N        0.43826688       0.55373788       1.42407603
H       -1.74274938       0.36284896      -1.07186609
H       -1.27812344      -1.66719158      -0.72699424
H       -1.76380010      -1.10002281       0.89187777
H        1.50944987      -1.57387750      -0.45414988
H        0.85630868      -0.55054863      -1.74827871
H        2.30403136       0.66852846       0.27223300
H       -1.24317562       1.62008548       0.85901098
H       -0.98427493       1.39627906      -0.99903531
H       -0.06660768       0.28757746       2.26788695
15
Frame=12 idx=003388 GeodesicLength=0.8032019244956909 rxn_smarts="[C:1]([C@@:2]1([C:3]([O:4][H:12])([H:10])[H:11])[C:5]([H:13])([H:14])[N:6]1[H:15])([H:7])([H:8])[H:9]>>[C-:1]([C@@:2]1([C:3]([O:4][H:12])([H:10])[H:11])[C+:5]([H:13])[N:6]1[H:15])([H:8])[H:9].[H:7][H:14]"
C       -1.23056589      -0.84590744      -0.01671764
C        0.04283856      -0.19776327       0.19869623
C        1.20302816      -0.55447176      -0.70513649
O        2.25423916       0.36802085      -0.64914727
C       -0.29947149       1.24275408       0.44698412
N        0.43040389       0.54642568       1.42439310
H       -1.76959812       0.36964815      -1.07378683
H       -1.28126181      -1.66312159      -0.73359374
H       -1.73987070      -1.13020029       0.89921539
H        1.51550547      -1.57225683      -0.43278341
H        0.86488347      -0.57324493      -1.74650235
H        2.30547949       0.67414527       0.26393604
H       -1.22717588       1.64400385       0.86149733
H       -0.98167677       1.41918960      -0.99560214
H       -0.08675757       0.27277863       2.25854766
15
Frame=13 idx=003388 GeodesicLength=0.8703223511487147 rxn_smarts="[C:1]([C@@:2]1([C:3]([O:4][H:12])([H:10])[H:11])[C:5]([H:13])([H:14])[N:6]1[H:15])([H:7])([H:8])[H:9]>>[C-:1]([C@@:2]1([C:3]([O:4][H:12])([H:10])[H:11])[C+:5]([H:13])[N:6]1[H:15])([H:8])[H:9].[H:7][H:14]"
C       -1.23273739      -0.84803595      -0.01613159
C        0.04026748      -0.19522642       0.19444542
C        1.20480774      -0.55886207      -0.70143639
O        2.24866025       0.37290095      -0.65688972
C       -0.29176214       1.25119178       0.44448666
N        0.42229106       0.53927212       1.42455811
H       -1.79771803       0.37622084      -1.07486424
H       -1.28449633      -1.65875517      -0.74054721
H       -1.71491166      -1.16127638       0.90539969
H        1.52136021      -1.57039823      -0.41119713
H        0.87363269      -0.59618496      -1.74422961
H        2.30689284       0.67969667       0.25550445
H       -1.21062702       1.66811949       0.86411171
H       -0.97851268       1.44260567      -0.99210672
H       -0.10714703       0.25873168       2.24889656
15
Frame=14 idx=003388 GeodesicLength=0.9374437935977005 rxn_smarts="[C:1]([C@@:2]1([C:3]([O:4][H:12])([H:10])[H:11])[C:5]([H:13])([H:14])[N:6]1[H:15])([H:7])([H:8])[H:9]>>[C-:1]([C@@:2]1([C:3]([O:4][H:12])([H:10])[H:11])[C+:5]([H:13])[N:6]1[H:15])([H:8])[H:9].[H:7][H:14]"
C       -1.23489836      -0.85045896      -0.01537292
C        0.03757606      -0.19267150       0.19015140
C        1.20653967      -0.56333723      -0.69753830
O        2.24301287       0.37744029      -0.66461802
C       -0.28402742       1.25959329       0.44199102
N        0.41391129       0.53227715       1.42456896
H       -1.82720556       0.38252125      -1.07498672
H       -1.28782903      -1.65409036      -0.74784948
H       -1.68891057      -1.19318502       0.91036053
H        1.52702280      -1.56828946      -0.38938475
H        0.88256632      -0.61937007      -1.74144400
H        2.30826983       0.68518450       0.24693839
H       -1.19350500       1.69242372       0.86683409
H       -0.97471399       1.46654261      -0.98857902
H       -0.12780891       0.24541980       2.23892883
15
Frame=15 idx=003388 GeodesicLength=1.0045521182019734 rxn_smarts="[C:1]([C@@:2]1([C:3]([O:4][H:12])([H:10])[H:11])[C:5]([H:13])([H:14])[N:6]1[H:15])([H:7])([H:8])[H:9]>>[C-:1]([C@@:2]1([C:3]([O:4][H:12])([H:10])[H:11])[C+:5]([H:13])[N:6]1[H:15])([H:8])[H:9].[H:7][H:14]"
C       -1.23703329      -0.85320487      -0.01443603
C        0.03476314      -0.19009906       0.18580281
C        1.20823081      -0.56789475      -0.69343804
O        2.23730137       0.38164409      -0.67232972
C       -0.27626899       1.26795554       0.43948650
N        0.40524582       0.52544013       1.42442294
H       -1.85815643       0.38849780      -1.07403926
H       -1.29126550      -1.64912689      -0.75549126
H       -1.66184912      -1.22585572       0.91402085
H        1.53250292      -1.56592230      -0.36734068
H        0.89169588      -0.64280119      -1.73813142
H        2.30960895       0.69061265       0.23824053
H       -1.17578864       1.71690443       0.86964680
H       -0.97021050       1.49102033      -0.98504925
H       -0.14877641       0.23282981       2.22863525
15
Frame=16 idx=003388 GeodesicLength=1.071629149326379 rxn_smarts="[C:1]([C@@:2]1([C:3]([O:4][H:12])([H:10])[H:11])[C:5]([H:13])([H:14])[N:6]1[H:15])([H:7])([H:8])[H:9]>>[C-:1]([C@@:2]1([C:3]([O:4][H:12])([H:10])[H:11])[C+:5]([H:13])[N:6]1[H:15])([H:8])[H:9].[H:7][H:14]"
C       -1.23912267      -0.85630704      -0.01331921
C        0.03182906      -0.18751168       0.18138669
C        1.20989003      -0.57253013      -0.68913158
O        2.23153107       0.38551925      -0.68002274
C       -0.26849028       1.27627271       0.43696179
N        0.39627513       0.51875809       1.42411588
H       -1.89066798       0.39409571      -1.07189399
H       -1.29480829      -1.64386863      -0.76346224
H       -1.63372758      -1.25919684       0.91630637
H        1.53781384      -1.56328385      -0.34506048
H        0.90103687      -0.66647783      -1.73427504
H        2.31090806       0.69598557       0.22941251
H       -1.15745621       1.74154548       0.87253226
H       -0.96492715       1.51605772      -0.98155197
H       -0.17008390       0.22094146       2.21800175
