16
Frame=0 idx=007188 GeodesicLength=0.0 rxn_smarts="[C:1]([c:2]1[c:3]([H:11])[c:4]([H:12])[c:5]([C:6]([H:13])([H:14])[H:15])[n:7]1[H:16])([H:8])([H:9])[H:10]>>[C:1](=[C:2]=[C:3](/[C:4](=[C:5](/[C:6]([H:13])([H:14])[H:15])[N:7]([H:8])[H:16])[H:12])[H:11])([H:9])[H:10]"
C       -2.67211180      -0.04032596      -0.10459114
C       -1.76580096       0.88246310      -0.58280653
C       -0.71387312       1.51015061       0.06276170
C        0.54210729       1.03137857       0.30548982
C        0.92561899      -0.32351301       0.00671025
C        2.39635717      -0.64145006       0.09273834
N        0.04543959      -1.20293712      -0.33972620
H       -1.63192516      -0.65806122      -0.35195457
H       -2.84861483      -0.18909224       0.96412325
H       -3.44825813      -0.41733088      -0.76537042
H       -0.92302208       2.55960490       0.27015102
H        1.30069778       1.71357167       0.66385711
H        2.58303374      -1.70937894      -0.02064221
H        2.94131692      -0.10530082      -0.68727682
H        2.79904467      -0.31421549       1.05330990
H        0.46998993      -2.09556318      -0.56677355
16
Frame=1 idx=007188 GeodesicLength=0.10547520110031477 rxn_smarts="[C:1]([c:2]1[c:3]([H:11])[c:4]([H:12])[c:5]([C:6]([H:13])([H:14])[H:15])[n:7]1[H:16])([H:8])([H:9])[H:10]>>[C:1](=[C:2]=[C:3](/[C:4](=[C:5](/[C:6]([H:13])([H:14])[H:15])[N:7]([H:8])[H:16])[H:12])[H:11])([H:9])[H:10]"
C       -2.67219667      -0.04677850      -0.09189259
C       -1.74265101       0.84315390      -0.59184676
C       -0.71049057       1.51046449       0.03947294
C        0.54856591       1.03973079       0.30645058
C        0.93456765      -0.30630256      -0.00409046
C        2.39885970      -0.64262201       0.09452731
N        0.04396294      -1.17274022      -0.37405758
H       -1.63207070      -0.70946872      -0.30244726
H       -2.86686724      -0.14688372       0.97878670
H       -3.45189806      -0.42208170      -0.74964670
H       -0.93339830       2.56015387       0.22679629
H        1.30184176       1.72492640       0.66944000
H        2.58702076      -1.69995972      -0.09275971
H        2.96994321      -0.05795565      -0.62960055
H        2.77679589      -0.39157366       1.08768178
H        0.44801473      -2.08206299      -0.56681399
16
Frame=2 idx=007188 GeodesicLength=0.21109216664758945 rxn_smarts="[C:1]([c:2]1[c:3]([H:11])[c:4]([H:12])[c:5]([C:6]([H:13])([H:14])[H:15])[n:7]1[H:16])([H:8])([H:9])[H:10]>>[C:1](=[C:2]=[C:3](/[C:4](=[C:5](/[C:6]([H:13])([H:14])[H:15])[N:7]([H:8])[H:16])[H:12])[H:11])([H:9])[H:10]"
C       -2.67072428      -0.05471931      -0.08249991
C       -1.71969925       0.80634692      -0.59675597
C       -0.70737142       1.51118867       0.01951071
C        0.55594413       1.04956594       0.30548055
C        0.94298485      -0.28885756      -0.01299433
C        2.40075147      -0.64396079       0.09415550
N        0.04065850      -1.14439695      -0.39742079
H       -1.62872454      -0.75739153      -0.25174072
H       -2.88766494      -0.10716286       0.98676394
H       -3.45027310      -0.42854730      -0.74149513
H       -0.94504010       2.55948329       0.19196396
H        1.30494882       1.73830451       0.66980894
H        2.59085030      -1.68571489      -0.16541281
H        2.99529685      -0.01600666      -0.57216120
H        2.75477183      -0.46989995       1.11241713
H        0.42329089      -2.06823153      -0.55961987
16
Frame=3 idx=007188 GeodesicLength=0.31682382048932733 rxn_smarts="[C:1]([c:2]1[c:3]([H:11])[c:4]([H:12])[c:5]([C:6]([H:13])([H:14])[H:15])[n:7]1[H:16])([H:8])([H:9])[H:10]>>[C:1](=[C:2]=[C:3](/[C:4](=[C:5](/[C:6]([H:13])([H:14])[H:15])[N:7]([H:8])[H:16])[H:12])[H:11])([H:9])[H:10]"
C       -2.66828026      -0.06357981      -0.07613034
C       -1.69667721       0.77175950      -0.59855540
C       -0.70430748       1.51214501       0.00208471
C        0.56387066       1.06017656       0.30418560
C        0.95073455      -0.27184058      -0.01862726
C        2.40226827      -0.64528741       0.09182408
N        0.03537881      -1.11889369      -0.40855661
H       -1.62313039      -0.80225386      -0.19977237
H       -2.91127668      -0.06888355       0.98827607
H       -3.44441974      -0.43631865      -0.73999767
H       -0.95744678       2.55783205       0.16380070
H        1.30971091       1.75320287       0.66612481
H        2.59447668      -1.66669604      -0.23819072
H        3.01706913       0.02105273      -0.51582873
H        2.73437357      -0.54840031       1.12771107
H        0.39765594      -2.05401482      -0.54834795
16
Frame=4 idx=007188 GeodesicLength=0.422598275555403 rxn_smarts="[C:1]([c:2]1[c:3]([H:11])[c:4]([H:12])[c:5]([C:6]([H:13])([H:14])[H:15])[n:7]1[H:16])([H:8])([H:9])[H:10]>>[C:1](=[C:2]=[C:3](/[C:4](=[C:5](/[C:6]([H:13])([H:14])[H:15])[N:7]([H:8])[H:16])[H:12])[H:11])([H:9])[H:10]"
C       -2.66515568      -0.07309460      -0.07177585
C       -1.67380926       0.73915862      -0.59776666
C       -0.70122839       1.51334346      -0.01388157
C        0.57213902       1.07136415       0.30264103
C        0.95771862      -0.25554072      -0.02065329
C        2.40340164      -0.64667656       0.08844510
N        0.02832612      -1.09616785      -0.40889527
H       -1.61621370      -0.84439152      -0.14657238
H       -2.93680426      -0.03172374       0.98438011
H       -3.43538278      -0.44520496      -0.74311094
H       -0.97034838       2.55545972       0.14058689
H        1.31582224       1.76943302       0.65855456
H        2.59756601      -1.64327858      -0.30983455
H        3.03580363       0.05327950      -0.45999844
H        2.71556702      -0.62673828       1.13495484
H        0.37259816      -2.03922166      -0.53707357
16
Frame=5 idx=007188 GeodesicLength=0.5283823294920807 rxn_smarts="[C:1]([c:2]1[c:3]([H:11])[c:4]([H:12])[c:5]([C:6]([H:13])([H:14])[H:15])[n:7]1[H:16])([H:8])([H:9])[H:10]>>[C:1](=[C:2]=[C:3](/[C:4](=[C:5](/[C:6]([H:13])([H:14])[H:15])[N:7]([H:8])[H:16])[H:12])[H:11])([H:9])[H:10]"
C       -2.66118373      -0.08344584      -0.06753897
C       -1.65190039       0.70869177      -0.59441323
C       -0.69828612       1.51505623      -0.02953889
C        0.58101739       1.08363257       0.29845609
C        0.96408987      -0.23951881      -0.02108185
C        2.40372894      -0.64850888       0.08583914
N        0.02008109      -1.07493308      -0.40325471
H       -1.60806007      -0.88414703      -0.09342853
H       -2.96150677       0.00292714       0.97757383
H       -3.42446133      -0.45502436      -0.74733920
H       -0.98391708       2.55259631       0.12168463
H        1.32327334       1.78733322       0.64540169
H        2.59985846      -1.61622083      -0.37789654
H        3.05305689       0.07997480      -0.40172420
H        2.69544245      -0.70509214       1.13699700
H        0.34876705      -2.02332106      -0.52973624
16
Frame=6 idx=007188 GeodesicLength=0.6341643288482953 rxn_smarts="[C:1]([c:2]1[c:3]([H:11])[c:4]([H:12])[c:5]([C:6]([H:13])([H:14])[H:15])[n:7]1[H:16])([H:8])([H:9])[H:10]>>[C:1](=[C:2]=[C:3](/[C:4](=[C:5](/[C:6]([H:13])([H:14])[H:15])[N:7]([H:8])[H:16])[H:12])[H:11])([H:9])[H:10]"
C       -2.65682390      -0.09402346      -0.06489565
C       -1.63007693       0.68005909      -0.58926831
C       -0.69521533       1.51689304      -0.04432308
C        0.58989897       1.09600059       0.29505769
C        0.96957440      -0.22458226      -0.01691138
C        2.40375578      -0.65026112       0.08245222
N        0.01070856      -1.05581417      -0.38952345
H       -1.59956590      -0.92181316      -0.04002082
H       -2.98724166       0.03623418       0.96599829
H       -3.41131496      -0.46518454      -0.75495837
H       -0.99746989       2.54919176       0.10629214
H        1.33176594       1.80607879       0.62895067
H        2.60131143      -1.58489244      -0.44470389
H        3.06738317       0.10265084      -0.34432576
H        2.67774348      -0.78284363       1.13165837
H        0.32556684      -2.00769352      -0.52147867
16
Frame=7 idx=007188 GeodesicLength=0.739951729666817 rxn_smarts="[C:1]([c:2]1[c:3]([H:11])[c:4]([H:12])[c:5]([C:6]([H:13])([H:14])[H:15])[n:7]1[H:16])([H:8])([H:9])[H:10]>>[C:1](=[C:2]=[C:3](/[C:4](=[C:5](/[C:6]([H:13])([H:14])[H:15])[N:7]([H:8])[H:16])[H:12])[H:11])([H:9])[H:10]"
C       -2.65212011      -0.10480036      -0.06352808
C       -1.60840054       0.65318003      -0.58249126
C       -0.69199811       1.51883842      -0.05838982
C        0.59880587       1.10850180       0.29232615
C        0.97422500      -0.21065135      -0.00813919
C        2.40342466      -0.65195377       0.07858156
N        0.00053248      -1.03833621      -0.36913844
H       -1.59101865      -0.95773885       0.01318984
H       -3.01339770       0.06777554       0.95018402
H       -3.39626867      -0.47553587      -0.76528984
H       -1.01082476       2.54532777       0.09387792
H        1.34124702       1.82555865       0.60898626
H        2.60152516      -1.54933578      -0.50999529
H        3.07923200       0.12141450      -0.28746446
H        2.66226976      -0.86001898       1.11947385
H        0.30276659      -1.99222554      -0.51218322
16
Frame=8 idx=007188 GeodesicLength=0.8457386125499597 rxn_smarts="[C:1]([c:2]1[c:3]([H:11])[c:4]([H:12])[c:5]([C:6]([H:13])([H:14])[H:15])[n:7]1[H:16])([H:8])([H:9])[H:10]>>[C:1](=[C:2]=[C:3](/[C:4](=[C:5](/[C:6]([H:13])([H:14])[H:15])[N:7]([H:8])[H:16])[H:12])[H:11])([H:9])[H:10]"
C       -2.64708443      -0.11576228      -0.06320178
C       -1.58688787       0.62792600      -0.57422739
C       -0.68862618       1.52086520      -0.07187554
C        0.60775301       1.12117903       0.29017891
C        0.97810793      -0.19761870       0.00531045
C        2.40267524      -0.65360967       0.07443538
N       -0.01019178      -1.02212736      -0.34303489
H       -1.58260381      -0.99227843       0.06597595
H       -3.03954040       0.09732845       0.93057484
H       -3.37947948      -0.48603259      -0.77783886
H       -1.02383734       2.54107348       0.08389849
H        1.35165582       1.84562004       0.58535361
H        2.60013413      -1.50949807      -0.57362140
H        3.08899104       0.13632613      -0.23080965
H        2.64880271      -0.93670953       1.10076495
H        0.28013142      -1.97668172      -0.50188305
16
Frame=9 idx=007188 GeodesicLength=0.951501793548068 rxn_smarts="[C:1]([c:2]1[c:3]([H:11])[c:4]([H:12])[c:5]([C:6]([H:13])([H:14])[H:15])[n:7]1[H:16])([H:8])([H:9])[H:10]>>[C:1](=[C:2]=[C:3](/[C:4](=[C:5](/[C:6]([H:13])([H:14])[H:15])[N:7]([H:8])[H:16])[H:12])[H:11])([H:9])[H:10]"
C       -2.64152037      -0.12703218      -0.06275418
C       -1.56598820       0.60429074      -0.56444967
C       -0.68525676       1.52301167      -0.08541208
C        0.61692013       1.13422906       0.28690555
C        0.98138576      -0.18506082       0.02193397
C        2.40120743      -0.65540055       0.07108978
N       -0.02112214      -1.00637527      -0.31390281
H       -1.57394844      -1.02590068       0.11746018
H       -3.06397211       0.12409503       0.90912288
H       -3.36162573      -0.49649736      -0.79054367
H       -1.03654923       2.53647600       0.07575096
H        1.36290631       1.86610947       0.55699133
H        2.59740896      -1.46548962      -0.63408656
H        3.09744582       0.14692016      -0.17205744
H        2.63501303      -1.01306661       1.07694389
H        0.25769556      -1.96030904      -0.49299212
16
Frame=10 idx=007188 GeodesicLength=1.0572593569125694 rxn_smarts="[C:1]([c:2]1[c:3]([H:11])[c:4]([H:12])[c:5]([C:6]([H:13])([H:14])[H:15])[n:7]1[H:16])([H:8])([H:9])[H:10]>>[C:1](=[C:2]=[C:3](/[C:4](=[C:5](/[C:6]([H:13])([H:14])[H:15])[N:7]([H:8])[H:16])[H:12])[H:11])([H:9])[H:10]"
C       -2.63558493      -0.13846903      -0.06265487
C       -1.54538761       0.58209266      -0.55334395
C       -0.68177977       1.52512936      -0.09866283
C        0.62624051       1.14742866       0.28341325
C        0.98408337      -0.17304041       0.04260723
C        2.39911049      -0.65717587       0.06803398
N       -0.03220650      -0.99116076      -0.28110552
H       -1.56532805      -1.05886869       0.16793013
H       -3.08739221       0.14844857       0.88534506
H       -3.34245446      -0.50695170      -0.80417164
H       -1.04859798       2.53160207       0.06892677
H        1.37492367       1.88651484       0.52456755
H        2.59305078      -1.41698343      -0.69193271
H        3.10436304       0.15345196      -0.11222381
H        2.62180025      -1.08882883       1.04715038
H        0.23515941      -1.94318939      -0.48387901
16
Frame=11 idx=007188 GeodesicLength=1.163044517034864 rxn_smarts="[C:1]([c:2]1[c:3]([H:11])[c:4]([H:12])[c:5]([C:6]([H:13])([H:14])[H:15])[n:7]1[H:16])([H:8])([H:9])[H:10]>>[C:1](=[C:2]=[C:3](/[C:4](=[C:5](/[C:6]([H:13])([H:14])[H:15])[N:7]([H:8])[H:16])[H:12])[H:11])([H:9])[H:10]"
C       -2.62928577      -0.15005410      -0.06291050
C       -1.52499472       0.56122884      -0.54097856
C       -0.67813640       1.52713669      -0.11151449
C        0.63574776       1.16067808       0.27986906
C        0.98629485      -0.16140689       0.06725838
C        2.39630316      -0.65887121       0.06516284
N       -0.04336394      -0.97633776      -0.24491941
H       -1.55675495      -1.09144768       0.21744741
H       -3.10983917       0.17042534       0.85939955
H       -3.32186861      -0.51747578      -0.81870031
H       -1.05970889       2.52656233       0.06287180
H        1.38762075       1.90634706       0.48843253
H        2.58691677      -1.36383167      -0.74700935
H        3.10978552       0.15584864      -0.05148107
H        2.60889328      -1.16366610       1.01112354
H        0.21239034      -1.92513580      -0.47405140
16
Frame=12 idx=007188 GeodesicLength=1.2688833923187817 rxn_smarts="[C:1]([c:2]1[c:3]([H:11])[c:4]([H:12])[c:5]([C:6]([H:13])([H:14])[H:15])[n:7]1[H:16])([H:8])([H:9])[H:10]>>[C:1](=[C:2]=[C:3](/[C:4](=[C:5](/[C:6]([H:13])([H:14])[H:15])[N:7]([H:8])[H:16])[H:12])[H:11])([H:9])[H:10]"
C       -2.62255469      -0.16183231      -0.06309830
C       -1.50498504       0.54172961      -0.52736987
C       -0.67437892       1.52905162      -0.12407844
C        0.64550901       1.17393538       0.27575470
C        0.98815108      -0.14984925       0.09478071
C        2.39265257      -0.66050603       0.06276796
N       -0.05448077      -0.96157388      -0.20667774
H       -1.54790177      -1.12394531       0.26567500
H       -3.13079433       0.18978803       0.83217708
H       -3.30008549      -0.52806269      -0.83339328
H       -1.06979420       2.52148687       0.05731336
H        1.40092649       1.92514441       0.44850092
H        2.57938447      -1.30625818      -0.79834588
H        3.11388574       0.15376148       0.01071911
H        2.59504112      -1.23701369       0.96930634
H        0.18942474      -1.90585606      -0.46403168
16
Frame=13 idx=007188 GeodesicLength=1.3748128783564135 rxn_smarts="[C:1]([c:2]1[c:3]([H:11])[c:4]([H:12])[c:5]([C:6]([H:13])([H:14])[H:15])[n:7]1[H:16])([H:8])([H:9])[H:10]>>[C:1](=[C:2]=[C:3](/[C:4](=[C:5](/[C:6]([H:13])([H:14])[H:15])[N:7]([H:8])[H:16])[H:12])[H:11])([H:9])[H:10]"
C       -2.61538004      -0.17380151      -0.06304674
C       -1.48544254       0.52365537      -0.51254818
C       -0.67053092       1.53089716      -0.13624364
C        0.65553447       1.18708622       0.27101678
C        0.98975660      -0.13815070       0.12414461
C        2.38810297      -0.66206675       0.06089464
N       -0.06552231      -0.94671802      -0.16730491
H       -1.53848978      -1.15660305       0.31244846
H       -3.15015402       0.20649423       0.80416806
H       -3.27718346      -0.53870545      -0.84796261
H       -1.07873731       2.51652495       0.05218684
H        1.41475906       1.94239601       0.40500461
H        2.57091067      -1.24479634      -0.84512442
H        3.11661933       0.14699449       0.07407882
H        2.57946172      -1.30792654       0.92210724
H        0.16629555      -1.88528004      -0.45381956
16
Frame=14 idx=007188 GeodesicLength=1.4808354234934358 rxn_smarts="[C:1]([c:2]1[c:3]([H:11])[c:4]([H:12])[c:5]([C:6]([H:13])([H:14])[H:15])[n:7]1[H:16])([H:8])([H:9])[H:10]>>[C:1](=[C:2]=[C:3](/[C:4](=[C:5](/[C:6]([H:13])([H:14])[H:15])[N:7]([H:8])[H:16])[H:12])[H:11])([H:9])[H:10]"
C       -2.60775536      -0.18587164      -0.06257650
C       -1.46644845       0.50704796      -0.49665372
C       -0.66659265       1.53265539      -0.14816967
C        0.66570948       1.19989331       0.26566039
C        0.99119462      -0.12615052       0.15411930
C        2.38266136      -0.66349373       0.05938038
N       -0.07644904      -0.93161149      -0.12773302
H       -1.52818527      -1.18951448       0.35761652
H       -3.16778949       0.22072181       0.77583220
H       -3.25329399      -0.54935776      -0.86201047
H       -1.08640761       2.51180123       0.04704552
H        1.42873311       1.95748963       0.35957080
H        2.56208564      -1.18050051      -0.88657434
H        3.11780144       0.13559526       0.13768575
H        2.56165211      -1.37514585       0.87006744
H        0.14308411      -1.86355860      -0.44326057
16
Frame=15 idx=007188 GeodesicLength=1.5869701822387507 rxn_smarts="[C:1]([c:2]1[c:3]([H:11])[c:4]([H:12])[c:5]([C:6]([H:13])([H:14])[H:15])[n:7]1[H:16])([H:8])([H:9])[H:10]>>[C:1](=[C:2]=[C:3](/[C:4](=[C:5](/[C:6]([H:13])([H:14])[H:15])[N:7]([H:8])[H:16])[H:12])[H:11])([H:9])[H:10]"
C       -2.59973355      -0.19797450      -0.06146491
C       -1.44816713       0.49199761      -0.47978822
C       -0.66262578       1.53438571      -0.15991938
C        0.67594467       1.21225265       0.25969008
C        0.99250384      -0.11375723       0.18346817
C        2.37638758      -0.66480988       0.05823418
N       -0.08729423      -0.91619904      -0.08898491
H       -1.51662808      -1.22284912       0.40093794
H       -3.18360877       0.23254801       0.74775944
H       -3.22869506      -0.55990743      -0.87513953
H       -1.09279722       2.50747834       0.04171682
H        1.44264293       1.97017655       0.31317265
H        2.55368888      -1.11465368      -0.92204765
H        3.11728728       0.11973724       0.20077920
H        2.54115957      -1.43759978       0.81425266
H        0.11993507      -1.84082546      -0.43266654
16
Frame=16 idx=007188 GeodesicLength=1.693216589953613 rxn_smarts="[C:1]([c:2]1[c:3]([H:11])[c:4]([H:12])[c:5]([C:6]([H:13])([H:14])[H:15])[n:7]1[H:16])([H:8])([H:9])[H:10]>>[C:1](=[C:2]=[C:3](/[C:4](=[C:5](/[C:6]([H:13])([H:14])[H:15])[N:7]([H:8])[H:16])[H:12])[H:11])([H:9])[H:10]"
C       -2.59141025      -0.21002898      -0.05939897
C       -1.43080518       0.47859416      -0.46205059
C       -0.65873904       1.53616640      -0.17158534
C        0.68614345       1.22412950       0.25296304
C        0.99366192      -0.10095520       0.21113772
C        2.36938146      -0.66607274       0.05763418
N       -0.09810177      -0.90048445      -0.05210943
H       -1.50343023      -1.25687285       0.44202436
H       -3.19747076       0.24200533       0.72079386
H       -3.20384410      -0.57012232      -0.88684347
H       -1.09795757       2.50373446       0.03602718
H        1.45632149       1.98042712       0.26632880
H        2.54667649      -1.04855787      -0.95105873
H        3.11491032       0.09976880       0.26299874
H        2.51765641      -1.49456321       0.75601937
H        0.09700734      -1.81716813      -0.42288071
