15
Frame=0 idx=009056 GeodesicLength=0.0 rxn_smarts="[N:1]([C@@:2]([C:3]#[N:4])([C:5]1([H:11])[C:6]([H:12])([H:13])[C:7]1([H:14])[H:15])[H:10])([H:8])[H:9]>>[N:1]([C@@:2]([N+:4]#[C-:3])([C:5]1([H:11])[C:6]([H:12])([H:13])[C:7]1([H:14])[H:15])[H:10])([H:8])[H:9]"
N        2.00380256      -0.50971886      -0.18585459
C        0.82723192      -0.12447938       0.26242722
C        1.07848925       2.16771203       0.28684728
N        1.19802517       2.03665134       1.44373354
C       -0.35402788      -0.14729368      -0.58662418
C       -1.64460478       0.36527984      -0.03113322
C       -1.46110663      -1.10261393      -0.15680145
H        2.79113138      -0.45584455       0.43846026
H        2.21184996      -0.39743846      -1.16484089
H        0.68357753      -0.18094971       1.33129519
H       -0.17531244      -0.02485391      -1.64690439
H       -1.59419842       0.81907214       0.94972609
H       -2.29439960       0.87171515      -0.73047599
H       -1.96632010      -1.63344777      -0.95235601
H       -1.30413792      -1.68379020       0.74250119
15
Frame=1 idx=009056 GeodesicLength=0.11455814363881993 rxn_smarts="[N:1]([C@@:2]([C:3]#[N:4])([C:5]1([H:11])[C:6]([H:12])([H:13])[C:7]1([H:14])[H:15])[H:10])([H:8])[H:9]>>[N:1]([C@@:2]([N+:4]#[C-:3])([C:5]1([H:11])[C:6]([H:12])([H:13])[C:7]1([H:14])[H:15])[H:10])([H:8])[H:9]"
N        1.98591431      -0.52607013      -0.16622584
C        0.82083795      -0.07485097       0.27212696
C        1.03013565       2.19030746       0.27805913
N        1.34906834       2.03949644       1.39146902
C       -0.36103034      -0.12446076      -0.58080276
C       -1.66643409       0.35124978      -0.02680245
C       -1.44599378      -1.11060847      -0.17215503
H        2.76965954      -0.50033394       0.46441979
H        2.20746368      -0.41413454      -1.14244440
H        0.66176118      -0.15282239       1.33819051
H       -0.17873531       0.02386978      -1.63728752
H       -1.63514427       0.79031597       0.96159475
H       -2.32621815       0.85064565      -0.72188726
H       -1.93440247      -1.64219183      -0.97759859
H       -1.27688223      -1.70041206       0.71934369
15
Frame=2 idx=009056 GeodesicLength=0.21808035154034017 rxn_smarts="[N:1]([C@@:2]([C:3]#[N:4])([C:5]1([H:11])[C:6]([H:12])([H:13])[C:7]1([H:14])[H:15])[H:10])([H:8])[H:9]>>[N:1]([C@@:2]([N+:4]#[C-:3])([C:5]1([H:11])[C:6]([H:12])([H:13])[C:7]1([H:14])[H:15])[H:10])([H:8])[H:9]"
N        1.96930586      -0.54045047      -0.14890111
C        0.81675290      -0.02942831       0.27980981
C        0.97631461       2.21028010       0.29044424
N        1.48164471       2.03742564       1.32648478
C       -0.36620486      -0.10426410      -0.57605891
C       -1.68357344       0.33981112      -0.02372882
C       -1.43096534      -1.11605372      -0.18501202
H        2.74808300      -0.54195063       0.48841984
H        2.20371910      -0.43063773      -1.12248956
H        0.64328150      -0.12800915       1.34284102
H       -0.18183685       0.06584537      -1.62903635
H       -1.66840920       0.76602966       0.97073061
H       -2.35233773       0.83219822      -0.71526683
H       -1.90525075      -1.64849819      -0.99824868
H       -1.25052352      -1.71229781       0.70001200
15
Frame=3 idx=009056 GeodesicLength=0.3147952954537907 rxn_smarts="[N:1]([C@@:2]([C:3]#[N:4])([C:5]1([H:11])[C:6]([H:12])([H:13])[C:7]1([H:14])[H:15])[H:10])([H:8])[H:9]>>[N:1]([C@@:2]([N+:4]#[C-:3])([C:5]1([H:11])[C:6]([H:12])([H:13])[C:7]1([H:14])[H:15])[H:10])([H:8])[H:9]"
N        1.95478169      -0.55328068      -0.13398573
C        0.81498310       0.01142359       0.28565586
C        0.91767882       2.22672319       0.32460498
N        1.59474891       2.03207640       1.25037321
C       -0.36942572      -0.08676788      -0.57248339
C       -1.69627321       0.33140731      -0.02222898
C       -1.41649360      -1.11906056      -0.19531170
H        2.72803300      -0.57849520       0.50959715
H        2.20065523      -0.44765835      -1.10533321
H        0.62824506      -0.10855769       1.34535905
H       -0.18405026       0.10043647      -1.62254320
H       -1.69438413       0.74739455       0.97676693
H       -2.37285927       0.81673210      -0.71123369
H       -1.87931292      -1.65292912      -1.01418155
H       -1.22632670      -1.71944413       0.68494429
15
Frame=4 idx=009056 GeodesicLength=0.40716994966714165 rxn_smarts="[N:1]([C@@:2]([C:3]#[N:4])([C:5]1([H:11])[C:6]([H:12])([H:13])[C:7]1([H:14])[H:15])[H:10])([H:8])[H:9]>>[N:1]([C@@:2]([N+:4]#[C-:3])([C:5]1([H:11])[C:6]([H:12])([H:13])[C:7]1([H:14])[H:15])[H:10])([H:8])[H:9]"
N        1.94226964      -0.56624687      -0.11941286
C        0.81508314       0.04721348       0.29115165
C        0.85824153       2.23691631       0.37428746
N        1.68744556       2.02887886       1.15990797
C       -0.37074736      -0.07158687      -0.56920895
C       -1.70499135       0.32526677      -0.02058481
C       -1.40303479      -1.12022480      -0.20492858
H        2.71041999      -0.60854994       0.52941397
H        2.19800571      -0.46687033      -1.08895995
H        0.61598679      -0.09367532       1.34719389
H       -0.18476389       0.13092340      -1.61643774
H       -1.71437686       0.73093298       0.98264627
H       -2.38787331       0.80566037      -0.70681566
H       -1.85706937      -1.65377322      -1.02882519
H       -1.20459542      -1.72486482       0.67057253
15
Frame=5 idx=009056 GeodesicLength=0.4969370130685571 rxn_smarts="[N:1]([C@@:2]([C:3]#[N:4])([C:5]1([H:11])[C:6]([H:12])([H:13])[C:7]1([H:14])[H:15])[H:10])([H:8])[H:9]>>[N:1]([C@@:2]([N+:4]#[C-:3])([C:5]1([H:11])[C:6]([H:12])([H:13])[C:7]1([H:14])[H:15])[H:10])([H:8])[H:9]"
N        1.93112061      -0.57960630      -0.10483387
C        0.81649330       0.07915551       0.29655143
C        0.80339789       2.24169153       0.44003523
N        1.76127680       2.02754811       1.05624306
C       -0.37080026      -0.05717646      -0.56614751
C       -1.71128705       0.32113025      -0.01924300
C       -1.39010334      -1.11979017      -0.21404225
H        2.69574568      -0.63135265       0.54761436
H        2.19458740      -0.48935930      -1.07332796
H        0.60562159      -0.08332039       1.34855028
H       -0.18436629       0.15793065      -1.61094892
H       -1.73054185       0.71692429       0.98787536
H       -2.39967579       0.79733286      -0.70296145
H       -1.83668377      -1.65260015      -1.04245803
H       -1.18478492      -1.72850777       0.65709329
15
Frame=6 idx=009056 GeodesicLength=0.5852061518232339 rxn_smarts="[N:1]([C@@:2]([C:3]#[N:4])([C:5]1([H:11])[C:6]([H:12])([H:13])[C:7]1([H:14])[H:15])[H:10])([H:8])[H:9]>>[N:1]([C@@:2]([N+:4]#[C-:3])([C:5]1([H:11])[C:6]([H:12])([H:13])[C:7]1([H:14])[H:15])[H:10])([H:8])[H:9]"
N        1.92292559      -0.59296918      -0.08994642
C        0.81922152       0.10520138       0.30284199
C        0.75305329       2.23696402       0.52030650
N        1.81163334       2.03049253       0.93876740
C       -0.36901815      -0.04532098      -0.56308523
C       -1.71418279       0.31967438      -0.01817395
C       -1.37909722      -1.11765265      -0.22267093
H        2.68685672      -0.64384008       0.56360358
H        2.19128956      -0.51350469      -1.05817385
H        0.59729881      -0.08046450       1.35012883
H       -0.18172256       0.17999004      -1.60574136
H       -1.74188064       0.70593770       0.99251280
H       -2.40593537       0.79424565      -0.69962385
H       -1.82080291      -1.64804478      -1.05517414
H       -1.16963919      -1.73070885       0.64442863
15
Frame=7 idx=009056 GeodesicLength=0.6718748231514011 rxn_smarts="[N:1]([C@@:2]([C:3]#[N:4])([C:5]1([H:11])[C:6]([H:12])([H:13])[C:7]1([H:14])[H:15])[H:10])([H:8])[H:9]>>[N:1]([C@@:2]([N+:4]#[C-:3])([C:5]1([H:11])[C:6]([H:12])([H:13])[C:7]1([H:14])[H:15])[H:10])([H:8])[H:9]"
N        1.91650863      -0.60634158      -0.07389508
C        0.82228700       0.12687095       0.31072396
C        0.71739329       2.22452652       0.61021802
N        1.83934650       2.03636664       0.80965831
C       -0.36643951      -0.03404544      -0.55945639
C       -1.71575455       0.31984106      -0.01716149
C       -1.36930336      -1.11433365      -0.23144296
H        2.68286764      -0.64689961       0.57787511
H        2.18716510      -0.53874182      -1.04254996
H        0.58948109      -0.08322728       1.35249460
H       -0.17773018       0.19907909      -1.60032439
H       -1.75137450       0.69641594       0.99701204
H       -2.40966302       0.79412445      -0.69665759
H       -1.80699896      -1.64133375      -1.06817190
H       -1.15778516      -1.73230153       0.63167772
15
Frame=8 idx=009056 GeodesicLength=0.7578293091792772 rxn_smarts="[N:1]([C@@:2]([C:3]#[N:4])([C:5]1([H:11])[C:6]([H:12])([H:13])[C:7]1([H:14])[H:15])[H:10])([H:8])[H:9]>>[N:1]([C@@:2]([N+:4]#[C-:3])([C:5]1([H:11])[C:6]([H:12])([H:13])[C:7]1([H:14])[H:15])[H:10])([H:8])[H:9]"
N        1.91219448      -0.61902301      -0.05673009
C        0.82525471       0.14415339       0.32051724
C        0.70109893       2.20475939       0.70332517
N        1.84270455       2.04391560       0.67439895
C       -0.36334435      -0.02374258      -0.55510957
C       -1.71638634       0.32135337      -0.01618670
C       -1.36106708      -1.11016026      -0.24024811
H        2.68382781      -0.64079263       0.59016672
H        2.18294296      -0.56256299      -1.02627190
H        0.58146648      -0.09145879       1.35579553
H       -0.17257437       0.21487152      -1.59456534
H       -1.75966812       0.68812724       1.00136327
H       -2.41106634       0.79685961      -0.69408355
H       -1.79565859      -1.63269918      -1.08135174
H       -1.14972473      -1.73360069       0.61898011
15
Frame=9 idx=009056 GeodesicLength=0.8451347389776606 rxn_smarts="[N:1]([C@@:2]([C:3]#[N:4])([C:5]1([H:11])[C:6]([H:12])([H:13])[C:7]1([H:14])[H:15])[H:10])([H:8])[H:9]>>[N:1]([C@@:2]([N+:4]#[C-:3])([C:5]1([H:11])[C:6]([H:12])([H:13])[C:7]1([H:14])[H:15])[H:10])([H:8])[H:9]"
N        1.90805458      -0.63083501      -0.03809354
C        0.82718181       0.15951930       0.33202596
C        0.71083739       2.18303751       0.78926174
N        1.82741130       2.04932990       0.54077189
C       -0.36099451      -0.01263343      -0.54969664
C       -1.71809114       0.32235735      -0.01460362
C       -1.35320233      -1.10596538      -0.24975478
H        2.68637122      -0.62964610       0.60168177
H        2.17802517      -0.58360947      -1.00858090
H        0.57171627      -0.10019722       1.36017595
H       -0.16786952       0.23021611      -1.58796611
H       -1.76952237       0.67811135       1.00656277
H       -2.41335264       0.79946655      -0.69082373
H       -1.78401594      -1.62336547      -1.09593991
H       -1.14254932      -1.73578598       0.60497913
15
Frame=10 idx=009056 GeodesicLength=0.9376328392077065 rxn_smarts="[N:1]([C@@:2]([C:3]#[N:4])([C:5]1([H:11])[C:6]([H:12])([H:13])[C:7]1([H:14])[H:15])[H:10])([H:8])[H:9]>>[N:1]([C@@:2]([N+:4]#[C-:3])([C:5]1([H:11])[C:6]([H:12])([H:13])[C:7]1([H:14])[H:15])[H:10])([H:8])[H:9]"
N        1.90409696      -0.64109696      -0.01915160
C        0.82798604       0.17360564       0.34450790
C        0.74476125       2.16044730       0.86712826
N        1.79629818       2.05120354       0.41392270
C       -0.35956475      -0.00117616      -0.54362714
C       -1.72102084       0.32283710      -0.01309144
C       -1.34574987      -1.10193988      -0.25923599
H        2.68936615      -0.61583221       0.61217842
H        2.17333857      -0.59956865      -0.99037245
H        0.56043599      -0.10861205       1.36507899
H       -0.16397357       0.24407264      -1.58113204
H       -1.78098485       0.66743126       1.01151082
H       -2.41673192       0.80118381      -0.68802136
H       -1.77207832      -1.61435660      -1.11067679
H       -1.13617903      -1.73819878       0.59098173
15
Frame=11 idx=009056 GeodesicLength=1.0349671167128307 rxn_smarts="[N:1]([C@@:2]([C:3]#[N:4])([C:5]1([H:11])[C:6]([H:12])([H:13])[C:7]1([H:14])[H:15])[H:10])([H:8])[H:9]>>[N:1]([C@@:2]([N+:4]#[C-:3])([C:5]1([H:11])[C:6]([H:12])([H:13])[C:7]1([H:14])[H:15])[H:10])([H:8])[H:9]"
N        1.90084801      -0.64945053      -0.00152596
C        0.82794428       0.18649897       0.35683411
C        0.79762356       2.13677677       0.93455367
N        1.75217472       2.04949107       0.30111167
C       -0.35893684       0.00935219      -0.53767282
C       -1.72466904       0.32318248      -0.01227710
C       -1.33917781      -1.09826703      -0.26770318
H        2.69231865      -0.60148189       0.62135905
H        2.17047354      -0.60806248      -0.97295333
H        0.54840820      -0.11645835       1.36964244
H       -0.16102718       0.25504423      -1.57492752
H       -1.79307262       0.65780484       1.01518987
H       -2.42061171       0.80215825      -0.68659429
H       -1.76111337      -1.60653897      -1.12378825
H       -1.13118239      -1.74004955       0.57875163
15
Frame=12 idx=009056 GeodesicLength=1.1348609485160366 rxn_smarts="[N:1]([C@@:2]([C:3]#[N:4])([C:5]1([H:11])[C:6]([H:12])([H:13])[C:7]1([H:14])[H:15])[H:10])([H:8])[H:9]>>[N:1]([C@@:2]([N+:4]#[C-:3])([C:5]1([H:11])[C:6]([H:12])([H:13])[C:7]1([H:14])[H:15])[H:10])([H:8])[H:9]"
N        1.89722963      -0.65657359       0.01466800
C        0.82706602       0.19939237       0.36835437
C        0.86418724       2.11424196       0.98671958
N        1.70250110       2.04383295       0.20603860
C       -0.35938131       0.01942565      -0.53201991
C       -1.72930071       0.32265434      -0.01162438
C       -1.33289553      -1.09526242      -0.27552109
H        2.69352138      -0.58951983       0.63029429
H        2.16907950      -0.60996643      -0.95623862
H        0.53575865      -0.12082853       1.37387104
H       -0.15962184       0.26529674      -1.56916093
H       -1.80600216       0.64776920       1.01838046
H       -2.42594215       0.80149466      -0.68536166
H       -1.75037750      -1.60004029      -1.13582770
H       -1.12582233      -1.74191678       0.56742796
15
Frame=13 idx=009056 GeodesicLength=1.237849433145964 rxn_smarts="[N:1]([C@@:2]([C:3]#[N:4])([C:5]1([H:11])[C:6]([H:12])([H:13])[C:7]1([H:14])[H:15])[H:10])([H:8])[H:9]>>[N:1]([C@@:2]([N+:4]#[C-:3])([C:5]1([H:11])[C:6]([H:12])([H:13])[C:7]1([H:14])[H:15])[H:10])([H:8])[H:9]"
N        1.89356427      -0.66245651       0.02890610
C        0.82549808       0.21216811       0.37895482
C        0.94236333       2.09085571       1.02859860
N        1.64721286       2.03638578       0.12591368
C       -0.36066812       0.02875284      -0.52687277
C       -1.73472403       0.32177783      -0.01170003
C       -1.32711290      -1.09281766      -0.28229395
H        2.69322758      -0.58022338       0.63900322
H        2.16972686      -0.60510111      -0.94063291
H        0.52288994      -0.12285240       1.37765943
H       -0.15931455       0.27380567      -1.56425226
H       -1.81957079       0.63866738       1.02034877
H       -2.43212672       0.79955907      -0.68548292
H       -1.74008480      -1.59527451      -1.14614109
H       -1.12088103      -1.74324682       0.55799131
15
Frame=14 idx=009056 GeodesicLength=1.3413356252204625 rxn_smarts="[N:1]([C@@:2]([C:3]#[N:4])([C:5]1([H:11])[C:6]([H:12])([H:13])[C:7]1([H:14])[H:15])[H:10])([H:8])[H:9]>>[N:1]([C@@:2]([N+:4]#[C-:3])([C:5]1([H:11])[C:6]([H:12])([H:13])[C:7]1([H:14])[H:15])[H:10])([H:8])[H:9]"
N        1.89189765      -0.66653185       0.03899855
C        0.82399321       0.22292010       0.38800739
C        1.02455925       2.06243926       1.06342338
N        1.58360640       2.02925289       0.06422714
C       -0.36184614       0.03486005      -0.52305931
C       -1.73922813       0.32219980      -0.01393284
C       -1.32310949      -1.09058824      -0.28622561
H        2.69336271      -0.57250693       0.64575749
H        2.17453819      -0.59052139      -0.92775332
H        0.51150244      -0.12667346       1.37987975
H       -0.15899230       0.27698252      -1.56108220
H       -1.83111679       0.63512172       1.01875664
H       -2.43646260       0.79790834      -0.68941257
H       -1.73306768      -1.59291209      -1.15154549
H       -1.11963669      -1.74195072       0.55396100
15
Frame=15 idx=009056 GeodesicLength=1.4474957000256545 rxn_smarts="[N:1]([C@@:2]([C:3]#[N:4])([C:5]1([H:11])[C:6]([H:12])([H:13])[C:7]1([H:14])[H:15])[H:10])([H:8])[H:9]>>[N:1]([C@@:2]([N+:4]#[C-:3])([C:5]1([H:11])[C:6]([H:12])([H:13])[C:7]1([H:14])[H:15])[H:10])([H:8])[H:9]"
N        1.88849939      -0.67065906       0.04833561
C        0.82167363       0.23486374       0.39651636
C        1.11637953       2.03479408       1.08468811
N        1.51985450       2.02134331       0.01387206
C       -0.36416679       0.04173441      -0.51925723
C       -1.74513215       0.32124147      -0.01573329
C       -1.31860356      -1.08906503      -0.29047693
H        2.69019623      -0.57020233       0.65448751
H        2.18018366      -0.57178929      -0.91413042
H        0.49951513      -0.12499779       1.38279011
H       -0.16015356       0.28208539      -1.55779249
H       -1.84434883       0.62934933       1.01781798
H       -2.44295991       0.79427682      -0.69258507
H       -1.72463987      -1.59138532      -1.15765377
H       -1.11629741      -1.74158974       0.54912146
15
Frame=16 idx=009056 GeodesicLength=1.5548166821504008 rxn_smarts="[N:1]([C@@:2]([C:3]#[N:4])([C:5]1([H:11])[C:6]([H:12])([H:13])[C:7]1([H:14])[H:15])[H:10])([H:8])[H:9]>>[N:1]([C@@:2]([N+:4]#[C-:3])([C:5]1([H:11])[C:6]([H:12])([H:13])[C:7]1([H:14])[H:15])[H:10])([H:8])[H:9]"
N        1.88538180      -0.67406672       0.05451826
C        0.81924021       0.24617238       0.40384782
C        1.21209382       2.00366040       1.09601474
N        1.45244754       2.01467738      -0.02171118
C       -0.36676182       0.04720716      -0.51621418
C       -1.75103213       0.32049058      -0.01864202
C       -1.31476744      -1.08791533      -0.29313925
H        2.68552231      -0.57228409       0.66320406
H        2.18884054      -0.54562977      -0.90123152
H        0.48837428      -0.12210444       1.38512321
H       -0.16160811       0.28564270      -1.55521220
H       -1.85708730       0.62608923       1.01500784
H       -2.44927698       0.78974263      -0.69775380
H       -1.71714399      -1.59178183      -1.16108279
H       -1.11422272      -1.73990028       0.54727101
