15
Frame=0 idx=001994 GeodesicLength=0.0 rxn_smarts="[C:1]([N:2]1[C:3]([H:10])([H:11])[C@:4]1([C:5]([O:6][H:15])([H:13])[H:14])[H:12])([H:7])([H:8])[H:9]>>[C:1]([N:2]1[C:3]([H:10])([H:11])[C@:4]1([C:5](=[O:6])[H:14])[H:12])([H:7])([H:8])[H:9].[H:13][H:15]"
C       -2.02237030       0.64098483       0.05554990
N       -0.72317196       0.40047798      -0.53939220
C       -0.34397450      -0.98199330      -0.74487459
C        0.27355469      -0.18001565       0.33100838
C        1.64589868       0.41720991       0.14185393
O        2.25225984       0.34688379      -1.02384834
H       -2.77344976       0.68020669      -0.73435138
H       -2.31488441      -0.13534007       0.77866834
H       -2.01345641       1.60519095       0.56588918
H       -1.05181039      -1.74940334      -0.44351502
H        0.23090980      -1.17452426      -1.64205461
H       -0.01087275      -0.38213047       1.36249794
H        2.37344850      -0.45435115       1.02748150
H        1.79668669       1.32084886       0.75783008
H        2.68123227      -0.35404482       0.10725695
15
Frame=1 idx=001994 GeodesicLength=0.09862353758245929 rxn_smarts="[C:1]([N:2]1[C:3]([H:10])([H:11])[C@:4]1([C:5]([O:6][H:15])([H:13])[H:14])[H:12])([H:7])([H:8])[H:9]>>[C:1]([N:2]1[C:3]([H:10])([H:11])[C@:4]1([C:5](=[O:6])[H:14])[H:12])([H:7])([H:8])[H:9].[H:13][H:15]"
C       -2.02709628       0.64200443       0.04243877
N       -0.72327968       0.39815688      -0.54100968
C       -0.33966906      -0.98544160      -0.72665723
C        0.27033466      -0.16795282       0.34258534
C        1.64435725       0.42590681       0.15921653
O        2.23299118       0.41094570      -1.01631461
H       -2.77326814       0.66863933      -0.75266263
H       -2.32189518      -0.12607871       0.77336330
H       -2.02455474       1.61252349       0.54074148
H       -1.04644317      -1.75158127      -0.41960258
H        0.24292470      -1.18961185      -1.61626602
H       -0.02100270      -0.36196049       1.37369603
H        2.39461424      -0.50237900       0.98658414
H        1.80466739       1.30688072       0.80499444
H        2.68731953      -0.38005162       0.04889272
15
Frame=2 idx=001994 GeodesicLength=0.1971248406534295 rxn_smarts="[C:1]([N:2]1[C:3]([H:10])([H:11])[C@:4]1([C:5]([O:6][H:15])([H:13])[H:14])[H:12])([H:7])([H:8])[H:9]>>[C:1]([N:2]1[C:3]([H:10])([H:11])[C@:4]1([C:5](=[O:6])[H:14])[H:12])([H:7])([H:8])[H:9].[H:13][H:15]"
C       -2.03138788       0.64290693       0.02940576
N       -0.72289322       0.39579841      -0.54215988
C       -0.33524759      -0.98869314      -0.70830641
C        0.26707650      -0.15631185       0.35458640
C        1.64295567       0.43391490       0.17735744
O        2.21475127       0.47162307      -1.00475513
H       -2.77233801       0.65728821      -0.77091889
H       -2.32892121      -0.11701118       0.76769578
H       -2.03511430       1.61942752       0.51583505
H       -1.04124410      -1.75345178      -0.39602515
H        0.25518629      -1.20393932      -1.59012132
H       -0.03148417      -0.34234010       1.38509124
H        2.41466378      -0.54784210       0.94342061
H        1.81247624       1.29234395       0.85063272
H        2.69152073      -0.40371355      -0.01173822
15
Frame=3 idx=001994 GeodesicLength=0.2957995021524795 rxn_smarts="[C:1]([N:2]1[C:3]([H:10])([H:11])[C@:4]1([C:5]([O:6][H:15])([H:13])[H:14])[H:12])([H:7])([H:8])[H:9]>>[C:1]([N:2]1[C:3]([H:10])([H:11])[C@:4]1([C:5](=[O:6])[H:14])[H:12])([H:7])([H:8])[H:9].[H:13][H:15]"
C       -2.03519931       0.64372697       0.01639090
N       -0.72198026       0.39333283      -0.54286704
C       -0.33075504      -0.99185850      -0.68975481
C        0.26378837      -0.14516966       0.36702916
C        1.64164144       0.44124184       0.19640031
O        2.19759933       0.52901493      -0.98945402
H       -2.77060850       0.64617362      -0.78918879
H       -2.33595681      -0.10804516       0.76165054
H       -2.04503395       1.62597273       0.49104329
H       -1.03630304      -1.75506821      -0.37267361
H        0.26755188      -1.21773012      -1.56359447
H       -0.04235225      -0.32326865       1.39668514
H        2.43371985      -0.59076130       0.89794447
H        1.81993611       1.27735155       0.89507547
H        2.69395218      -0.42491289      -0.07468654
15
Frame=4 idx=001994 GeodesicLength=0.39507375382019305 rxn_smarts="[C:1]([N:2]1[C:3]([H:10])([H:11])[C@:4]1([C:5]([O:6][H:15])([H:13])[H:14])[H:12])([H:7])([H:8])[H:9]>>[C:1]([N:2]1[C:3]([H:10])([H:11])[C@:4]1([C:5](=[O:6])[H:14])[H:12])([H:7])([H:8])[H:9].[H:13][H:15]"
C       -2.03850131       0.64449211       0.00334234
N       -0.72051904       0.39071205      -0.54313723
C       -0.32622870      -0.99502669      -0.67093247
C        0.26045213      -0.13457388       0.37996057
C        1.64034721       0.44793734       0.21646888
O        2.18170255       0.58304259      -0.97059711
H       -2.76802575       0.63531678      -0.80755030
H       -2.34302019      -0.09911914       0.75519831
H       -2.05425496       1.63221494       0.46628528
H       -1.03169001      -1.75648229      -0.34946159
H        0.27990234      -1.23117114      -1.53665386
H       -0.05367377      -0.30474245       1.40852278
H        2.45191583      -0.63111435       0.85003844
H        1.82687427       1.26206183       0.93861176
H        2.69471942      -0.44354769      -0.14009581
15
Frame=5 idx=001994 GeodesicLength=0.4930964704048471 rxn_smarts="[C:1]([N:2]1[C:3]([H:10])([H:11])[C@:4]1([C:5]([O:6][H:15])([H:13])[H:14])[H:12])([H:7])([H:8])[H:9]>>[C:1]([N:2]1[C:3]([H:10])([H:11])[C@:4]1([C:5](=[O:6])[H:14])[H:12])([H:7])([H:8])[H:9].[H:13][H:15]"
C       -2.04118544       0.64524847      -0.00975699
N       -0.71846069       0.38785014      -0.54303988
C       -0.32172446      -0.99834057      -0.65186621
C        0.25714667      -0.12464761       0.39327288
C        1.63927029       0.45359612       0.23736072
O        2.16673327       0.63419153      -0.94880832
H       -2.76453628       0.62477644      -0.82598112
H       -2.35000743      -0.09013537       0.74837443
H       -2.06254253       1.63823791       0.44149773
H       -1.02750569      -1.75778342      -0.32633283
H        0.29208317      -1.24451150      -1.50937920
H       -0.06534214      -0.28679164       1.42051179
H        2.46918801      -0.66877108       0.80030411
H        1.83338555       1.24609826       0.98127850
H        2.69349769      -0.45901768      -0.20743559
15
Frame=6 idx=001994 GeodesicLength=0.5915503516445859 rxn_smarts="[C:1]([N:2]1[C:3]([H:10])([H:11])[C@:4]1([C:5]([O:6][H:15])([H:13])[H:14])[H:12])([H:7])([H:8])[H:9]>>[C:1]([N:2]1[C:3]([H:10])([H:11])[C@:4]1([C:5](=[O:6])[H:14])[H:12])([H:7])([H:8])[H:9].[H:13][H:15]"
C       -2.04326198       0.64600042      -0.02299030
N       -0.71579317       0.38470848      -0.54254191
C       -0.31724926      -1.00184298      -0.63240265
C        0.25380109      -0.11536668       0.40710583
C        1.63822593       0.45847571       0.25939095
O        2.15299295       0.68218872      -0.92394283
H       -2.76008348       0.61450122      -0.84461531
H       -2.35698922      -0.08103293       0.74111354
H       -2.06994503       1.64407847       0.41653048
H       -1.02377977      -1.75896813      -0.30315138
H        0.30407355      -1.25790653      -1.48159672
H       -0.07751090      -0.26933841       1.43275539
H        2.48571803      -0.70380451       0.74812795
H        1.83925582       1.22980471       1.02349081
H        2.69054546      -0.47149757      -0.27727384
15
Frame=7 idx=001994 GeodesicLength=0.6904582251253667 rxn_smarts="[C:1]([N:2]1[C:3]([H:10])([H:11])[C@:4]1([C:5]([O:6][H:15])([H:13])[H:14])[H:12])([H:7])([H:8])[H:9]>>[C:1]([N:2]1[C:3]([H:10])([H:11])[C@:4]1([C:5](=[O:6])[H:14])[H:12])([H:7])([H:8])[H:9].[H:13][H:15]"
C       -2.04466738       0.64678845      -0.03643014
N       -0.71245987       0.38122964      -0.54163948
C       -0.31282316      -1.00564210      -0.61244004
C        0.25041991      -0.10679317       0.42153282
C        1.63717414       0.46249160       0.28272229
O        2.14050229       0.72694566      -0.89612404
H       -2.75459347       0.60451434      -0.86355676
H       -2.36396277      -0.07172775       0.73337222
H       -2.07634511       1.64981651       0.39125732
H       -1.02059285      -1.76011332      -0.27980330
H        0.31582670      -1.27157694      -1.45319353
H       -0.09021606      -0.25237715       1.44530890
H        2.50150721      -0.73605461       0.69329079
H        1.84440418       1.21316508       1.06554287
H        2.68582622      -0.48066623      -0.34983993
15
Frame=8 idx=001994 GeodesicLength=0.7898112031661477 rxn_smarts="[C:1]([N:2]1[C:3]([H:10])([H:11])[C@:4]1([C:5]([O:6][H:15])([H:13])[H:14])[H:12])([H:7])([H:8])[H:9]>>[C:1]([N:2]1[C:3]([H:10])([H:11])[C@:4]1([C:5](=[O:6])[H:14])[H:12])([H:7])([H:8])[H:9].[H:13][H:15]"
C       -2.04533775       0.64763233      -0.05013467
N       -0.70841009       0.37735767      -0.54031767
C       -0.30846761      -1.00982422      -0.59188140
C        0.24699613      -0.09896806       0.43661886
C        1.63610689       0.46554302       0.30745611
O        2.12932751       0.76834885      -0.86550408
H       -2.74797634       0.59482601      -0.88288278
H       -2.37092202      -0.06215156       0.72509662
H       -2.08163377       1.65549969       0.36557721
H       -1.01801473      -1.76126726      -0.25619134
H        0.32729805      -1.28572047      -1.42405468
H       -0.10350422      -0.23588792       1.45821962
H        2.51653660      -0.76540229       0.63566240
H        1.84877292       1.19616864       1.10763050
H        2.67922841      -0.48615444      -0.42529470
15
Frame=9 idx=001994 GeodesicLength=0.8877862742735328 rxn_smarts="[C:1]([N:2]1[C:3]([H:10])([H:11])[C@:4]1([C:5]([O:6][H:15])([H:13])[H:14])[H:12])([H:7])([H:8])[H:9]>>[C:1]([N:2]1[C:3]([H:10])([H:11])[C@:4]1([C:5](=[O:6])[H:14])[H:12])([H:7])([H:8])[H:9].[H:13][H:15]"
C       -2.04519497       0.64848188      -0.06406640
N       -0.70366399       0.37304203      -0.53866436
C       -0.30420665      -1.01440172      -0.57084007
C        0.24359906      -0.09186615       0.45217220
C        1.63536737       0.46728067       0.33310027
O        2.11908667       0.80707715      -0.83272396
H       -2.74021633       0.58537226      -0.90247946
H       -2.37769698      -0.05230947       0.71633998
H       -2.08567155       1.66108051       0.33953281
H       -1.01601289      -1.76240683      -0.23235288
H        0.33840606      -1.30040009      -1.39432089
H       -0.11720144      -0.21977483       1.47132468
H        2.53061651      -0.79184386       0.57622354
H        1.85272630       1.17840452       1.14943154
H        2.67006284      -0.48773605      -0.50267700
15
Frame=10 idx=001994 GeodesicLength=0.9859888321956118 rxn_smarts="[C:1]([N:2]1[C:3]([H:10])([H:11])[C@:4]1([C:5]([O:6][H:15])([H:13])[H:14])[H:12])([H:7])([H:8])[H:9]>>[C:1]([N:2]1[C:3]([H:10])([H:11])[C@:4]1([C:5](=[O:6])[H:14])[H:12])([H:7])([H:8])[H:9].[H:13][H:15]"
C       -2.04418077       0.64940003      -0.07838438
N       -0.69810845       0.36820774      -0.53659084
C       -0.30003751      -1.01950533      -0.54901966
C        0.24015958      -0.08554489       0.46847525
C        1.63469009       0.46779452       0.36029714
O        2.11019001       0.84228783      -0.79742338
H       -2.73116549       0.57615633      -0.92259127
H       -2.38440015      -0.04205921       0.70696297
H       -2.08838863       1.66666870       0.31283907
H       -1.01470672      -1.76359994      -0.20803539
H        0.34921500      -1.31591869      -1.36358163
H       -0.13152325      -0.20400883       1.48482642
H        2.54376013      -0.81520288       0.51374584
H        1.85593291       1.16017907       1.19156744
H        2.65856325      -0.48485446      -0.58308757
15
Frame=11 idx=001994 GeodesicLength=1.0845864993834562 rxn_smarts="[C:1]([N:2]1[C:3]([H:10])([H:11])[C@:4]1([C:5]([O:6][H:15])([H:13])[H:14])[H:12])([H:7])([H:8])[H:9]>>[C:1]([N:2]1[C:3]([H:10])([H:11])[C@:4]1([C:5](=[O:6])[H:14])[H:12])([H:7])([H:8])[H:9].[H:13][H:15]"
C       -2.04222392       0.65036670      -0.09312899
N       -0.69169870       0.36281169      -0.53408463
C       -0.29595861      -1.02516564      -0.52635004
C        0.23668390      -0.07998588       0.48556234
C        1.63412324       0.46696372       0.38905987
O        2.10266658       0.87387336      -0.75979257
H       -2.72073184       0.56713158      -0.94326329
H       -2.39097842      -0.03137665       0.69690932
H       -2.08968963       1.67225313       0.28542132
H       -1.01411043      -1.76485248      -0.18317261
H        0.35974030      -1.33238818      -1.33170565
H       -0.14646700      -0.18851345       1.49873506
H        2.55576895      -0.83538965       0.44824664
H        1.85842881       1.14148272       1.23408783
H        2.64444676      -0.47721098      -0.66652463
15
Frame=12 idx=001994 GeodesicLength=1.1832783277421208 rxn_smarts="[C:1]([N:2]1[C:3]([H:10])([H:11])[C@:4]1([C:5]([O:6][H:15])([H:13])[H:14])[H:12])([H:7])([H:8])[H:9]>>[C:1]([N:2]1[C:3]([H:10])([H:11])[C@:4]1([C:5](=[O:6])[H:14])[H:12])([H:7])([H:8])[H:9].[H:13][H:15]"
C       -2.03921925       0.65138245      -0.10835042
N       -0.68436067       0.35680668      -0.53113290
C       -0.29195502      -1.03144454      -0.50275671
C        0.23319921      -0.07519807       0.50346623
C        1.63373602       0.46456672       0.41941563
O        2.09659440       0.90156641      -0.72005733
H       -2.70880835       0.55826471      -0.96453531
H       -2.39736963      -0.02021852       0.68612282
H       -2.08942626       1.67784364       0.25717882
H       -1.01424680      -1.76619755      -0.15768774
H        0.37003683      -1.34996677      -1.29853241
H       -0.16200649      -0.17322956       1.51305036
H        2.56636675      -0.85226822       0.37973091
H        1.86022899       1.12226482       1.27701640
H        2.62723026      -0.46417220      -0.75292834
15
Frame=13 idx=001994 GeodesicLength=1.2811212968415353 rxn_smarts="[C:1]([N:2]1[C:3]([H:10])([H:11])[C@:4]1([C:5]([O:6][H:15])([H:13])[H:14])[H:12])([H:7])([H:8])[H:9]>>[C:1]([N:2]1[C:3]([H:10])([H:11])[C@:4]1([C:5](=[O:6])[H:14])[H:12])([H:7])([H:8])[H:9].[H:13][H:15]"
C       -2.03513627       0.65232744      -0.12399072
N       -0.67615669       0.35019028      -0.52781906
C       -0.28801550      -1.03823150      -0.47841848
C        0.22976052      -0.07106557       0.52198657
C        1.63385062       0.46041740       0.45091589
O        2.09184993       0.92566828      -0.67872732
H       -2.69542341       0.54941820      -0.98627615
H       -2.40338384      -0.00870205       0.67464612
H       -2.08756429       1.68330616       0.22823063
H       -1.01498380      -1.76753404      -0.13172437
H        0.38011338      -1.36848335      -1.26422016
H       -0.17794170      -0.15803715       1.52759063
H        2.57518905      -0.86589745       0.30919442
H        1.86171075       1.10241101       1.31992514
H        2.60613126      -0.44578764      -0.84131313
15
Frame=14 idx=001994 GeodesicLength=1.3790029693017154 rxn_smarts="[C:1]([N:2]1[C:3]([H:10])([H:11])[C@:4]1([C:5]([O:6][H:15])([H:13])[H:14])[H:12])([H:7])([H:8])[H:9]>>[C:1]([N:2]1[C:3]([H:10])([H:11])[C@:4]1([C:5](=[O:6])[H:14])[H:12])([H:7])([H:8])[H:9].[H:13][H:15]"
C       -2.02984968       0.65325837      -0.14014708
N       -0.66693588       0.34290351      -0.52406296
C       -0.28410965      -1.04565898      -0.45313214
C        0.22636905      -0.06765268       0.54130295
C        1.63432304       0.45435847       0.48399539
O        2.08881389       0.94514692      -0.63585935
H       -2.68039332       0.54059210      -1.00861907
H       -2.40903651       0.00328764       0.66237617
H       -2.08395096       1.68871759       0.19836087
H       -1.01639800      -1.76895577      -0.10511078
H        0.39010449      -1.38820052      -1.22841467
H       -0.19435663      -0.14291010       1.54245801
H        2.58189798      -0.87614024       0.23593075
H        1.86255619       1.08226746       1.36310017
H        2.58096601      -0.42101379      -0.93217826
15
Frame=15 idx=001994 GeodesicLength=1.4769411843549558 rxn_smarts="[C:1]([N:2]1[C:3]([H:10])([H:11])[C@:4]1([C:5]([O:6][H:15])([H:13])[H:14])[H:12])([H:7])([H:8])[H:9]>>[C:1]([N:2]1[C:3]([H:10])([H:11])[C@:4]1([C:5](=[O:6])[H:14])[H:12])([H:7])([H:8])[H:9].[H:13][H:15]"
C       -2.02332085       0.65410096      -0.15674660
N       -0.65671784       0.33499548      -0.51988966
C       -0.28019626      -1.05362426      -0.42705866
C        0.22308522      -0.06487656       0.56128263
C        1.63526481       0.44631533       0.51843000
O        2.08759667       0.95967128      -0.59196495
H       -2.66373168       0.53172009      -1.03143682
H       -2.41418243       0.01561985       0.64933753
H       -2.07856065       1.69396376       0.16771988
H       -1.01836815      -1.77041330      -0.07802505
H        0.40008735      -1.40891342      -1.19124265
H       -0.21107456      -0.12781998       1.55751481
H        2.58606396      -0.88315186       0.16067084
H        1.86279037       1.06216758       1.40617329
H        2.55126403      -0.38975494      -1.02476458
15
Frame=16 idx=001994 GeodesicLength=1.5748066948583594 rxn_smarts="[C:1]([N:2]1[C:3]([H:10])([H:11])[C@:4]1([C:5]([O:6][H:15])([H:13])[H:14])[H:12])([H:7])([H:8])[H:9]>>[C:1]([N:2]1[C:3]([H:10])([H:11])[C@:4]1([C:5](=[O:6])[H:14])[H:12])([H:7])([H:8])[H:9].[H:13][H:15]"
C       -2.01555543       0.65478262      -0.17366770
N       -0.64555566       0.32656938      -0.51533152
C       -0.27621897      -1.06198438      -0.40044904
C        0.21998102      -0.06264808       0.58174259
C        1.63677366       0.43626467       0.55394580
O        2.08835605       0.96880267      -0.54769593
H       -2.64551933       0.52275594      -1.05454295
H       -2.41867788       0.02811517       0.63560014
H       -2.07143334       1.69892542       0.13654477
H       -1.02072544      -1.77186310      -0.05074645
H        0.41016254      -1.43030002      -1.15296600
H       -0.22787702      -0.11279204       1.57258850
H        2.58726137      -0.88723996       0.08438126
H        1.86240819       1.04262105       1.44866443
H        2.51662024      -0.35200935      -1.11806788
