10
Frame=0 idx=000794 GeodesicLength=0.0 rxn_smarts="[O:1]([c:2]1[c:3]([H:8])[n:4][c:5]([H:9])[n:6]1[H:10])[H:7]>>[O:1]([C@@:2]1([H:10])[C:3]([H:8])=[N:4][C:5]([H:9])=[N:6]1)[H:7]"
O       -1.86783221      -0.77365053       0.15944061
C       -0.64905400      -0.22802085      -0.04600714
C       -0.32100314       1.08148724      -0.40981531
N        0.97832320       1.28885299      -0.18397373
C        1.45150034       0.14857395       0.31642600
N        0.54962733      -0.84176721       0.45770421
H       -1.76921780      -1.52318561       0.75359844
H       -0.97808588       1.83076487      -0.82433086
H        2.49641441      -0.01497710       0.53358160
H        0.10932774      -0.96807777      -0.75662381
10
Frame=1 idx=000794 GeodesicLength=0.04598969734665345 rxn_smarts="[O:1]([c:2]1[c:3]([H:8])[n:4][c:5]([H:9])[n:6]1[H:10])[H:7]>>[O:1]([C@@:2]1([H:10])[C:3]([H:8])=[N:4][C:5]([H:9])=[N:6]1)[H:7]"
O       -1.86093675      -0.79575137       0.12374715
C       -0.64297514      -0.24122767      -0.06665338
C       -0.32292885       1.07861771      -0.40708013
N        0.97241665       1.29457481      -0.17027531
C        1.45066539       0.15072416       0.32249803
N        0.55550616      -0.84613600       0.44128540
H       -1.78585918      -1.47297014       0.80193990
H       -0.98605699       1.83254783      -0.80376539
H        2.49707977      -0.01023375       0.53542196
H        0.12308893      -0.99014557      -0.77711823
10
Frame=2 idx=000794 GeodesicLength=0.09232648497780979 rxn_smarts="[O:1]([c:2]1[c:3]([H:8])[n:4][c:5]([H:9])[n:6]1[H:10])[H:7]>>[O:1]([C@@:2]1([H:10])[C:3]([H:8])=[N:4][C:5]([H:9])=[N:6]1)[H:7]"
O       -1.85233904      -0.81865779       0.09288746
C       -0.63627183      -0.25477825      -0.08691612
C       -0.32500186       1.07478387      -0.40517669
N        0.96605552       1.29989883      -0.15720229
C        1.44993761       0.15307573       0.32866309
N        0.56195850      -0.85005527       0.42619379
H       -1.80455327      -1.41848617       0.84254806
H       -0.99551577       1.83314720      -0.78110070
H        2.49817245      -0.00494673       0.53588712
H        0.13755769      -1.01398142      -0.79578372
10
Frame=3 idx=000794 GeodesicLength=0.13897308898737876 rxn_smarts="[O:1]([c:2]1[c:3]([H:8])[n:4][c:5]([H:9])[n:6]1[H:10])[H:7]>>[O:1]([C@@:2]1([H:10])[C:3]([H:8])=[N:4][C:5]([H:9])=[N:6]1)[H:7]"
O       -1.84234729      -0.84219758       0.06691212
C       -0.62911025      -0.26853606      -0.10678917
C       -0.32737279       1.07027800      -0.40336599
N        0.95916743       1.30485017      -0.14427885
C        1.44937386       0.15528961       0.33426592
N        0.56902311      -0.85385344       0.41137896
H       -1.82428664      -1.36000028       0.87639234
H       -1.00607610       1.83228524      -0.75722337
H        2.49941288       0.00090223       0.53613265
H        0.15221580      -1.03901789      -0.81342462
10
Frame=4 idx=000794 GeodesicLength=0.18611350147119907 rxn_smarts="[O:1]([c:2]1[c:3]([H:8])[n:4][c:5]([H:9])[n:6]1[H:10])[H:7]>>[O:1]([C@@:2]1([H:10])[C:3]([H:8])=[N:4][C:5]([H:9])=[N:6]1)[H:7]"
O       -1.83140602      -0.86586236       0.04547716
C       -0.62158967      -0.28226690      -0.12586598
C       -0.32986432       1.06530318      -0.40182766
N        0.95195966       1.30963022      -0.13158497
C        1.44905117       0.15759471       0.33959132
N        0.57654129      -0.85726454       0.39747998
H       -1.84512054      -1.29913116       0.90305818
H       -1.01748335       1.83024787      -0.73216686
H        2.50109003       0.00716093       0.53519763
H        0.16682177      -1.06541195      -0.82935880
10
Frame=5 idx=000794 GeodesicLength=0.2333414184883109 rxn_smarts="[O:1]([c:2]1[c:3]([H:8])[n:4][c:5]([H:9])[n:6]1[H:10])[H:7]>>[O:1]([C@@:2]1([H:10])[C:3]([H:8])=[N:4][C:5]([H:9])=[N:6]1)[H:7]"
O       -1.81997785      -0.88838265       0.02836419
C       -0.61385134      -0.29541623      -0.14328151
C       -0.33237455       1.06024842      -0.40012638
N        0.94460378       1.31428845      -0.11918257
C        1.44894386       0.16014765       0.34487322
N        0.58428717      -0.85986910       0.38517503
H       -1.86679221      -1.23864881       0.92183348
H       -1.02913900       1.82707749      -0.70689315
H        2.50333114       0.01354880       0.53183508
H        0.18096899      -1.09299400      -0.84259738
10
Frame=6 idx=000794 GeodesicLength=0.2809770210438938 rxn_smarts="[O:1]([c:2]1[c:3]([H:8])[n:4][c:5]([H:9])[n:6]1[H:10])[H:7]>>[O:1]([C@@:2]1([H:10])[C:3]([H:8])=[N:4][C:5]([H:9])=[N:6]1)[H:7]"
O       -1.80820972      -0.91032276       0.01531675
C       -0.60602210      -0.30820437      -0.15960287
C       -0.33496527       1.05519226      -0.39813221
N        0.93709099       1.31895384      -0.10665283
C        1.44919576       0.16268858       0.34953468
N        0.59237817      -0.86217377       0.37326301
H       -1.88880859      -1.17789303       0.93456147
H       -1.04093575       1.82295383      -0.68161692
H        2.50594061       0.02032842       0.52771695
H        0.19433589      -1.12152299      -0.85438803
10
Frame=7 idx=000794 GeodesicLength=0.32889625088528757 rxn_smarts="[O:1]([c:2]1[c:3]([H:8])[n:4][c:5]([H:9])[n:6]1[H:10])[H:7]>>[O:1]([C@@:2]1([H:10])[C:3]([H:8])=[N:4][C:5]([H:9])=[N:6]1)[H:7]"
O       -1.79588718      -0.93179715       0.00632496
C       -0.59809090      -0.32073461      -0.17526239
C       -0.33771094       1.04996648      -0.39595804
N        0.92905958       1.32350386      -0.09342674
C        1.44967115       0.16497802       0.35326713
N        0.60091031      -0.86440733       0.36089393
H       -1.91050184      -1.11594157       0.94211204
H       -1.05294795       1.81775528      -0.65630374
H        2.50856563       0.02751851       0.52373068
H        0.20693215      -1.15084149      -0.86537783
10
Frame=8 idx=000794 GeodesicLength=0.37704945441218857 rxn_smarts="[O:1]([c:2]1[c:3]([H:8])[n:4][c:5]([H:9])[n:6]1[H:10])[H:7]>>[O:1]([C@@:2]1([H:10])[C:3]([H:8])=[N:4][C:5]([H:9])=[N:6]1)[H:7]"
O       -1.78334289      -0.95232362       0.00039777
C       -0.59011462      -0.33263769      -0.18927213
C       -0.34043029       1.04498794      -0.39309065
N        0.92093280       1.32819488      -0.07969302
C        1.45049770       0.16751256       0.35692913
N        0.60962593      -0.86600088       0.34967213
H       -1.93309082      -1.05530013       0.94350489
H       -1.06470386       1.81185775      -0.63147438
H        2.51185929       0.03478028       0.51698286
H        0.21876676      -1.18107109      -0.87395660
10
Frame=9 idx=000794 GeodesicLength=0.42538116784501456 rxn_smarts="[O:1]([c:2]1[c:3]([H:8])[n:4][c:5]([H:9])[n:6]1[H:10])[H:7]>>[O:1]([C@@:2]1([H:10])[C:3]([H:8])=[N:4][C:5]([H:9])=[N:6]1)[H:7]"
O       -1.77078669      -0.97170249      -0.00211641
C       -0.58223832      -0.34393218      -0.20203842
C       -0.34315911       1.04027876      -0.38953378
N        0.91259706       1.33299458      -0.06500309
C        1.45169424       0.17001265       0.36000034
N        0.61861240      -0.86728936       0.33847031
H       -1.95557840      -0.99610374       0.93999629
H       -1.07603607       1.80538711      -0.60781413
H        2.51549840       0.04230369       0.50916707
H        0.22939651      -1.21194903      -0.88112817
10
Frame=10 idx=000794 GeodesicLength=0.47394420238553864 rxn_smarts="[O:1]([c:2]1[c:3]([H:8])[n:4][c:5]([H:9])[n:6]1[H:10])[H:7]>>[O:1]([C@@:2]1([H:10])[C:3]([H:8])=[N:4][C:5]([H:9])=[N:6]1)[H:7]"
O       -1.75805766      -0.99013808      -0.00166732
C       -0.57440202      -0.35467266      -0.21353450
C       -0.34582315       1.03580376      -0.38533344
N        0.90398465       1.33793460      -0.04902615
C        1.45326668       0.17257167       0.36272739
N        0.62785458      -0.86819817       0.32757605
H       -1.97850564      -0.93818479       0.93151893
H       -1.08697760       1.79844582      -0.58506519
H        2.51961674       0.05004162       0.49933189
H        0.23904343      -1.24360377      -0.88652764
10
Frame=11 idx=000794 GeodesicLength=0.5227483317175713 rxn_smarts="[O:1]([c:2]1[c:3]([H:8])[n:4][c:5]([H:9])[n:6]1[H:10])[H:7]>>[O:1]([C@@:2]1([H:10])[C:3]([H:8])=[N:4][C:5]([H:9])=[N:6]1)[H:7]"
O       -1.74521065      -1.00755863       0.00198941
C       -0.56667783      -0.36489372      -0.22402158
C       -0.34841120       1.03153492      -0.38061104
N        0.89494002       1.34295819      -0.03129909
C        1.45521720       0.17505286       0.36487751
N        0.63743919      -0.86890457       0.31632635
H       -2.00138182      -0.88150153       0.91875611
H       -1.09745493       1.79112009      -0.56360737
H        2.52405306       0.05811772       0.48829455
H        0.24748696      -1.27592534      -0.89070485
10
Frame=12 idx=000794 GeodesicLength=0.5717159459224315 rxn_smarts="[O:1]([c:2]1[c:3]([H:8])[n:4][c:5]([H:9])[n:6]1[H:10])[H:7]>>[O:1]([C@@:2]1([H:10])[C:3]([H:8])=[N:4][C:5]([H:9])=[N:6]1)[H:7]"
O       -1.73207713      -1.02406896       0.00830597
C       -0.55898226      -0.37454115      -0.23306865
C       -0.35082446       1.02757015      -0.37498290
N        0.88559751       1.34808977      -0.01173461
C        1.45761837       0.17764810       0.36681475
N        0.64727687      -0.86917794       0.30553606
H       -2.02527206      -0.82653375       0.90089349
H       -1.10733442       1.78360577      -0.54325900
H        2.52905084       0.06645190       0.47418933
H        0.25494672      -1.30904389      -0.89269444
10
Frame=13 idx=000794 GeodesicLength=0.6207992194903442 rxn_smarts="[O:1]([c:2]1[c:3]([H:8])[n:4][c:5]([H:9])[n:6]1[H:10])[H:7]>>[O:1]([C@@:2]1([H:10])[C:3]([H:8])=[N:4][C:5]([H:9])=[N:6]1)[H:7]"
O       -1.71887132      -1.03928761       0.01784569
C       -0.55147367      -0.38363969      -0.24124664
C       -0.35305946       1.02388356      -0.36887189
N        0.87581087       1.35313681       0.00979248
C        1.46037839       0.18012867       0.36808583
N        0.65746217      -0.86930988       0.29396909
H       -2.04880610      -0.77341947       0.87920443
H       -1.11657332       1.77604932      -0.52444063
H        2.53419250       0.07529325       0.45921952
H        0.26093995      -1.34283497      -0.89355787
10
Frame=14 idx=000794 GeodesicLength=0.6699739143682775 rxn_smarts="[O:1]([c:2]1[c:3]([H:8])[n:4][c:5]([H:9])[n:6]1[H:10])[H:7]>>[O:1]([C@@:2]1([H:10])[C:3]([H:8])=[N:4][C:5]([H:9])=[N:6]1)[H:7]"
O       -1.70546293      -1.05333324       0.03020601
C       -0.54408875      -0.39215969      -0.24822343
C       -0.35506328       1.02054501      -0.36189270
N        0.86581091       1.35805738       0.03312293
C        1.46362126       0.18266708       0.36895130
N        0.66795085      -0.86908969       0.28229810
H       -2.07306199      -0.72252525       0.85281539
H       -1.12509726       1.76865337      -0.50672530
H        2.53971377       0.08462696       0.44189039
H        0.26567742      -1.37744193      -0.89244268
10
Frame=15 idx=000794 GeodesicLength=0.7191900268030068 rxn_smarts="[O:1]([c:2]1[c:3]([H:8])[n:4][c:5]([H:9])[n:6]1[H:10])[H:7]>>[O:1]([C@@:2]1([H:10])[C:3]([H:8])=[N:4][C:5]([H:9])=[N:6]1)[H:7]"
O       -1.69183321      -1.06607330       0.04564587
C       -0.53687417      -0.40011711      -0.25416223
C       -0.35682140       1.01756041      -0.35409765
N        0.85565319       1.36270320       0.05808028
C        1.46732089       0.18522979       0.36927772
N        0.67878470      -0.86857981       0.27009583
H       -2.09779115      -0.67401658       0.82186652
H       -1.13287294       1.76156574      -0.49000611
H        2.54544888       0.09458687       0.42282825
H        0.26898521      -1.41285922      -0.88952849
10
Frame=16 idx=000794 GeodesicLength=0.7683805857663193 rxn_smarts="[O:1]([c:2]1[c:3]([H:8])[n:4][c:5]([H:9])[n:6]1[H:10])[H:7]>>[O:1]([C@@:2]1([H:10])[C:3]([H:8])=[N:4][C:5]([H:9])=[N:6]1)[H:7]"
O       -1.67789651      -1.07740690       0.06432662
C       -0.52985281      -0.40750167      -0.25908889
C       -0.35836150       1.01496740      -0.34535427
N        0.84560492       1.36695567       0.08400855
C        1.47148845       0.18785699       0.36900744
N        0.68997394      -0.86773494       0.25722888
H       -2.12314840      -0.62821089       0.78598365
H       -1.13991491       1.75497819      -0.47376060
H        2.55132422       0.10522613       0.40228494
H        0.27078260      -1.44912998      -0.88463631
