12
Frame=0 idx=001693 GeodesicLength=0.0 rxn_smarts="[C:1](#[C:2][C@@:3]1([H:8])[C:4]([H:9])([H:10])[C:5]([H:11])([H:12])[O:6]1)[H:7]>>[C:1](=[C:2]=[C:3]1[C:4]([H:9])([H:10])[C:5]([H:11])([H:12])[O:6]1)([H:7])[H:8]"
C        2.05915602       0.03835902      -0.39190989
C        1.84050679      -0.20147985       0.87862398
C        0.53624449       0.07231360       0.20859776
C       -0.71014061      -0.80450027       0.07789040
C       -1.44953611       0.51974684       0.30297535
O       -0.20021017       1.22564143       0.49382313
H        2.72429958       0.32643147      -1.19401623
H        0.91114990       0.16075189      -1.04065641
H       -0.87097309      -1.30545124      -0.87314844
H       -0.77858542      -1.51712668       0.89711290
H       -2.06615561       0.57530334       1.19900495
H       -1.99575577       0.91001046      -0.55829745
12
Frame=1 idx=001693 GeodesicLength=0.11852399591562149 rxn_smarts="[C:1](#[C:2][C@@:3]1([H:8])[C:4]([H:9])([H:10])[C:5]([H:11])([H:12])[O:6]1)[H:7]>>[C:1](=[C:2]=[C:3]1[C:4]([H:9])([H:10])[C:5]([H:11])([H:12])[O:6]1)([H:7])[H:8]"
C        2.08668884       0.05326305      -0.39346283
C        1.82372065      -0.18784580       0.86425221
C        0.52477087       0.08314697       0.19847666
C       -0.71654429      -0.80166529       0.07731719
C       -1.46351606       0.51637130       0.31347626
O       -0.21797118       1.23188753       0.48952539
H        2.78559626       0.28281520      -1.18443618
H        0.92980037       0.17214873      -1.06075888
H       -0.88239417      -1.29972031      -0.87441541
H       -0.77591588      -1.51885200       0.89326218
H       -2.06999553       0.56573364       1.21697189
H       -2.02423988       0.90271699      -0.54020848
12
Frame=2 idx=001693 GeodesicLength=0.23697916724810764 rxn_smarts="[C:1](#[C:2][C@@:3]1([H:8])[C:4]([H:9])([H:10])[C:5]([H:11])([H:12])[O:6]1)[H:7]>>[C:1](=[C:2]=[C:3]1[C:4]([H:9])([H:10])[C:5]([H:11])([H:12])[O:6]1)([H:7])[H:8]"
C        2.11506035       0.07111461      -0.39504049
C        1.80712101      -0.17213017       0.84796545
C        0.51271343       0.09521878       0.18742150
C       -0.72277205      -0.79849227       0.07616382
C       -1.47801607       0.51254884       0.32454687
O       -0.23697459       1.23860201       0.48527112
H        2.84702188       0.23153535      -1.17192864
H        0.94906122       0.18580905      -1.08140749
H       -0.89367646      -1.29327898      -0.87641607
H       -0.77193868      -1.52060305       0.88843384
H       -2.07361312       0.55494942       1.23581345
H       -2.05398693       0.89472640      -0.52082334
12
Frame=3 idx=001693 GeodesicLength=0.3553421095604589 rxn_smarts="[C:1](#[C:2][C@@:3]1([H:8])[C:4]([H:9])([H:10])[C:5]([H:11])([H:12])[O:6]1)[H:7]>>[C:1](=[C:2]=[C:3]1[C:4]([H:9])([H:10])[C:5]([H:11])([H:12])[O:6]1)([H:7])[H:8]"
C        2.14435898       0.09023091      -0.39726611
C        1.79081776      -0.15510914       0.82922671
C        0.50016347       0.10796994       0.17505541
C       -0.72903266      -0.79514860       0.07463783
C       -1.49268952       0.50845033       0.33604810
O       -0.25664141       1.24555261       0.48054340
H        2.90757269       0.17636136      -1.15472630
H        0.96892655       0.20072423      -1.10303492
H       -0.90542568      -1.28661243      -0.87870149
H       -0.76696383      -1.52218784       0.88310149
H       -2.07649416       0.54367620       1.25542500
H       -2.08459220       0.88609243      -0.50030911
12
Frame=4 idx=001693 GeodesicLength=0.47362699079330833 rxn_smarts="[C:1](#[C:2][C@@:3]1([H:8])[C:4]([H:9])([H:10])[C:5]([H:11])([H:12])[O:6]1)[H:7]>>[C:1](=[C:2]=[C:3]1[C:4]([H:9])([H:10])[C:5]([H:11])([H:12])[O:6]1)([H:7])[H:8]"
C        2.17462637       0.10757781      -0.40065667
C        1.77477157      -0.13811190       0.80769673
C        0.48716426       0.12044819       0.16102088
C       -0.73580959      -0.79188870       0.07307399
C       -1.50715091       0.50440533       0.34781292
O       -0.27616880       1.25238745       0.47455354
H        2.96717855       0.12378848      -1.13162212
H        0.98942911       0.21505609      -1.12605491
H       -0.91864917      -1.28036798      -0.88062272
H       -0.76177746      -1.52341298       0.87794922
H       -2.07801730       0.53306455       1.27570756
H       -2.11559663       0.87705366      -0.47885842
12
Frame=5 idx=001693 GeodesicLength=0.5918156558635588 rxn_smarts="[C:1](#[C:2][C@@:3]1([H:8])[C:4]([H:9])([H:10])[C:5]([H:11])([H:12])[O:6]1)[H:7]>>[C:1](=[C:2]=[C:3]1[C:4]([H:9])([H:10])[C:5]([H:11])([H:12])[O:6]1)([H:7])[H:8]"
C        2.20603802       0.12448029      -0.40458121
C        1.75901632      -0.11995421       0.78373361
C        0.47370419       0.13331537       0.14561119
C       -0.74266694      -0.78854455       0.07120540
C       -1.52153333       0.50017443       0.35991113
O       -0.29608503       1.25933995       0.46790319
H        3.02458387       0.06966565      -1.10373216
H        1.01079222       0.23034359      -1.15003841
H       -0.93251255      -1.27410433      -0.88265615
H       -0.75575270      -1.52442753       0.87239846
H       -2.07850294       0.52228170       1.29659020
H       -2.14708113       0.86742964      -0.45634523
12
Frame=6 idx=001693 GeodesicLength=0.7099872514029715 rxn_smarts="[C:1](#[C:2][C@@:3]1([H:8])[C:4]([H:9])([H:10])[C:5]([H:11])([H:12])[O:6]1)[H:7]>>[C:1](=[C:2]=[C:3]1[C:4]([H:9])([H:10])[C:5]([H:11])([H:12])[O:6]1)([H:7])[H:8]"
C        2.23840836       0.13739009      -0.40953283
C        1.74327579      -0.10265801       0.75688996
C        0.45965483       0.14531714       0.12834755
C       -0.75044094      -0.78544004       0.06944155
C       -1.53553991       0.49621474       0.37227867
O       -0.31552507       1.26596375       0.45963437
H        3.08195380       0.02227631      -1.07014223
H        1.03292597       0.24408867      -1.17554604
H       -0.94856514      -1.26855818      -0.88401923
H       -0.75014317      -1.52507031       0.86727021
H       -2.07727339       0.51280881       1.31815954
H       -2.17873114       0.85766705      -0.43278153
12
Frame=7 idx=001693 GeodesicLength=0.8281296421694078 rxn_smarts="[C:1](#[C:2][C@@:3]1([H:8])[C:4]([H:9])([H:10])[C:5]([H:11])([H:12])[O:6]1)[H:7]>>[C:1](=[C:2]=[C:3]1[C:4]([H:9])([H:10])[C:5]([H:11])([H:12])[O:6]1)([H:7])[H:8]"
C        2.27174117       0.14724867      -0.41510303
C        1.72751421      -0.08558922       0.72719830
C        0.44492093       0.15686258       0.10931717
C       -0.75892255      -0.78248422       0.06764355
C       -1.54930118       0.49237810       0.38499974
O       -0.33488700       1.27238951       0.45014324
H        3.13919403      -0.02095034      -1.03150342
H        1.05591233       0.25726896      -1.20240307
H       -0.96640100      -1.26351125      -0.88493289
H       -0.74458058      -1.52542183       0.86225003
H       -2.07454659       0.50414297       1.34040152
H       -2.21064377       0.84766607      -0.40801115
12
Frame=8 idx=001693 GeodesicLength=0.9462278029851613 rxn_smarts="[C:1](#[C:2][C@@:3]1([H:8])[C:4]([H:9])([H:10])[C:5]([H:11])([H:12])[O:6]1)[H:7]>>[C:1](=[C:2]=[C:3]1[C:4]([H:9])([H:10])[C:5]([H:11])([H:12])[O:6]1)([H:7])[H:8]"
C        2.30592931       0.15385286      -0.42129560
C        1.71161425      -0.06909781       0.69434881
C        0.42937260       0.16780784       0.08833592
C       -0.76826217      -0.77971652       0.06582418
C       -1.56279192       0.48871962       0.39814165
O       -0.35414334       1.27854168       0.43937893
H        3.19711270      -0.05922735      -0.98755485
H        1.07968231       0.26968294      -1.23076414
H       -0.98632838      -1.25902709      -0.88530124
H       -0.73920740      -1.52549569       0.85734987
H       -2.07017411       0.49641681       1.36338332
H       -2.24280386       0.83754270      -0.38184685
12
Frame=9 idx=001693 GeodesicLength=1.064216882843973 rxn_smarts="[C:1](#[C:2][C@@:3]1([H:8])[C:4]([H:9])([H:10])[C:5]([H:11])([H:12])[O:6]1)[H:7]>>[C:1](=[C:2]=[C:3]1[C:4]([H:9])([H:10])[C:5]([H:11])([H:12])[O:6]1)([H:7])[H:8]"
C        2.34118335       0.15928130      -0.42730903
C        1.69579824      -0.05062407       0.65869217
C        0.41306782       0.17949084       0.06570779
C       -0.77748707      -0.77682806       0.06362704
C       -1.57619322       0.48471183       0.41172993
O       -0.37425604       1.28491194       0.42802857
H        3.25252235      -0.10014198      -0.93920648
H        1.10461621       0.28432811      -1.26011854
H       -1.00673957      -1.25457371      -0.88570442
H       -0.73250769      -1.52530795       0.85182740
H       -2.06455392       0.48820797       1.38694037
H       -2.27545047       0.82654376      -0.35421479
12
Frame=10 idx=001693 GeodesicLength=1.182106998085544 rxn_smarts="[C:1](#[C:2][C@@:3]1([H:8])[C:4]([H:9])([H:10])[C:5]([H:11])([H:12])[O:6]1)[H:7]>>[C:1](=[C:2]=[C:3]1[C:4]([H:9])([H:10])[C:5]([H:11])([H:12])[O:6]1)([H:7])[H:8]"
C        2.37711387       0.16145427      -0.43377233
C        1.67980331      -0.03275624       0.61925282
C        0.39579763       0.19062317       0.04088396
C       -0.78750797      -0.77413158       0.06133849
C       -1.58920018       0.48084479       0.42582363
O       -0.39431341       1.29094597       0.41563831
H        3.30830906      -0.13653370      -0.88497093
H        1.13033883       0.29881640      -1.29118264
H       -1.02931580      -1.25069984      -0.88551943
H       -0.72579384      -1.52485521       0.84624372
H       -2.05709951       0.48080764       1.41120179
H       -2.30813199       0.81548434      -0.32493739
12
Frame=11 idx=001693 GeodesicLength=1.2998945544730656 rxn_smarts="[C:1](#[C:2][C@@:3]1([H:8])[C:4]([H:9])([H:10])[C:5]([H:11])([H:12])[O:6]1)[H:7]>>[C:1](=[C:2]=[C:3]1[C:4]([H:9])([H:10])[C:5]([H:11])([H:12])[O:6]1)([H:7])[H:8]"
C        2.41359537       0.16061849      -0.44050370
C        1.66368128      -0.01504927       0.57571492
C        0.37751370       0.20144956       0.01376789
C       -0.79810533      -0.77159192       0.05888392
C       -1.60175638       0.47701777       0.44046706
O       -0.41445885       1.29671719       0.40239577
H        3.36358563      -0.16976273      -0.82452843
H        1.15694066       0.31393489      -1.32408250
H       -1.05379870      -1.24738023      -0.88477692
H       -0.71867040      -1.52414355       0.84041923
H       -2.04775807       0.47393432       1.43612853
H       -2.34076892       0.80425546      -0.29388577
12
Frame=12 idx=001693 GeodesicLength=1.4177511323089 rxn_smarts="[C:1](#[C:2][C@@:3]1([H:8])[C:4]([H:9])([H:10])[C:5]([H:11])([H:12])[O:6]1)[H:7]>>[C:1](=[C:2]=[C:3]1[C:4]([H:9])([H:10])[C:5]([H:11])([H:12])[O:6]1)([H:7])[H:8]"
C        2.45026850       0.15553069      -0.44825258
C        1.64710775       0.00028233       0.52690015
C        0.35796536       0.21091648      -0.01638515
C       -0.81008700      -0.76943251       0.05622807
C       -1.61354042       0.47364960       0.45593494
O       -0.43392681       1.30182341       0.38775917
H        3.42095817      -0.19430923      -0.75531461
H        1.18399707       0.32752144      -1.35979574
H       -1.08181234      -1.24476172      -0.88325444
H       -0.71217244      -1.52340439       0.83430062
H       -2.03558029       0.46845922       1.46219318
H       -2.37317754       0.79372469      -0.26031360
12
Frame=13 idx=001693 GeodesicLength=1.5350275359322225 rxn_smarts="[C:1](#[C:2][C@@:3]1([H:8])[C:4]([H:9])([H:10])[C:5]([H:11])([H:12])[O:6]1)[H:7]>>[C:1](=[C:2]=[C:3]1[C:4]([H:9])([H:10])[C:5]([H:11])([H:12])[O:6]1)([H:7])[H:8]"
C        2.48777889       0.15140788      -0.45357608
C        1.63096922       0.02308322       0.47535617
C        0.33771182       0.22365517      -0.04813622
C       -0.81957342      -0.76668858       0.05303982
C       -1.62499883       0.46880021       0.47153617
O       -0.45598459       1.30806862       0.37272077
H        3.46615016      -0.23424830      -0.68319806
H        1.21345990       0.34952819      -1.39579048
H       -1.10694032      -1.24228939      -0.88167728
H       -0.70062222      -1.52164538       0.82715805
H       -2.02195226       0.46054331       1.48805886
H       -2.40599834       0.77978506      -0.22549171
12
Frame=14 idx=001693 GeodesicLength=1.6522143641089888 rxn_smarts="[C:1](#[C:2][C@@:3]1([H:8])[C:4]([H:9])([H:10])[C:5]([H:11])([H:12])[O:6]1)[H:7]>>[C:1](=[C:2]=[C:3]1[C:4]([H:9])([H:10])[C:5]([H:11])([H:12])[O:6]1)([H:7])[H:8]"
C        2.52491673       0.14290188      -0.45926251
C        1.61454249       0.04293101       0.41783551
C        0.31624807       0.23486774      -0.08279598
C       -0.83012859      -0.76440316       0.04964784
C       -1.63518927       0.46440212       0.48786597
O       -0.47689597       1.31338913       0.35711002
H        3.51074748      -0.26537901      -0.60226116
H        1.24349669       0.37110975      -1.43470977
H       -1.13526305      -1.24063012      -0.87916624
H       -0.68948570      -1.51990791       0.81955790
H       -2.00544834       0.45388909       1.51455531
H       -2.43754054       0.76682946      -0.18837689
12
Frame=15 idx=001693 GeodesicLength=1.7691788474456847 rxn_smarts="[C:1](#[C:2][C@@:3]1([H:8])[C:4]([H:9])([H:10])[C:5]([H:11])([H:12])[O:6]1)[H:7]>>[C:1](=[C:2]=[C:3]1[C:4]([H:9])([H:10])[C:5]([H:11])([H:12])[O:6]1)([H:7])[H:8]"
C        2.56106003       0.12904401      -0.46525056
C        1.59788786       0.05946195       0.35372494
C        0.29360051       0.24439456      -0.12055627
C       -0.84163458      -0.76257450       0.04588857
C       -1.64368325       0.46048866       0.50502982
O       -0.49625584       1.31768552       0.34092234
H        3.55301112      -0.28637454      -0.51113293
H        1.27420362       0.39231088      -1.47709776
H       -1.16683267      -1.23960516      -0.87575061
H       -0.67857306      -1.51834353       0.81108359
H       -1.98537269       0.44838778       1.54172652
H       -2.46741105       0.75512437      -0.14858766
12
Frame=16 idx=001693 GeodesicLength=1.8857429491219433 rxn_smarts="[C:1](#[C:2][C@@:3]1([H:8])[C:4]([H:9])([H:10])[C:5]([H:11])([H:12])[O:6]1)[H:7]>>[C:1](=[C:2]=[C:3]1[C:4]([H:9])([H:10])[C:5]([H:11])([H:12])[O:6]1)([H:7])[H:8]"
C        2.59543336       0.10793310      -0.47205981
C        1.58095675       0.06911307       0.28184932
C        0.26985027       0.25074725      -0.16155289
C       -0.85486052      -0.76144237       0.04158067
C       -1.64964495       0.45759144       0.52321976
O       -0.51230582       1.32015239       0.32471127
H        3.59307192      -0.28929924      -0.40744738
H        1.30516017       0.41058536      -1.52394236
H       -1.20314368      -1.23881370      -0.87148140
H       -0.66936407      -1.51759756       0.80122940
H       -1.96081302       0.44450214       1.56962087
H       -2.49434041       0.74652811      -0.10572746
