11
Frame=0 idx=010691 GeodesicLength=0.0 rxn_smarts="[C:1](#[C:2][c:3]1[c:4]([H:9])[c:5]([H:10])[c:6]([H:11])[o:7]1)[H:8]>>[C:1](#[C:2][C:3]([C:4]([C:5]#[C:6][H:11])([H:9])[H:10])=[O:7])[H:8]"
C        2.81822902       0.19512012      -0.57154594
C        1.65291742       0.04427559      -0.33641090
C        0.28010036      -0.07733384      -0.03427786
C       -0.64120107       0.83099003       0.53033963
C       -1.96462825       0.12158952       0.71972531
C       -1.65443264      -1.07426571       0.12506519
O       -0.34102275      -1.20119481      -0.28595409
H        3.85431849       0.32243320      -0.78310379
H       -0.35525846       1.76940359       0.98287098
H       -1.42577456       1.04597992      -0.31611054
H       -2.22324759      -1.97699760      -0.03059794
11
Frame=1 idx=010691 GeodesicLength=0.10884004123238195 rxn_smarts="[C:1](#[C:2][c:3]1[c:4]([H:9])[c:5]([H:10])[c:6]([H:11])[o:7]1)[H:8]>>[C:1](#[C:2][C:3]([C:4]([C:5]#[C:6][H:11])([H:9])[H:10])=[O:7])[H:8]"
C        2.82066200       0.20611759      -0.58436994
C        1.65694077       0.04729835      -0.34676545
C        0.28678484      -0.08748235      -0.03258840
C       -0.63536806       0.82781588       0.52318034
C       -1.95722187       0.12453119       0.70874990
C       -1.67202992      -1.07962603       0.13281543
O       -0.32986880      -1.21320651      -0.27803214
H        3.86205190       0.33611011      -0.76716812
H       -0.34270641       1.75647960       0.99123792
H       -1.43770346       1.05693287      -0.32375656
H       -2.25154099      -1.97497070      -0.02330297
11
Frame=2 idx=010691 GeodesicLength=0.21779680145288438 rxn_smarts="[C:1](#[C:2][c:3]1[c:4]([H:9])[c:5]([H:10])[c:6]([H:11])[o:7]1)[H:8]>>[C:1](#[C:2][C:3]([C:4]([C:5]#[C:6][H:11])([H:9])[H:10])=[O:7])[H:8]"
C        2.82440108       0.21141031      -0.59450167
C        1.66082499       0.04798460      -0.35947217
C        0.29373920      -0.09904823      -0.03177350
C       -0.62827433       0.82407524       0.51517829
C       -1.94901682       0.12799324       0.69769688
C       -1.69073738      -1.08445436       0.14129003
O       -0.31935422      -1.22617845      -0.27073954
H        3.86777955       0.35901505      -0.75033022
H       -0.32817698       1.74242210       0.99869696
H       -1.44923990       1.06844032      -0.33127670
H       -2.28194519      -1.97165982      -0.01476837
11
Frame=3 idx=010691 GeodesicLength=0.32668645533853424 rxn_smarts="[C:1](#[C:2][c:3]1[c:4]([H:9])[c:5]([H:10])[c:6]([H:11])[o:7]1)[H:8]>>[C:1](#[C:2][C:3]([C:4]([C:5]#[C:6][H:11])([H:9])[H:10])=[O:7])[H:8]"
C        2.82881083       0.21811530      -0.60092671
C        1.66514584       0.04966226      -0.36999972
C        0.30120118      -0.11015379      -0.02977049
C       -0.62163344       0.82042350       0.50718618
C       -1.94114103       0.13098998       0.68523197
C       -1.70939110      -1.08922520       0.14941437
O       -0.30749145      -1.23892238      -0.26297267
H        3.87273504       0.37882508      -0.73902666
H       -0.31523748       1.72814082       1.00666991
H       -1.46110063       1.08041815      -0.33894002
H       -2.31189777      -1.96827371      -0.00686616
11
Frame=4 idx=010691 GeodesicLength=0.4356362536145799 rxn_smarts="[C:1](#[C:2][c:3]1[c:4]([H:9])[c:5]([H:10])[c:6]([H:11])[o:7]1)[H:8]>>[C:1](#[C:2][C:3]([C:4]([C:5]#[C:6][H:11])([H:9])[H:10])=[O:7])[H:8]"
C        2.83333624       0.22552454      -0.60704443
C        1.66962549       0.05170960      -0.38034951
C        0.30903267      -0.12117690      -0.02759717
C       -0.61493023       0.81664425       0.49895970
C       -1.93312169       0.13362113       0.67206158
C       -1.72831025      -1.09385865       0.15762998
O       -0.29479397      -1.25179819      -0.25512668
H        3.87748872       0.39767517      -0.72823200
H       -0.30284147       1.71335620       1.01469823
H       -1.47340769       1.09290790      -0.34632644
H       -2.34207782      -1.96460506       0.00132675
11
Frame=5 idx=010691 GeodesicLength=0.5444994427303171 rxn_smarts="[C:1](#[C:2][c:3]1[c:4]([H:9])[c:5]([H:10])[c:6]([H:11])[o:7]1)[H:8]>>[C:1](#[C:2][C:3]([C:4]([C:5]#[C:6][H:11])([H:9])[H:10])=[O:7])[H:8]"
C        2.83811726       0.23274303      -0.61241769
C        1.67451126       0.05336576      -0.38951190
C        0.31728657      -0.13242236      -0.02490259
C       -0.60807466       0.81264793       0.49051969
C       -1.92504235       0.13605605       0.65783566
C       -1.74766890      -1.09824914       0.16586761
O       -0.28135135      -1.26497422      -0.24684637
H        3.88176301       0.41725293      -0.71917639
H       -0.29090636       1.69798023       1.02277060
H       -1.48580570       1.10596940      -0.35362829
H       -2.37282879      -1.96036961       0.00948966
11
Frame=6 idx=010691 GeodesicLength=0.6531726981822518 rxn_smarts="[C:1](#[C:2][c:3]1[c:4]([H:9])[c:5]([H:10])[c:6]([H:11])[o:7]1)[H:8]>>[C:1](#[C:2][C:3]([C:4]([C:5]#[C:6][H:11])([H:9])[H:10])=[O:7])[H:8]"
C        2.84332953       0.23907921      -0.61679574
C        1.67970015       0.05452308      -0.39824996
C        0.32589333      -0.14391050      -0.02220435
C       -0.60093166       0.80837678       0.48173661
C       -1.91671202       0.13822862       0.64276523
C       -1.76749360      -1.10237417       0.17427524
O       -0.26731343      -1.27845874      -0.23839482
H        3.88543994       0.43838491      -0.71112893
H       -0.27917051       1.68194130       1.03066430
H       -1.49846971       1.11968713      -0.36060569
H       -2.40427204      -1.95547762       0.01793811
11
Frame=7 idx=010691 GeodesicLength=0.761807573923537 rxn_smarts="[C:1](#[C:2][c:3]1[c:4]([H:9])[c:5]([H:10])[c:6]([H:11])[o:7]1)[H:8]>>[C:1](#[C:2][C:3]([C:4]([C:5]#[C:6][H:11])([H:9])[H:10])=[O:7])[H:8]"
C        2.84862148       0.24614321      -0.62117861
C        1.68514239       0.05589596      -0.40659143
C        0.33484708      -0.15530110      -0.01951498
C       -0.59372678       0.80390886       0.47269446
C       -1.90820469       0.13990213       0.62682105
C       -1.78764648      -1.10633815       0.18283703
O       -0.25232601      -1.29211932      -0.22967036
H        3.88914898       0.45866414      -0.70346889
H       -0.26807215       1.66536686       1.03847525
H       -1.51171675       1.13405588      -0.36705251
H       -2.43606707      -1.95017847       0.02664898
11
Frame=8 idx=010691 GeodesicLength=0.8703506731674384 rxn_smarts="[C:1](#[C:2][c:3]1[c:4]([H:9])[c:5]([H:10])[c:6]([H:11])[o:7]1)[H:8]>>[C:1](#[C:2][C:3]([C:4]([C:5]#[C:6][H:11])([H:9])[H:10])=[O:7])[H:8]"
C        2.85416625       0.25309111      -0.62524234
C        1.69085562       0.05717066      -0.41479130
C        0.34414367      -0.16675478      -0.01703629
C       -0.58632730       0.79915818       0.46329687
C       -1.89943350       0.14110411       0.60995918
C       -1.80823443      -1.11007539       0.19162244
O       -0.23649434      -1.30606400      -0.22071961
H        3.89264583       0.47933923      -0.69607503
H       -0.25738089       1.64815437       1.04606254
H       -1.52549545       1.14916342      -0.37285198
H       -2.46844546      -1.94428692       0.03577550
11
Frame=9 idx=010691 GeodesicLength=0.9791683193737696 rxn_smarts="[C:1](#[C:2][c:3]1[c:4]([H:9])[c:5]([H:10])[c:6]([H:11])[o:7]1)[H:8]>>[C:1](#[C:2][C:3]([C:4]([C:5]#[C:6][H:11])([H:9])[H:10])=[O:7])[H:8]"
C        2.85973808       0.26127704      -0.62955662
C        1.69693379       0.05887811      -0.42231523
C        0.35383952      -0.17804420      -0.01446539
C       -0.57892824       0.79419030       0.45357200
C       -1.89055799       0.14178173       0.59176319
C       -1.82939044      -1.11363461       0.20032774
O       -0.21923608      -1.32043899      -0.21038021
H        3.89643501       0.49865376      -0.68959509
H       -0.24754134       1.63026748       1.05376006
H       -1.53990377       1.16501135      -0.37786027
H       -2.50138854      -1.93794197       0.04474982
11
Frame=10 idx=010691 GeodesicLength=1.0879041069724005 rxn_smarts="[C:1](#[C:2][c:3]1[c:4]([H:9])[c:5]([H:10])[c:6]([H:11])[o:7]1)[H:8]>>[C:1](#[C:2][C:3]([C:4]([C:5]#[C:6][H:11])([H:9])[H:10])=[O:7])[H:8]"
C        2.86563990       0.26917763      -0.63351751
C        1.70336698       0.06028909      -0.42959443
C        0.36389654      -0.18948663      -0.01216814
C       -0.57129881       0.78885135       0.44344430
C       -1.88142087       0.14194672       0.57224924
C       -1.85112382      -1.11688746       0.20926883
O       -0.20105512      -1.33516165      -0.19966320
H        3.90000482       0.51882043      -0.68349619
H       -0.23814019       1.61160390       1.06121346
H       -1.55479952       1.18174354      -0.38200155
H       -2.53506991      -1.93089693       0.05426520
11
Frame=11 idx=010691 GeodesicLength=1.1965821256845246 rxn_smarts="[C:1](#[C:2][c:3]1[c:4]([H:9])[c:5]([H:10])[c:6]([H:11])[o:7]1)[H:8]>>[C:1](#[C:2][C:3]([C:4]([C:5]#[C:6][H:11])([H:9])[H:10])=[O:7])[H:8]"
C        2.87168427       0.27782099      -0.63759007
C        1.71005913       0.06207376      -0.43697542
C        0.37428326      -0.20074955      -0.01043124
C       -0.56360159       0.78321689       0.43288421
C       -1.87203181       0.14140314       0.55137255
C       -1.87330749      -1.11993860       0.21855380
O       -0.18173301      -1.35004477      -0.18874082
H        3.90391797       0.53802679      -0.67707530
H       -0.22946364       1.59223721       1.06842221
H       -1.57058780       1.19937173      -0.38498740
H       -2.56921929      -1.92341761       0.06456747
11
Frame=12 idx=010691 GeodesicLength=1.3052228201574234 rxn_smarts="[C:1](#[C:2][c:3]1[c:4]([H:9])[c:5]([H:10])[c:6]([H:11])[o:7]1)[H:8]>>[C:1](#[C:2][C:3]([C:4]([C:5]#[C:6][H:11])([H:9])[H:10])=[O:7])[H:8]"
C        2.87807763       0.28653911      -0.64139707
C        1.71714710       0.06378028      -0.44425494
C        0.38502944      -0.21209879      -0.00926895
C       -0.55571151       0.77715245       0.42182035
C       -1.86238104       0.14023381       0.52866127
C       -1.89617006      -1.12261355       0.22800594
O       -0.16136073      -1.36524223      -0.17769148
H        3.90786245       0.55763030      -0.67065923
H       -0.22137364       1.57189389       1.07542791
H       -1.58699280       1.21806627      -0.38676038
H       -2.60412684      -1.91534154       0.07611659
11
Frame=13 idx=010691 GeodesicLength=1.4138856352465252 rxn_smarts="[C:1](#[C:2][c:3]1[c:4]([H:9])[c:5]([H:10])[c:6]([H:11])[o:7]1)[H:8]>>[C:1](#[C:2][C:3]([C:4]([C:5]#[C:6][H:11])([H:9])[H:10])=[O:7])[H:8]"
C        2.88465420       0.29614722      -0.64532050
C        1.72457811       0.06589847      -0.45155479
C        0.39615479      -0.22331603      -0.00872669
C       -0.54777388       0.77070935       0.41023452
C       -1.85247034       0.13824912       0.50398937
C       -1.91957963      -1.12502098       0.23811928
O       -0.13969193      -1.38065675      -0.16648352
H        3.91230236       0.57624808      -0.66393961
H       -0.21416404       1.55070169       1.08216864
H       -1.60434500       1.23771206      -0.38708782
H       -2.63966462      -1.90667221       0.08860112
11
Frame=14 idx=010691 GeodesicLength=1.5225390303705806 rxn_smarts="[C:1](#[C:2][c:3]1[c:4]([H:9])[c:5]([H:10])[c:6]([H:11])[o:7]1)[H:8]>>[C:1](#[C:2][C:3]([C:4]([C:5]#[C:6][H:11])([H:9])[H:10])=[O:7])[H:8]"
C        2.89168329       0.30591903      -0.64887156
C        1.73251422       0.06800307      -0.45875450
C        0.40767601      -0.23466914      -0.00900137
C       -0.53964841       0.76373978       0.39795772
C       -1.84225980       0.13550272       0.47665194
C       -1.94378122      -1.12689933       0.24869642
O       -0.11689482      -1.39637661      -0.15558088
H        3.91691292       0.59530506      -0.65701542
H       -0.20772905       1.52822370       1.08871584
H       -1.62238534       1.25853971      -0.38581913
H       -2.67608780      -1.89728799       0.10302093
11
Frame=15 idx=010691 GeodesicLength=1.6312285066754157 rxn_smarts="[C:1](#[C:2][c:3]1[c:4]([H:9])[c:5]([H:10])[c:6]([H:11])[o:7]1)[H:8]>>[C:1](#[C:2][C:3]([C:4]([C:5]#[C:6][H:11])([H:9])[H:10])=[O:7])[H:8]"
C        2.89917681       0.31623151      -0.65212323
C        1.74100307       0.07031213      -0.46591763
C        0.41962837      -0.24610321      -0.01028777
C       -0.53138429       0.75620391       0.38484291
C       -1.83171840       0.13185600       0.44603161
C       -1.96880901      -1.12814739       0.25995504
O       -0.09288549      -1.41235293      -0.14544360
H        3.92195250       0.61432809      -0.64951275
H       -0.20229434       1.50425371       1.09510029
H       -1.64125142       1.28057791      -0.38267018
H       -2.71341779      -1.88715973       0.12002530
11
Frame=16 idx=010691 GeodesicLength=1.7399072156849797 rxn_smarts="[C:1](#[C:2][c:3]1[c:4]([H:9])[c:5]([H:10])[c:6]([H:11])[o:7]1)[H:8]>>[C:1](#[C:2][C:3]([C:4]([C:5]#[C:6][H:11])([H:9])[H:10])=[O:7])[H:8]"
C        2.90721419       0.32722425      -0.65493664
C        1.75013477       0.07293248      -0.47297440
C        0.43206124      -0.25764028      -0.01271821
C       -0.52302144       0.74804540       0.37068149
C       -1.82075847       0.12710460       0.41148043
C       -1.99463828      -1.12861136       0.27254442
O       -0.06763331      -1.42851189      -0.13658702
H        3.92761371       0.63313436      -0.64130173
H       -0.19811468       1.47865040       1.10123396
H       -1.66118253       1.30368223      -0.37729238
H       -2.75167521      -1.87601019       0.13987007
