10
Frame=0 idx=004608 GeodesicLength=0.0 rxn_smarts="[N:1]([c:2]1[c:3]([H:9])[n:4][n:5][n:6]1[H:10])([H:7])[H:8]>>[N:1]([C@@:2]12[C:3]([H:9])=[N:4][N:5]1[N:6]2[H:10])([H:7])[H:8]"
N       -1.50736795       0.09823245       0.21317164
C       -0.26062202      -0.06752295      -0.18519331
C        0.81612441       0.97834759      -0.09845675
N        1.68113959       0.30449481       0.55332136
N        1.11032719      -0.97997131       0.73434787
N        0.24492885      -1.27933609      -0.49978266
H       -2.08426746      -0.72109624       0.31485189
H       -1.75941608       0.92851640       0.72128669
H        0.88099926       1.99510534      -0.45504125
H        0.87815422      -1.25677000      -1.29850548
10
Frame=1 idx=004608 GeodesicLength=0.04248740071989433 rxn_smarts="[N:1]([c:2]1[c:3]([H:9])[n:4][n:5][n:6]1[H:10])([H:7])[H:8]>>[N:1]([C@@:2]12[C:3]([H:9])=[N:4][N:5]1[N:6]2[H:10])([H:7])[H:8]"
N       -1.50959132       0.09967020       0.21678179
C       -0.25555810      -0.06582109      -0.17069344
C        0.81770691       0.97781024      -0.10209584
N        1.69967536       0.30522266       0.53302024
N        1.12325202      -0.97216743       0.73269125
N        0.25178582      -1.27915506      -0.48219998
H       -2.09698763      -0.71583805       0.27899795
H       -1.76316911       0.92660737       0.72929035
H        0.86947720       2.00204949      -0.43919528
H        0.86340884      -1.27837834      -1.29659703
10
Frame=2 idx=004608 GeodesicLength=0.08476772360932566 rxn_smarts="[N:1]([c:2]1[c:3]([H:9])[n:4][n:5][n:6]1[H:10])([H:7])[H:8]>>[N:1]([C@@:2]12[C:3]([H:9])=[N:4][N:5]1[N:6]2[H:10])([H:7])[H:8]"
N       -1.51183143       0.10046810       0.22067677
C       -0.25048300      -0.06407301      -0.15569483
C        0.81905556       0.97735400      -0.10524024
N        1.71783834       0.30577804       0.51219239
N        1.13647174      -0.96455426       0.73038976
N        0.25870921      -1.27862834      -0.46507629
H       -2.10799791      -0.71034999       0.24450302
H       -1.76798501       0.92523185       0.73493948
H        0.85837965       2.00861397      -0.42236711
H        0.84784284      -1.29984037      -1.29432295
10
Frame=3 idx=004608 GeodesicLength=0.1269952552381543 rxn_smarts="[N:1]([c:2]1[c:3]([H:9])[n:4][n:5][n:6]1[H:10])([H:7])[H:8]>>[N:1]([C@@:2]12[C:3]([H:9])=[N:4][N:5]1[N:6]2[H:10])([H:7])[H:8]"
N       -1.51412629       0.10082180       0.22479479
C       -0.24538844      -0.06228254      -0.14026591
C        0.82019651       0.97696866      -0.10831755
N        1.73569013       0.30632281       0.49061835
N        1.15007879      -0.95691548       0.72762419
N        0.26575036      -1.27790034      -0.44816017
H       -2.11773796      -0.70440041       0.21010369
H       -1.77346434       0.92407791       0.73955639
H        0.84744928       2.01493284      -0.40456975
H        0.83155196      -1.32162525      -1.29138403
10
Frame=4 idx=004608 GeodesicLength=0.16909852261307318 rxn_smarts="[N:1]([c:2]1[c:3]([H:9])[n:4][n:5][n:6]1[H:10])([H:7])[H:8]>>[N:1]([C@@:2]12[C:3]([H:9])=[N:4][N:5]1[N:6]2[H:10])([H:7])[H:8]"
N       -1.51640808       0.10063393       0.22921775
C       -0.24025240      -0.06046807      -0.12426483
C        0.82106963       0.97665397      -0.11116185
N        1.75315436       0.30684827       0.46833418
N        1.16408718      -0.94929119       0.72432996
N        0.27290285      -1.27690607      -0.43149445
H       -2.12609391      -0.69805162       0.17594467
H       -1.77965358       0.92322429       0.74281832
H        0.83677960       2.02088610      -0.38590306
H        0.81441434      -1.34352960      -1.28782069
10
Frame=5 idx=004608 GeodesicLength=0.21107591963913158 rxn_smarts="[N:1]([c:2]1[c:3]([H:9])[n:4][n:5][n:6]1[H:10])([H:7])[H:8]>>[N:1]([C@@:2]12[C:3]([H:9])=[N:4][N:5]1[N:6]2[H:10])([H:7])[H:8]"
N       -1.51872602       0.09995668       0.23391421
C       -0.23508813      -0.05862659      -0.10771258
C        0.82171534       0.97642822      -0.11394593
N        1.77025945       0.30740957       0.44516677
N        1.17848950      -0.94162909       0.72047202
N        0.28012180      -1.27569856      -0.41503473
H       -2.13312214      -0.69133086       0.14198189
H       -1.78640804       0.92260686       0.74469052
H        0.82632791       2.02661091      -0.36604489
H        0.79643034      -1.36572713      -1.28348728
10
Frame=6 idx=004608 GeodesicLength=0.2530529236596106 rxn_smarts="[N:1]([c:2]1[c:3]([H:9])[n:4][n:5][n:6]1[H:10])([H:7])[H:8]>>[N:1]([C@@:2]12[C:3]([H:9])=[N:4][N:5]1[N:6]2[H:10])([H:7])[H:8]"
N       -1.52108156       0.09874732       0.23914125
C       -0.22989526      -0.05675332      -0.09046879
C        0.82202750       0.97630657      -0.11655792
N        1.78693859       0.30808067       0.42124549
N        1.19340246      -0.93389946       0.71608325
N        0.28751009      -1.27426291      -0.39874891
H       -2.13902660      -0.68392848       0.10734125
H       -1.79367079       0.92201369       0.74594374
H        0.81612057       2.03189129      -0.34566228
H        0.77767500      -1.38819538      -1.27831709
10
Frame=7 idx=004608 GeodesicLength=0.29483139626482036 rxn_smarts="[N:1]([c:2]1[c:3]([H:9])[n:4][n:5][n:6]1[H:10])([H:7])[H:8]>>[N:1]([C@@:2]12[C:3]([H:9])=[N:4][N:5]1[N:6]2[H:10])([H:7])[H:8]"
N       -1.52346035       0.09693161       0.24436539
C       -0.22467070      -0.05484586      -0.07271280
C        0.82204698       0.97627844      -0.11865560
N        1.80287803       0.30869402       0.39694629
N        1.20836302      -0.92639310       0.71092785
N        0.29497570      -1.27241981      -0.38312871
H       -2.14325401      -0.67656729       0.07434620
H       -1.80165442       0.92195266       0.74500131
H        0.80653889       2.03670784      -0.32448538
H        0.75823686      -1.41033852      -1.27260456
10
Frame=8 idx=004608 GeodesicLength=0.33657266302125316 rxn_smarts="[N:1]([c:2]1[c:3]([H:9])[n:4][n:5][n:6]1[H:10])([H:7])[H:8]>>[N:1]([C@@:2]12[C:3]([H:9])=[N:4][N:5]1[N:6]2[H:10])([H:7])[H:8]"
N       -1.52586435       0.09464375       0.24993450
C       -0.21940258      -0.05291835      -0.05429350
C        0.82169183       0.97635982      -0.12077142
N        1.81827713       0.30950611       0.37175784
N        1.22375190      -0.91872680       0.70526210
N        0.30258014      -1.27039350      -0.36761001
H       -2.14633490      -0.66828617       0.04037351
H       -1.80983815       0.92157829       0.74381052
H        0.79712423       2.04116325      -0.30266412
H        0.73801476      -1.43292641      -1.26579943
10
Frame=9 idx=004608 GeodesicLength=0.37810779418888185 rxn_smarts="[N:1]([c:2]1[c:3]([H:9])[n:4][n:5][n:6]1[H:10])([H:7])[H:8]>>[N:1]([C@@:2]12[C:3]([H:9])=[N:4][N:5]1[N:6]2[H:10])([H:7])[H:8]"
N       -1.52828378       0.09167242       0.25586859
C       -0.21407040      -0.05104945      -0.03509456
C        0.82093809       0.97659121      -0.12259639
N        1.83307586       0.31047753       0.34584409
N        1.23956595      -0.91113933       0.69890860
N        0.31032041      -1.26818397      -0.35243287
H       -2.14810905      -0.65934878       0.00629798
H       -1.81846080       0.92134007       0.74148167
H        0.78803946       2.04529363      -0.28019531
H        0.71698426      -1.45565333      -1.25808180
10
Frame=10 idx=004608 GeodesicLength=0.419723005965416 rxn_smarts="[N:1]([c:2]1[c:3]([H:9])[n:4][n:5][n:6]1[H:10])([H:7])[H:8]>>[N:1]([C@@:2]12[C:3]([H:9])=[N:4][N:5]1[N:6]2[H:10])([H:7])[H:8]"
N       -1.53092256       0.08909222       0.26024596
C       -0.20884356      -0.04878530      -0.01629680
C        0.81995239       0.97689578      -0.12436653
N        1.84659529       0.31144773       0.32011733
N        1.25441552      -0.90338076       0.69220172
N        0.31801127      -1.26531645      -0.33812551
H       -2.14824892      -0.65056494      -0.02615742
H       -1.82687181       0.92015873       0.73949984
H        0.77992823       2.04878020      -0.25769022
H        0.69598414      -1.47832721      -1.24942837
10
Frame=11 idx=004608 GeodesicLength=0.4610013939718346 rxn_smarts="[N:1]([c:2]1[c:3]([H:9])[n:4][n:5][n:6]1[H:10])([H:7])[H:8]>>[N:1]([C@@:2]12[C:3]([H:9])=[N:4][N:5]1[N:6]2[H:10])([H:7])[H:8]"
N       -1.53381170       0.08679602       0.26311988
C       -0.20372315      -0.04622396       0.00218973
C        0.81876967       0.97745284      -0.12590126
N        1.85913556       0.31245368       0.29463020
N        1.26863729      -0.89571949       0.68510047
N        0.32565088      -1.26203959      -0.32480638
H       -2.14704722      -0.64231745      -0.05670184
H       -1.83525952       0.91862726       0.73735107
H        0.77276331       2.05203613      -0.23496154
H        0.67488489      -1.50106543      -1.24002034
10
Frame=12 idx=004608 GeodesicLength=0.5021902518956374 rxn_smarts="[N:1]([c:2]1[c:3]([H:9])[n:4][n:5][n:6]1[H:10])([H:7])[H:8]>>[N:1]([C@@:2]12[C:3]([H:9])=[N:4][N:5]1[N:6]2[H:10])([H:7])[H:8]"
N       -1.53679713       0.08466454       0.26495012
C       -0.19863977      -0.04343467       0.02060634
C        0.81735129       0.97819678      -0.12729446
N        1.87078069       0.31355414       0.26907634
N        1.28244276      -0.88803085       0.67757102
N        0.33329441      -1.25836978      -0.31224118
H       -2.14473944      -0.63418418      -0.08634665
H       -1.84364662       0.91661182       0.73534458
H        0.76635064       2.05496530      -0.21202807
H        0.65360317      -1.52397308      -1.22963804
10
Frame=13 idx=004608 GeodesicLength=0.5433239648279938 rxn_smarts="[N:1]([c:2]1[c:3]([H:9])[n:4][n:5][n:6]1[H:10])([H:7])[H:8]>>[N:1]([C@@:2]12[C:3]([H:9])=[N:4][N:5]1[N:6]2[H:10])([H:7])[H:8]"
N       -1.53974838       0.08244875       0.26624364
C       -0.19354579      -0.04051799       0.03920752
C        0.81559233       0.97910762      -0.12867688
N        1.88160458       0.31486849       0.24308086
N        1.29612739      -0.88017956       0.66958925
N        0.34097495      -1.25439445      -0.30013474
H       -2.14140444      -0.62545390      -0.11641466
H       -1.85193772       0.91386544       0.73391770
H        0.76041130       2.05755576      -0.18887778
H        0.63192579      -1.54730017      -1.21793491
10
Frame=14 idx=004608 GeodesicLength=0.5844306268129725 rxn_smarts="[N:1]([c:2]1[c:3]([H:9])[n:4][n:5][n:6]1[H:10])([H:7])[H:8]>>[N:1]([C@@:2]12[C:3]([H:9])=[N:4][N:5]1[N:6]2[H:10])([H:7])[H:8]"
N       -1.54267653       0.08036331       0.26662305
C       -0.18847908      -0.03740545       0.05772372
C        0.81354514       0.98019618      -0.12992461
N        1.89150537       0.31630646       0.21689557
N        1.30939343      -0.87223607       0.66114045
N        0.34863857      -1.25003127      -0.28877853
H       -2.13701512      -0.61666618      -0.14592532
H       -1.86015872       0.91056648       0.73277614
H        0.75515169       2.05980345      -0.16547169
H        0.61009525      -1.57089692      -1.20505878
10
Frame=15 idx=004608 GeodesicLength=0.6254804785347081 rxn_smarts="[N:1]([c:2]1[c:3]([H:9])[n:4][n:5][n:6]1[H:10])([H:7])[H:8]>>[N:1]([C@@:2]12[C:3]([H:9])=[N:4][N:5]1[N:6]2[H:10])([H:7])[H:8]"
N       -1.54556163       0.07834891       0.26635533
C       -0.18345860      -0.03408788       0.07602679
C        0.81121857       0.98149818      -0.13103847
N        1.90051780       0.31791016       0.19071277
N        1.32225652      -0.86423433       0.65227105
N        0.35632554      -1.24530847      -0.27827276
H       -2.13173463      -0.60762041      -0.17523631
H       -1.86828518       0.90665331       0.73224012
H        0.75050678       2.06177204      -0.14207042
H        0.58821483      -1.59493151      -1.19098812
10
Frame=16 idx=004608 GeodesicLength=0.6664890734450685 rxn_smarts="[N:1]([c:2]1[c:3]([H:9])[n:4][n:5][n:6]1[H:10])([H:7])[H:8]>>[N:1]([C@@:2]12[C:3]([H:9])=[N:4][N:5]1[N:6]2[H:10])([H:7])[H:8]"
N       -1.54829629       0.07643496       0.26526783
C       -0.17849965      -0.03058616       0.09394856
C        0.80871689       0.98296163      -0.13172196
N        1.90848703       0.31961246       0.16502498
N        1.33429324      -0.85632896       0.64293996
N        0.36393592      -1.24004118      -0.26890647
H       -2.12554863      -0.59884237      -0.20335818
H       -1.87622940       0.90219077       0.73182694
H        0.74673646       2.06335114      -0.11909714
H        0.56640443      -1.61875228      -1.17592452
