15
Frame=0 idx=011494 GeodesicLength=0.0 rxn_smarts="[O:1]([C@@:2]1([H:9])[C:3]([H:10])([H:11])[C@:4]2([C:5]([H:12])([H:13])[O:6]2)[C:7]1([H:14])[H:15])[H:8]>>[O:1]([C@:2]1([H:9])[C:3]([H:10])([H:11])[C@@:4]([C:5](=[O:6])[H:12])([H:13])[C:7]1([H:14])[H:15])[H:8]"
O       -2.33608027       0.40709339       1.19442095
C       -1.22824225      -0.27745028       0.70632157
C       -0.77482000      -0.07409331      -0.76497145
C        0.61004807      -0.09248177      -0.26370780
C        1.84468335      -0.26468676      -1.00801699
O        1.71281974       0.25206809      -2.20385568
C        0.20278140       0.16598155       1.14125816
H       -2.29014757       1.32923519       0.93203608
H       -1.39449735      -1.33035156       0.92941453
H       -1.03494385       0.92938150      -1.12266193
H       -1.01314555      -0.77750051      -1.56528128
H        2.63680940       0.20076337      -0.36239006
H        2.10587420      -1.36437802      -0.90059370
H        0.21168435       1.24222650       1.35151682
H        0.74717633      -0.34580739       1.93651078
15
Frame=1 idx=011494 GeodesicLength=0.095651588849399 rxn_smarts="[O:1]([C@@:2]1([H:9])[C:3]([H:10])([H:11])[C@:4]2([C:5]([H:12])([H:13])[O:6]2)[C:7]1([H:14])[H:15])[H:8]>>[O:1]([C@:2]1([H:9])[C:3]([H:10])([H:11])[C@@:4]([C:5](=[O:6])[H:12])([H:13])[C:7]1([H:14])[H:15])[H:8]"
O       -2.33008539       0.40617842       1.19120682
C       -1.22091198      -0.27890531       0.70548995
C       -0.77474005      -0.08844036      -0.76900777
C        0.61520968      -0.10080877      -0.27325232
C        1.86000718      -0.25041941      -1.00311259
O        1.70375486       0.33074203      -2.16387204
C        0.20873561       0.17346378       1.13216229
H       -2.28553431       1.32679662       0.92328409
H       -1.38325120      -1.33020612       0.93930750
H       -1.03930409       0.91088717      -1.13427823
H       -1.01694826      -0.80119174      -1.55949998
H        2.66216777       0.16304084      -0.33898645
H        2.03127377      -1.38329790      -0.91230252
H        0.21675221       1.25185311       1.32997539
H        0.75287421      -0.32969237       1.93288586
15
Frame=2 idx=011494 GeodesicLength=0.19137108230986144 rxn_smarts="[O:1]([C@@:2]1([H:9])[C:3]([H:10])([H:11])[C@:4]2([C:5]([H:12])([H:13])[O:6]2)[C:7]1([H:14])[H:15])[H:8]>>[O:1]([C@:2]1([H:9])[C:3]([H:10])([H:11])[C@@:4]([C:5](=[O:6])[H:12])([H:13])[C:7]1([H:14])[H:15])[H:8]"
O       -2.32411171       0.40588288       1.18794350
C       -1.21397995      -0.28016041       0.70438223
C       -0.77479997      -0.10216398      -0.77303239
C        0.62015164      -0.10940991      -0.28273847
C        1.87449429      -0.23866935      -0.99835344
O        1.69428225       0.40376566      -2.12098832
C        0.21448723       0.17988111       1.12313646
H       -2.28037600       1.32503082       0.91490797
H       -1.37303530      -1.32977104       0.94831725
H       -1.04297409       0.89329431      -1.14544997
H       -1.02133472      -0.82369268      -1.55383907
H        2.68487887       0.12805501      -0.32061007
H        1.96230110      -1.39676873      -0.92201482
H        0.22211082       1.26012392       1.30930371
H        0.75790553      -0.31539763       1.92903544
15
Frame=3 idx=011494 GeodesicLength=0.2871731012296148 rxn_smarts="[O:1]([C@@:2]1([H:9])[C:3]([H:10])([H:11])[C@:4]2([C:5]([H:12])([H:13])[O:6]2)[C:7]1([H:14])[H:15])[H:8]>>[O:1]([C@:2]1([H:9])[C:3]([H:10])([H:11])[C@@:4]([C:5](=[O:6])[H:12])([H:13])[C:7]1([H:14])[H:15])[H:8]"
O       -2.31822318       0.40605879       1.18465519
C       -1.20742333      -0.28124283       0.70302006
C       -0.77503797      -0.11523387      -0.77706148
C        0.62486382      -0.11803044      -0.29219256
C        1.88808834      -0.22880552      -0.99399680
O        1.68449349       0.47152302      -2.07582925
C        0.22003866       0.18539304       1.11420156
H       -2.27484581       1.32380950       0.90691496
H       -1.36370149      -1.32912109       0.95649052
H       -1.04613233       0.87661450      -1.15623508
H       -1.02629868      -0.84505283      -1.54827440
H        2.70554171       0.09571217      -0.30659614
H        1.89859181      -1.40612796      -0.92959370
H        0.22764830       1.26723169       1.28953585
H        0.76239666      -0.30272818       1.92496129
15
Frame=4 idx=011494 GeodesicLength=0.38303974976681 rxn_smarts="[O:1]([C@@:2]1([H:9])[C:3]([H:10])([H:11])[C@:4]2([C:5]([H:12])([H:13])[O:6]2)[C:7]1([H:14])[H:15])[H:8]>>[O:1]([C@:2]1([H:9])[C:3]([H:10])([H:11])[C@@:4]([C:5](=[O:6])[H:12])([H:13])[C:7]1([H:14])[H:15])[H:8]"
O       -2.31247210       0.40658757       1.18134725
C       -1.20122194      -0.28217444       0.70142687
C       -0.77546148      -0.12764400      -0.78110344
C        0.62935666      -0.12648098      -0.30161500
C        1.90079879      -0.22029611      -0.99018048
O        1.67447256       0.53435365      -2.02892656
C        0.22539227       0.19013328       1.10539349
H       -2.26907620       1.32302204       0.89928445
H       -1.35513692      -1.32830852       0.96388469
H       -1.04888560       0.86082959      -1.16668984
H       -1.03179716      -0.86533433      -1.54277994
H        2.72463422       0.06588156      -0.29638920
H        1.83968032      -1.41239630      -0.93505569
H        0.23327676       1.27333632       1.27070382
H        0.76643979      -0.29150933       1.92069957
15
Frame=5 idx=011494 GeodesicLength=0.4789524824746084 rxn_smarts="[O:1]([C@@:2]1([H:9])[C:3]([H:10])([H:11])[C@:4]2([C:5]([H:12])([H:13])[O:6]2)[C:7]1([H:14])[H:15])[H:8]>>[O:1]([C@:2]1([H:9])[C:3]([H:10])([H:11])[C@@:4]([C:5](=[O:6])[H:12])([H:13])[C:7]1([H:14])[H:15])[H:8]"
O       -2.30685198       0.40739342       1.17801196
C       -1.19532364      -0.28296091       0.69960888
C       -0.77602762      -0.13940675      -0.78515143
C        0.63363790      -0.13462840      -0.31099997
C        1.91262633      -0.21272542      -0.98697268
O        1.66424671       0.59254495      -1.98068447
C        0.23052715       0.19421374       1.09673337
H       -2.26313789       1.32258306       0.89200511
H       -1.34719641      -1.32734597       0.97051533
H       -1.05127307       0.84589208      -1.17682339
H       -1.03770228      -0.88460484      -1.53732218
H        2.74244812       0.03841642      -0.28953969
H        1.78508300      -1.41635170      -0.93847520
H        0.23887943       1.27856298       1.25283974
H        0.77006424      -0.28158266       1.91625464
15
Frame=6 idx=011494 GeodesicLength=0.5749266977316 rxn_smarts="[O:1]([C@@:2]1([H:9])[C:3]([H:10])([H:11])[C@:4]2([C:5]([H:12])([H:13])[O:6]2)[C:7]1([H:14])[H:15])[H:8]>>[O:1]([C@:2]1([H:9])[C:3]([H:10])([H:11])[C@@:4]([C:5](=[O:6])[H:12])([H:13])[C:7]1([H:14])[H:15])[H:8]"
O       -2.30140207       0.40841075       1.17463264
C       -1.18972395      -0.28362552       0.69758713
C       -0.77672911      -0.15053513      -0.78920985
C        0.63773680      -0.14237376      -0.32032824
C        1.92364737      -0.20573898      -0.98437788
O        1.65383732       0.64634670      -1.93154831
C        0.23545813       0.19770471       1.08826804
H       -2.25710016       1.32243716       0.88502599
H       -1.33984595      -1.32628492       0.97643609
H       -1.05333094       0.83178463      -1.18668749
H       -1.04397113      -0.90291958      -1.53189169
H        2.75931318       0.01324288      -0.28568767
H        1.73434796      -1.41859684      -0.93989215
H        0.24443467       1.28301235       1.23598015
H        0.77332787      -0.27286445       1.91169326
15
Frame=7 idx=011494 GeodesicLength=0.6709579357398086 rxn_smarts="[O:1]([C@@:2]1([H:9])[C:3]([H:10])([H:11])[C@:4]2([C:5]([H:12])([H:13])[O:6]2)[C:7]1([H:14])[H:15])[H:8]>>[O:1]([C@:2]1([H:9])[C:3]([H:10])([H:11])[C@@:4]([C:5](=[O:6])[H:12])([H:13])[C:7]1([H:14])[H:15])[H:8]"
O       -2.29612583       0.40960405       1.17119346
C       -1.18439889      -0.28417799       0.69537250
C       -0.77753452      -0.16105382      -0.79327659
C        0.64167466      -0.14965775      -0.32958568
C        1.93391554      -0.19907571      -0.98237944
O        1.64324858       0.69599187      -1.88186612
C        0.24018302       0.20066459       1.08002852
H       -2.25099608       1.32254741       0.87831734
H       -1.33302605      -1.32514533       0.98167655
H       -1.05506714       0.81846898      -1.19630350
H       -1.05051726      -0.92033726      -1.52647780
H        2.77543394      -0.00971499      -0.28453054
H        1.68706012      -1.41960063      -0.93937581
H        0.24989899       1.28676273       1.22015300
H        0.77625091      -0.26527614       1.90705412
15
Frame=8 idx=011494 GeodesicLength=0.7670383692886404 rxn_smarts="[O:1]([C@@:2]1([H:9])[C:3]([H:10])([H:11])[C@:4]2([C:5]([H:12])([H:13])[O:6]2)[C:7]1([H:14])[H:15])[H:8]>>[O:1]([C@:2]1([H:9])[C:3]([H:10])([H:11])[C@@:4]([C:5](=[O:6])[H:12])([H:13])[C:7]1([H:14])[H:15])[H:8]"
O       -2.29103555       0.41093854       1.16768370
C       -1.17933498      -0.28463022       0.69297961
C       -0.77841901      -0.17098617      -0.79735006
C        0.64547706      -0.15644045      -0.33875860
C        1.94350108      -0.19253614      -0.98093806
O        1.63249998       0.74169426      -1.83196171
C        0.24470514       0.20314114       1.07204356
H       -2.24485689       1.32287831       0.87185148
H       -1.32670093      -1.32394826       0.98627474
H       -1.05648294       0.80591239      -1.20569394
H       -1.05727387      -0.93690261      -1.52107755
H        2.79098990      -0.03052515      -0.28580986
H        1.64282824      -1.41972587      -0.93699725
H        0.25524984       1.28988004       1.20537189
H        0.77885294      -0.25874981       1.90238207
15
Frame=9 idx=011494 GeodesicLength=0.8631510681550114 rxn_smarts="[O:1]([C@@:2]1([H:9])[C:3]([H:10])([H:11])[C@:4]2([C:5]([H:12])([H:13])[O:6]2)[C:7]1([H:14])[H:15])[H:8]>>[O:1]([C@:2]1([H:9])[C:3]([H:10])([H:11])[C@@:4]([C:5](=[O:6])[H:12])([H:13])[C:7]1([H:14])[H:15])[H:8]"
O       -2.28612229       0.41239457       1.16409336
C       -1.17450436      -0.28498511       0.69041534
C       -0.77934371      -0.18035792      -0.80141816
C        0.64916367      -0.16270633      -0.34783679
C        1.95245630      -0.18598323      -0.98000272
O        1.62160246       0.78364940      -1.78208327
C        0.24901655       0.20517681       1.06432163
H       -2.23870059       1.32340149       0.86561443
H       -1.32080885      -1.32269399       0.99025061
H       -1.05756836       0.79407359      -1.21485172
H       -1.06414903      -0.95265489      -1.51567499
H        2.80608635      -0.04926250      -0.28929434
H        1.60129370      -1.41925307      -0.93285177
H        0.26044441       1.29241635       1.19163020
H        0.78113375      -0.25321518       1.89768818
15
Frame=10 idx=011494 GeodesicLength=0.9593077508078789 rxn_smarts="[O:1]([C@@:2]1([H:9])[C:3]([H:10])([H:11])[C@:4]2([C:5]([H:12])([H:13])[O:6]2)[C:7]1([H:14])[H:15])[H:8]>>[O:1]([C@:2]1([H:9])[C:3]([H:10])([H:11])[C@@:4]([C:5](=[O:6])[H:12])([H:13])[C:7]1([H:14])[H:15])[H:8]"
O       -2.28139809       0.41394989       1.16041383
C       -1.16990710      -0.28526168       0.68769704
C       -0.78030154      -0.18919680      -0.80549136
C        0.65276038      -0.16845140      -0.35680819
C        1.96086068      -0.17930087      -0.97951165
O        1.61056509       0.82205852      -1.73251823
C        0.25313642       0.20679758       1.05689618
H       -2.23253557       1.32410423       0.85957505
H       -1.31535728      -1.32142046       0.99364777
H       -1.05832544       0.78293224      -1.22381472
H       -1.07112268      -0.96763372      -1.51029875
H        2.82086609      -0.06595114      -0.29478408
H        1.56213061      -1.41841240      -0.92697787
H        0.26550844       1.29442414       1.17893655
H        0.78311999      -0.24863812       1.89303844
15
Frame=11 idx=011494 GeodesicLength=1.0554981295942578 rxn_smarts="[O:1]([C@@:2]1([H:9])[C:3]([H:10])([H:11])[C@:4]2([C:5]([H:12])([H:13])[O:6]2)[C:7]1([H:14])[H:15])[H:8]>>[O:1]([C@:2]1([H:9])[C:3]([H:10])([H:11])[C@@:4]([C:5](=[O:6])[H:12])([H:13])[C:7]1([H:14])[H:15])[H:8]"
O       -2.27685567       0.41559622       1.15663910
C       -1.16552645      -0.28546480       0.68483527
C       -0.78126614      -0.19753405      -0.80956186
C        0.65628721      -0.17369306      -0.36566465
C        1.96877182      -0.17241746      -0.97940335
O        1.59940049       0.85711550      -1.68345890
C        0.25706638       0.20802968       1.04977233
H       -2.22636536       1.32497116       0.85371654
H       -1.31031698      -1.32013014       0.99649566
H       -1.05874553       0.77244705      -1.23258340
H       -1.07813800      -0.98187537      -1.50494611
H        2.83540308      -0.08064665      -0.30209665
H        1.52504031      -1.41737012      -0.91946338
H        0.27043145       1.29593915       1.16726904
H        0.78481338      -0.24496708       1.88845037
15
Frame=12 idx=011494 GeodesicLength=1.1517171139102194 rxn_smarts="[O:1]([C@@:2]1([H:9])[C:3]([H:10])([H:11])[C@:4]2([C:5]([H:12])([H:13])[O:6]2)[C:7]1([H:14])[H:15])[H:8]>>[O:1]([C@:2]1([H:9])[C:3]([H:10])([H:11])[C@@:4]([C:5](=[O:6])[H:12])([H:13])[C:7]1([H:14])[H:15])[H:8]"
O       -2.27249023       0.41732414       1.15276601
C       -1.16135019      -0.28560257       0.68184238
C       -0.78221992      -0.20540172      -0.81362615
C        0.65976444      -0.17845973      -0.37439980
C        1.97624914      -0.16528419      -0.97961495
O        1.58812858       0.88901857      -1.63506983
C        0.26081476       0.20889692       1.04295394
H       -2.22019242       1.32598908       0.84802062
H       -1.30566875      -1.31883200       0.99882988
H       -1.05882487       0.76258025      -1.24116569
H       -1.08516012      -0.99541544      -1.49962235
H        2.84976416      -0.09340385      -0.31106217
H        1.48974417      -1.41625553      -0.91039582
H        0.27521759       1.29699727       1.15659679
H        0.78622365      -0.24215120       1.88394714
15
Frame=13 idx=011494 GeodesicLength=1.2479621767512155 rxn_smarts="[O:1]([C@@:2]1([H:9])[C:3]([H:10])([H:11])[C@:4]2([C:5]([H:12])([H:13])[O:6]2)[C:7]1([H:14])[H:15])[H:8]>>[O:1]([C@:2]1([H:9])[C:3]([H:10])([H:11])[C@@:4]([C:5](=[O:6])[H:12])([H:13])[C:7]1([H:14])[H:15])[H:8]"
O       -2.26829356       0.41912893       1.14879249
C       -1.15736642      -0.28568238       0.67873014
C       -0.78314746      -0.21283316      -0.81768123
C        0.66321112      -0.18279078      -0.38300906
C        1.98334865      -0.15786919      -0.98008395
O        1.57676505       0.91796024      -1.58748409
C        0.26439135       0.20941868       1.03644069
H       -2.21401320       1.32714899       0.84247019
H       -1.30139704      -1.31753306       1.00068525
H       -1.05856069       0.75329296      -1.24956903
H       -1.09216246      -1.00828877      -1.49433443
H        2.86400089      -0.10427157      -0.32152530
H        1.45598794      -1.41516645      -0.89986259
H        0.27987611       1.29762858       1.14688272
H        0.78735971      -0.24014302       1.87954820
15
Frame=14 idx=011494 GeodesicLength=1.3442302474673156 rxn_smarts="[O:1]([C@@:2]1([H:9])[C:3]([H:10])([H:11])[C@:4]2([C:5]([H:12])([H:13])[O:6]2)[C:7]1([H:14])[H:15])[H:8]>>[O:1]([C@:2]1([H:9])[C:3]([H:10])([H:11])[C@@:4]([C:5](=[O:6])[H:12])([H:13])[C:7]1([H:14])[H:15])[H:8]"
O       -2.26425522       0.42101020       1.14471797
C       -1.15356380      -0.28571086       0.67550984
C       -0.78403563      -0.21986244      -0.82172451
C        0.66664568      -0.18673460      -0.39149024
C        1.99012369      -0.15015302      -0.98074899
O        1.56532342       0.94412501      -1.54080761
C        0.26780719       0.20961018       1.03022807
H       -2.20781994       1.32844586       0.83704945
H       -1.29748902      -1.31623843       1.00209653
H       -1.05795193       0.74454556      -1.25780083
H       -1.09912645      -1.02053008      -1.48908877
H        2.87815251      -0.11329087      -0.33334001
H        1.42353877      -1.41417516      -0.88795385
H        0.28442028       1.29785758       1.13808414
H        0.78823043      -0.23889893       1.87526882
15
Frame=15 idx=011494 GeodesicLength=1.4405187727305107 rxn_smarts="[O:1]([C@@:2]1([H:9])[C:3]([H:10])([H:11])[C@:4]2([C:5]([H:12])([H:13])[O:6]2)[C:7]1([H:14])[H:15])[H:8]>>[O:1]([C@:2]1([H:9])[C:3]([H:10])([H:11])[C@@:4]([C:5](=[O:6])[H:12])([H:13])[C:7]1([H:14])[H:15])[H:8]"
O       -2.26036225       0.42297104       1.14054255
C       -1.14993123      -0.28569383       0.67219195
C       -0.78487305      -0.22652372      -0.82575349
C        0.67008614      -0.19034692      -0.39984304
C        1.99662497      -0.14212542      -0.98154979
O        1.55381291       0.96768700      -1.49512357
C        0.27107453       0.20948268       1.02430778
H       -2.20160024       1.32987766       0.83174395
H       -1.29393443      -1.31495118       1.00309710
H       -1.05699847       0.73629796      -1.26586786
H       -1.10604086      -1.03217268      -1.48389128
H        2.89224835      -0.12049257      -0.34636870
H        1.39218229      -1.41333419      -0.87475974
H        0.28886695       1.29770322       1.13015419
H        0.78884440      -0.23837908       1.87111996
15
Frame=16 idx=011494 GeodesicLength=1.5368245655383241 rxn_smarts="[O:1]([C@@:2]1([H:9])[C:3]([H:10])([H:11])[C@:4]2([C:5]([H:12])([H:13])[O:6]2)[C:7]1([H:14])[H:15])[H:8]>>[O:1]([C@:2]1([H:9])[C:3]([H:10])([H:11])[C@@:4]([C:5](=[O:6])[H:12])([H:13])[C:7]1([H:14])[H:15])[H:8]"
O       -2.25659984       0.42501637       1.13626804
C       -1.14645768      -0.28563666       0.66878602
C       -0.78565027      -0.23285010      -0.82976622
C        0.67355042      -0.19368901      -0.40806996
C        2.00290152      -0.13378344      -0.98242676
O        1.54224022       0.98880780      -1.45049811
C        0.27420679       0.20904452       1.01866762
H       -2.19533892       1.33144418       0.82654182
H       -1.29072385      -1.31367328       1.00371887
H       -1.05570142       0.72851121      -1.27377637
H       -1.11290205      -1.04324759      -1.47874721
H        2.90630944      -0.12589643      -0.36047664
H        1.36171884      -1.41268138      -0.86037108
H        0.29323574       1.29718023       1.12304182
H        0.78921106      -0.23854642       1.86710817
