12
Frame=0 idx=007069 GeodesicLength=0.0 rxn_smarts="[O:1]=[C:2]1[N:3]([H:8])[C:4]([H:9])([H:10])[C@@:5]2([H:11])[O:6][C@@:7]12[H:12]>>[H:10][H:11].[O:1]=[C:2]1[N:3]([H:8])[C:4]([H:9])=[C:5]2[O:6][C@@:7]12[H:12]"
O        0.98187180       2.35399935       0.32501409
C        0.48597948       1.27586625       0.29695332
N        1.25853296       0.06201622       0.11546617
C        0.46247664      -0.95965253      -0.11671219
C       -0.98542815      -0.65789147       0.21592098
O       -0.99311387      -0.06347371       1.54410229
C       -0.93866224       0.80196650       0.42556585
H        2.26609261       0.05921233       0.16775657
H        0.86638734      -1.94583453      -0.30594369
H       -0.48404953      -1.21808203      -1.74250711
H       -1.17308919      -1.20803409      -1.17339817
H       -1.74699789       1.49990771       0.24778192
12
Frame=1 idx=007069 GeodesicLength=0.0627055863379647 rxn_smarts="[O:1]=[C:2]1[N:3]([H:8])[C:4]([H:9])([H:10])[C@@:5]2([H:11])[O:6][C@@:7]12[H:12]>>[H:10][H:11].[O:1]=[C:2]1[N:3]([H:8])[C:4]([H:9])=[C:5]2[O:6][C@@:7]12[H:12]"
O        0.98175383       2.35729212       0.33345747
C        0.49108345       1.27578940       0.30592037
N        1.26056329       0.06702437       0.11003104
C        0.46366516      -0.95976304      -0.12735704
C       -0.97716695      -0.65492274       0.21175151
O       -1.00275155      -0.07525615       1.54169403
C       -0.93449848       0.80181354       0.43073960
H        2.26855033       0.06766523       0.14974856
H        0.87022215      -1.95331680      -0.26657471
H       -0.48569921      -1.22583191      -1.75192949
H       -1.19249325      -1.19746497      -1.18220722
H       -1.74322877       1.49697096       0.24472587
12
Frame=2 idx=007069 GeodesicLength=0.12540151059167057 rxn_smarts="[O:1]=[C:2]1[N:3]([H:8])[C:4]([H:9])([H:10])[C@@:5]2([H:11])[O:6][C@@:7]12[H:12]>>[H:10][H:11].[O:1]=[C:2]1[N:3]([H:8])[C:4]([H:9])=[C:5]2[O:6][C@@:7]12[H:12]"
O        0.98167438       2.36028378       0.34181142
C        0.49630582       1.27539803       0.31493389
N        1.26263829       0.07189299       0.10436525
C        0.46505941      -0.96029878      -0.13804420
C       -0.96873198      -0.65215401       0.20746606
O       -1.01252990      -0.08740150       1.53888773
C       -0.93022080       0.80137521       0.43593263
H        2.27088344       0.07611560       0.13169443
H        0.87389211      -1.95901797      -0.22635368
H       -0.48766591      -1.23356047      -1.76138037
H       -1.21211175      -1.18643191      -1.19086282
H       -1.73919311       1.49379903       0.24154967
12
Frame=3 idx=007069 GeodesicLength=0.18811184387855645 rxn_smarts="[O:1]=[C:2]1[N:3]([H:8])[C:4]([H:9])([H:10])[C@@:5]2([H:11])[O:6][C@@:7]12[H:12]>>[H:10][H:11].[O:1]=[C:2]1[N:3]([H:8])[C:4]([H:9])=[C:5]2[O:6][C@@:7]12[H:12]"
O        0.98162698       2.36297964       0.35003422
C        0.50163884       1.27468871       0.32397170
N        1.26474498       0.07660147       0.09846868
C        0.46665562      -0.96133757      -0.14860207
C       -0.96013953      -0.64959674       0.20313593
O       -1.02249549      -0.09983512       1.53572210
C       -0.92584407       0.80066770       0.44113695
H        2.27308382       0.08452018       0.11367439
H        0.87741842      -1.96290658      -0.18564692
H       -0.48988849      -1.24116380      -1.77082953
H       -1.23190553      -1.17503814      -1.19926184
H       -1.73489555       1.49042025       0.23819639
12
Frame=4 idx=007069 GeodesicLength=0.25094543991000073 rxn_smarts="[O:1]=[C:2]1[N:3]([H:8])[C:4]([H:9])([H:10])[C@@:5]2([H:11])[O:6][C@@:7]12[H:12]>>[H:10][H:11].[O:1]=[C:2]1[N:3]([H:8])[C:4]([H:9])=[C:5]2[O:6][C@@:7]12[H:12]"
O        0.98157939       2.36547891       0.35815355
C        0.50706031       1.27371310       0.33304725
N        1.26687526       0.08112107       0.09233364
C        0.46846166      -0.96298705      -0.15888921
C       -0.95140672      -0.64726079       0.19883190
O       -1.03270614      -0.11247067       1.53230972
C       -0.92140200       0.79977052       0.44637204
H        2.27515462       0.09282561       0.09567578
H        0.88086680      -1.96512537      -0.14475541
H       -0.49227503      -1.24863112      -1.78034197
H       -1.25183663      -1.16341022      -1.20737001
H       -1.73037152       1.48697599       0.23463271
12
Frame=5 idx=007069 GeodesicLength=0.3134031010701104 rxn_smarts="[O:1]=[C:2]1[N:3]([H:8])[C:4]([H:9])([H:10])[C@@:5]2([H:11])[O:6][C@@:7]12[H:12]>>[H:10][H:11].[O:1]=[C:2]1[N:3]([H:8])[C:4]([H:9])=[C:5]2[O:6][C@@:7]12[H:12]"
O        0.98169059       2.36725085       0.36600312
C        0.51266675       1.27216395       0.34229658
N        1.26896544       0.08549807       0.08634901
C        0.47033961      -0.96502204      -0.16847573
C       -0.94261957      -0.64508703       0.19455149
O       -1.04337045      -0.12530802       1.52818421
C       -0.91681768       0.79838888       0.45150111
H        2.27702127       0.10122999       0.07726410
H        0.88400441      -1.96504022      -0.10416376
H       -0.49466564      -1.25558948      -1.78924988
H       -1.27183692      -1.15138238      -1.21482117
H       -1.72537781       1.48289742       0.23056093
12
Frame=6 idx=007069 GeodesicLength=0.37604790504012314 rxn_smarts="[O:1]=[C:2]1[N:3]([H:8])[C:4]([H:9])([H:10])[C@@:5]2([H:11])[O:6][C@@:7]12[H:12]>>[H:10][H:11].[O:1]=[C:2]1[N:3]([H:8])[C:4]([H:9])=[C:5]2[O:6][C@@:7]12[H:12]"
O        0.98179749       2.36891270       0.37386518
C        0.51831794       1.27043170       0.35135470
N        1.27106010       0.08973867       0.07989129
C        0.47242523      -0.96770350      -0.17771437
C       -0.93370162      -0.64312430       0.19039313
O       -1.05422180      -0.13818742       1.52387798
C       -0.91220226       0.79689787       0.45662019
H        2.27874924       0.10944043       0.05936878
H        0.88718522      -1.96354321      -0.06390009
H       -0.49717896      -1.26233766      -1.79828300
H       -1.29201837      -1.13939710      -1.22178126
H       -1.72021222       1.47887184       0.22630748
12
Frame=7 idx=007069 GeodesicLength=0.4388278157510439 rxn_smarts="[O:1]=[C:2]1[N:3]([H:8])[C:4]([H:9])([H:10])[C@@:5]2([H:11])[O:6][C@@:7]12[H:12]>>[H:10][H:11].[O:1]=[C:2]1[N:3]([H:8])[C:4]([H:9])=[C:5]2[O:6][C@@:7]12[H:12]"
O        0.98188389       2.37042962       0.38176712
C        0.52403475       1.26848267       0.36069299
N        1.27314200       0.09372402       0.07355041
C        0.47468210      -0.97112009      -0.18618115
C       -0.92473716      -0.64135117       0.18641088
O       -1.06562990      -0.15104611       1.51942594
C       -0.90759468       0.79535962       0.46179820
H        2.28030176       0.11760846       0.04075876
H        0.89035763      -1.96075813      -0.02419487
H       -0.49943158      -1.26894670      -1.80730940
H       -1.31220901      -1.12736739      -1.22834605
H       -1.71479980       1.47498519       0.22162716
12
Frame=8 idx=007069 GeodesicLength=0.5013920637347833 rxn_smarts="[O:1]=[C:2]1[N:3]([H:8])[C:4]([H:9])([H:10])[C@@:5]2([H:11])[O:6][C@@:7]12[H:12]>>[H:10][H:11].[O:1]=[C:2]1[N:3]([H:8])[C:4]([H:9])=[C:5]2[O:6][C@@:7]12[H:12]"
O        0.98221792       2.37124380       0.38991419
C        0.52990802       1.26602573       0.36982437
N        1.27513943       0.09772502       0.06685527
C        0.47697403      -0.97480797      -0.19406629
C       -0.91573124      -0.63967956       0.18245310
O       -1.07738667      -0.16396029       1.51414743
C       -0.90285806       0.79338356       0.46674430
H        2.28160026       0.12586882       0.02223497
H        0.89333445      -1.95601260       0.01507643
H       -0.50165801      -1.27501127      -1.81578949
H       -1.33260838      -1.11531005      -1.23393282
H       -1.70893175       1.47053481       0.21653854
12
Frame=9 idx=007069 GeodesicLength=0.5640336457805447 rxn_smarts="[O:1]=[C:2]1[N:3]([H:8])[C:4]([H:9])([H:10])[C@@:5]2([H:11])[O:6][C@@:7]12[H:12]>>[H:10][H:11].[O:1]=[C:2]1[N:3]([H:8])[C:4]([H:9])=[C:5]2[O:6][C@@:7]12[H:12]"
O        0.98259329       2.37190476       0.39820515
C        0.53583278       1.26338558       0.37894177
N        1.27709857       0.10160040       0.05997154
C        0.47940842      -0.97909962      -0.20130237
C       -0.90667595      -0.63817067       0.17867335
O       -1.08955628      -0.17679207       1.50861193
C       -0.89812264       0.79134498       0.47167221
H        2.28272260       0.13402696       0.00369193
H        0.89637943      -1.95008521       0.05353700
H       -0.50367615      -1.28090956      -1.82423403
H       -1.35317905      -1.10337751      -1.23888793
H       -1.70282501       1.46617197       0.21111943
12
Frame=10 idx=007069 GeodesicLength=0.6266932822727218 rxn_smarts="[O:1]=[C:2]1[N:3]([H:8])[C:4]([H:9])([H:10])[C@@:5]2([H:11])[O:6][C@@:7]12[H:12]>>[H:10][H:11].[O:1]=[C:2]1[N:3]([H:8])[C:4]([H:9])=[C:5]2[O:6][C@@:7]12[H:12]"
O        0.98307775       2.37225720       0.40687351
C        0.54183940       1.26048112       0.38813954
N        1.27898854       0.10536756       0.05304429
C        0.48194299      -0.98390358      -0.20779424
C       -0.89759214      -0.63677996       0.17502289
O       -1.10222123      -0.18952340       1.50263835
C       -0.89335968       0.78918886       0.47652954
H        2.28357434       0.14225179      -0.01541074
H        0.89938355      -1.94293958       0.09134221
H       -0.50535369      -1.28660882      -1.83252145
H       -1.37390693      -1.09158219      -1.24314405
H       -1.69637289       1.46179099       0.20528017
12
Frame=11 idx=007069 GeodesicLength=0.6893647099332749 rxn_smarts="[O:1]=[C:2]1[N:3]([H:8])[C:4]([H:9])([H:10])[C@@:5]2([H:11])[O:6][C@@:7]12[H:12]>>[H:10][H:11].[O:1]=[C:2]1[N:3]([H:8])[C:4]([H:9])=[C:5]2[O:6][C@@:7]12[H:12]"
O        0.98367673       2.37233928       0.41579857
C        0.54791614       1.25734950       0.39728036
N        1.28080497       0.10909288       0.04586911
C        0.48457570      -0.98916086      -0.21366481
C       -0.88847765      -0.63550260       0.17150725
O       -1.11530163      -0.20216509       1.49621556
C       -0.88857980       0.78691982       0.48132182
H        2.28420683       0.15044453      -0.03449963
H        0.90243212      -1.93462713       0.12832155
H       -0.50673720      -1.29214904      -1.84066507
H       -1.39490171      -1.07993030      -1.24660965
H       -1.68961451       1.45738899       0.19912495
12
Frame=12 idx=007069 GeodesicLength=0.7520440105459131 rxn_smarts="[O:1]=[C:2]1[N:3]([H:8])[C:4]([H:9])([H:10])[C@@:5]2([H:11])[O:6][C@@:7]12[H:12]>>[H:10][H:11].[O:1]=[C:2]1[N:3]([H:8])[C:4]([H:9])=[C:5]2[O:6][C@@:7]12[H:12]"
O        0.98440588       2.37214033       0.42506473
C        0.55406308       1.25399261       0.40638171
N        1.28253286       0.11278672       0.03848776
C        0.48729592      -0.99483947      -0.21890639
C       -0.87933798      -0.63432306       0.16811040
O       -1.12880779      -0.21469935       1.48929850
C       -0.88378170       0.78454685       0.48604331
H        2.28459193       0.15864613      -0.05370750
H        0.90551155      -1.92521980       0.16450878
H       -0.50775102      -1.29755949      -1.84867547
H       -1.41619501      -1.06844890      -1.24926094
H       -1.68252774       1.45297743       0.19265510
12
Frame=13 idx=007069 GeodesicLength=0.8147328254340471 rxn_smarts="[O:1]=[C:2]1[N:3]([H:8])[C:4]([H:9])([H:10])[C@@:5]2([H:11])[O:6][C@@:7]12[H:12]>>[H:10][H:11].[O:1]=[C:2]1[N:3]([H:8])[C:4]([H:9])=[C:5]2[O:6][C@@:7]12[H:12]"
O        0.98527406       2.37166866       0.43469055
C        0.56027638       1.25042370       0.41542457
N        1.28416337       0.11646402       0.03090021
C        0.49009988      -1.00090891      -0.22354147
C       -0.87017692      -0.63323212       0.16482223
O       -1.14272823      -0.22711952       1.48185915
C       -0.87896952       0.78208028       0.49069587
H        2.28472428       0.16686170      -0.07301119
H        0.90862491      -1.91478942       0.19989971
H       -0.50833825      -1.30286230      -1.85657792
H       -1.43783788      -1.05715756      -1.25106272
H       -1.67511208       1.44857148       0.18590101
12
Frame=14 idx=007069 GeodesicLength=0.8774311099593244 rxn_smarts="[O:1]=[C:2]1[N:3]([H:8])[C:4]([H:9])([H:10])[C@@:5]2([H:11])[O:6][C@@:7]12[H:12]>>[H:10][H:11].[O:1]=[C:2]1[N:3]([H:8])[C:4]([H:9])=[C:5]2[O:6][C@@:7]12[H:12]"
O        0.98629131       2.37092930       0.44470187
C        0.56655109       1.24665373       0.42439608
N        1.28568686       0.12013396       0.02311894
C        0.49298269      -1.00734282      -0.22758572
C       -0.86099979      -0.63222062       0.16163073
O       -1.15705461      -0.23941859       1.47386822
C       -0.87414783       0.77953035       0.49528281
H        2.28459393       0.17510244      -0.09242368
H        0.91177130      -1.90340190       0.23450288
H       -0.50843146      -1.30808800      -1.86439832
H       -1.45987799      -1.04606563      -1.25198490
H       -1.66736550       1.44418777       0.17889110
12
Frame=15 idx=007069 GeodesicLength=0.9401440997899073 rxn_smarts="[O:1]=[C:2]1[N:3]([H:8])[C:4]([H:9])([H:10])[C@@:5]2([H:11])[O:6][C@@:7]12[H:12]>>[H:10][H:11].[O:1]=[C:2]1[N:3]([H:8])[C:4]([H:9])=[C:5]2[O:6][C@@:7]12[H:12]"
O        0.98746165       2.36993501       0.45510430
C        0.57288087       1.24269602       0.43328714
N        1.28709984       0.12379456       0.01517619
C        0.49594542      -1.01412432      -0.23104967
C       -0.85181325      -0.63128243       0.15852822
O       -1.17178511      -0.25159203       1.46530865
C       -0.86932567       0.77691083       0.49981324
H        2.28419015       0.18337733      -0.11198326
H        0.91494194      -1.89113731       0.26833329
H       -0.50794250      -1.31324772      -1.87217774
H       -1.48235985      -1.03518269      -1.25199721
H       -1.65929348       1.43985276       0.17165685
12
Frame=16 idx=007069 GeodesicLength=1.002851707959079 rxn_smarts="[O:1]=[C:2]1[N:3]([H:8])[C:4]([H:9])([H:10])[C@@:5]2([H:11])[O:6][C@@:7]12[H:12]>>[H:10][H:11].[O:1]=[C:2]1[N:3]([H:8])[C:4]([H:9])=[C:5]2[O:6][C@@:7]12[H:12]"
O        0.98880229       2.36865698       0.46588256
C        0.57926661       1.23854636       0.44206675
N        1.28838424       0.12747173       0.00706993
C        0.49896735      -1.02119316      -0.23395067
C       -0.84262359      -0.63040104       0.15548137
O       -1.18687173      -0.26365445       1.45610372
C       -0.86449223       0.77420104       0.50428524
H        2.28350188       0.19169736      -0.13160868
H        0.91811843      -1.87798403       0.30137764
H       -0.50682623      -1.31840781      -1.87989068
H       -1.50534825      -1.02445808      -1.25106329
H       -1.65087877       1.43552511       0.16424611
