17
Frame=0 idx=008383 GeodesicLength=0.0 rxn_smarts="[C:1]([C:2]12[C:3]([H:11])([H:12])[C:4]([H:13])([C:5]1([H:14])[H:15])[C:6]([H:16])=[C:7]2[H:17])([H:8])([H:9])[H:10]>>[C:1]([C:2]12[C:3]([H:11])([H:12])[C:4]([H:13])([C:5]1([H:14])[H:15])[C:6][C:7]2([H:16])[H:17])([H:8])([H:9])[H:10]"
C        1.93519457       0.05282592       0.02167786
C        0.43011116       0.05644405       0.04324397
C       -0.43347156      -0.81267389       1.01161180
C       -1.55841800      -0.44699146      -0.00337513
C       -0.44746926      -0.55369792      -1.08133070
C       -1.69679437       1.05606543       0.28076724
C       -0.32797923       1.36630860       0.23682996
H        2.31529917       0.65748876      -0.80531282
H        2.34209373       0.46023651       0.95020879
H        2.32522764      -0.95959874      -0.09750778
H       -0.54266272      -0.46954615       2.04168205
H       -0.16272717      -1.86903590       0.98265910
H       -2.47617853      -1.02368590      -0.07538149
H       -0.56373633       0.01967995      -2.00449608
H       -0.18191410      -1.58814480      -1.30632870
H       -1.07033939       1.73623411      -0.71466781
H        0.11376441       2.31809146       0.51971971
17
Frame=1 idx=008383 GeodesicLength=0.04418365666207761 rxn_smarts="[C:1]([C:2]12[C:3]([H:11])([H:12])[C:4]([H:13])([C:5]1([H:14])[H:15])[C:6]([H:16])=[C:7]2[H:17])([H:8])([H:9])[H:10]>>[C:1]([C:2]12[C:3]([H:11])([H:12])[C:4]([H:13])([C:5]1([H:14])[H:15])[C:6][C:7]2([H:16])[H:17])([H:8])([H:9])[H:10]"
C        1.93520841       0.05204848       0.02011977
C        0.43016246       0.05649572       0.04156997
C       -0.43218932      -0.81064906       1.01192703
C       -1.55821800      -0.44882104      -0.00367735
C       -0.44661235      -0.55723252      -1.08167214
C       -1.69453041       1.05357604       0.27139717
C       -0.32650215       1.36789818       0.23103823
H        2.31552300       0.65591405      -0.80735285
H        2.34237401       0.45978508       0.94840225
H        2.32487609      -0.96071023      -0.09782924
H       -0.54147399      -0.46556800       2.04133795
H       -0.16170183      -1.86722544       0.98544600
H       -2.47587200      -1.02598474      -0.07388568
H       -0.56363160       0.01318477      -2.00641141
H       -0.18122260      -1.59233087      -1.30415092
H       -1.07871620       1.75799547      -0.71925508
H        0.11252650       2.31162412       0.54299631
17
Frame=2 idx=008383 GeodesicLength=0.08835871639711512 rxn_smarts="[C:1]([C:2]12[C:3]([H:11])([H:12])[C:4]([H:13])([C:5]1([H:14])[H:15])[C:6]([H:16])=[C:7]2[H:17])([H:8])([H:9])[H:10]>>[C:1]([C:2]12[C:3]([H:11])([H:12])[C:4]([H:13])([C:5]1([H:14])[H:15])[C:6][C:7]2([H:16])[H:17])([H:8])([H:9])[H:10]"
C        1.93526331       0.05124586       0.01855574
C        0.43025386       0.05654834       0.03986742
C       -0.43089406      -0.80856417       1.01223293
C       -1.55797667      -0.45062284      -0.00400859
C       -0.44569670      -0.56080700      -1.08202317
C       -1.69216126       1.05110982       0.26185647
C       -0.32492987       1.36955690       0.22513590
H        2.31581379       0.65425688      -0.80942756
H        2.34268809       0.45935718       0.94657160
H        2.32455206      -0.96185817      -0.09808861
H       -0.54030543      -0.46148199       2.04096062
H       -0.16067522      -1.86535303       0.98827683
H       -2.47554950      -1.02820808      -0.07240979
H       -0.56344111       0.00665770      -2.00832463
H       -0.18048454      -1.59656278      -1.30193187
H       -1.08744975       1.78021324      -0.72329610
H        0.11099301       2.30451215       0.56605281
17
Frame=3 idx=008383 GeodesicLength=0.1325254888952303 rxn_smarts="[C:1]([C:2]12[C:3]([H:11])([H:12])[C:4]([H:13])([C:5]1([H:14])[H:15])[C:6]([H:16])=[C:7]2[H:17])([H:8])([H:9])[H:10]>>[C:1]([C:2]12[C:3]([H:11])([H:12])[C:4]([H:13])([C:5]1([H:14])[H:15])[C:6][C:7]2([H:16])[H:17])([H:8])([H:9])[H:10]"
C        1.93535964       0.05041605       0.01699241
C        0.43038565       0.05660051       0.03813976
C       -0.42958716      -0.80642484       1.01252778
C       -1.55769352      -0.45239663      -0.00437063
C       -0.44471947      -0.56442074      -1.08238298
C       -1.68968513       1.04866269       0.25215075
C       -0.32326232       1.37128223       0.21913394
H        2.31617290       0.65251738      -0.81152805
H        2.34303377       0.45895030       0.94472471
H        2.32425618      -0.96304400      -0.09828030
H       -0.53915948      -0.45729872       2.04054956
H       -0.15964945      -1.86342390       0.99114645
H       -2.47521085      -1.03035481      -0.07095890
H       -0.56315863       0.00010028      -2.01023476
H       -0.17969740      -1.60083918      -1.29967262
H       -1.09656354       1.80289827      -0.72672999
H        0.10917880       2.29677513       0.58879285
17
Frame=4 idx=008383 GeodesicLength=0.17669208907929596 rxn_smarts="[C:1]([C:2]12[C:3]([H:11])([H:12])[C:4]([H:13])([C:5]1([H:14])[H:15])[C:6]([H:16])=[C:7]2[H:17])([H:8])([H:9])[H:10]>>[C:1]([C:2]12[C:3]([H:11])([H:12])[C:4]([H:13])([C:5]1([H:14])[H:15])[C:6][C:7]2([H:16])[H:17])([H:8])([H:9])[H:10]"
C        1.93549751       0.04955702       0.01543636
C        0.43055795       0.05665035       0.03639019
C       -0.42827034      -0.80423704       1.01280979
C       -1.55736834      -0.45414243      -0.00476557
C       -0.44367800      -0.56807370      -1.08275095
C       -1.68710020       1.04622986       0.24228565
C       -0.32150060       1.37307031       0.21304371
H        2.31660126       0.65069608      -0.81364525
H        2.34340850       0.45856153       0.94286957
H        2.32398906      -0.96426904      -0.09839895
H       -0.53803879      -0.45302901       2.04010419
H       -0.15862691      -1.86144386       0.99404978
H       -2.47485628      -1.03242409      -0.06953861
H       -0.56277755      -0.00648712      -2.01214142
H       -0.17885883      -1.60515939      -1.29737417
H       -1.10608188       1.82605867      -0.72949699
H        0.10710345       2.28844187       0.61112267
17
Frame=5 idx=008383 GeodesicLength=0.22085707363028306 rxn_smarts="[C:1]([C:2]12[C:3]([H:11])([H:12])[C:4]([H:13])([C:5]1([H:14])[H:15])[C:6]([H:16])=[C:7]2[H:17])([H:8])([H:9])[H:10]>>[C:1]([C:2]12[C:3]([H:11])([H:12])[C:4]([H:13])([C:5]1([H:14])[H:15])[C:6][C:7]2([H:16])[H:17])([H:8])([H:9])[H:10]"
C        1.93567750       0.04866577       0.01389380
C        0.43077135       0.05669494       0.03462069
C       -0.42694565      -0.80200601       1.01307672
C       -1.55700074      -0.45586157      -0.00519707
C       -0.44256895      -0.57176757      -1.08312741
C       -1.68440628       1.04380700       0.23226244
C       -0.31964510       1.37491637       0.20687197
H        2.31710109       0.64879107      -0.81577117
H        2.34380963       0.45818822       0.94101351
H        2.32375167      -0.96553583      -0.09843796
H       -0.53694722      -0.44868104       2.03962263
H       -0.15761040      -1.85941775       0.99698287
H       -2.47448548      -1.03441685      -0.06815587
H       -0.56229093      -0.01310631      -2.01404546
H       -0.17796569      -1.60952471      -1.29503728
H       -1.11603472       1.84970413      -0.73152487
H        0.10478992       2.27955015       0.63295246
17
Frame=6 idx=008383 GeodesicLength=0.26501786451249415 rxn_smarts="[C:1]([C:2]12[C:3]([H:11])([H:12])[C:4]([H:13])([C:5]1([H:14])[H:15])[C:6]([H:16])=[C:7]2[H:17])([H:8])([H:9])[H:10]>>[C:1]([C:2]12[C:3]([H:11])([H:12])[C:4]([H:13])([C:5]1([H:14])[H:15])[C:6][C:7]2([H:16])[H:17])([H:8])([H:9])[H:10]"
C        1.93590008       0.04773944       0.01237042
C        0.43102627       0.05673132       0.03283279
C       -0.42561553      -0.79973646       1.01332634
C       -1.55659052      -0.45755499      -0.00566941
C       -0.44138901      -0.57550469      -1.08351293
C       -1.68160170       1.04139011       0.22208083
C       -0.31769696       1.37681490       0.20062617
H        2.31767408       0.64680096      -0.81789824
H        2.34423467       0.45782761       0.93916338
H        2.32354490      -0.96684677      -0.09839133
H       -0.53588874      -0.44426199       2.03910310
H       -0.15660321      -1.85735025       0.99994249
H       -2.47409870      -1.03633320      -0.06681794
H       -0.56169098      -0.01976047      -2.01594866
H       -0.17701507      -1.61393720      -1.29266237
H       -1.12644869       1.87384161      -0.73273862
H        0.10225911       2.27014008       0.65419398
17
Frame=7 idx=008383 GeodesicLength=0.3091816354484193 rxn_smarts="[C:1]([C:2]12[C:3]([H:11])([H:12])[C:4]([H:13])([C:5]1([H:14])[H:15])[C:6]([H:16])=[C:7]2[H:17])([H:8])([H:9])[H:10]>>[C:1]([C:2]12[C:3]([H:11])([H:12])[C:4]([H:13])([C:5]1([H:14])[H:15])[C:6][C:7]2([H:16])[H:17])([H:8])([H:9])[H:10]"
C        1.93616555       0.04677516       0.01087124
C        0.43132304       0.05675628       0.03102695
C       -0.42428256      -0.79743229       1.01355621
C       -1.55613778      -0.45922412      -0.00618767
C       -0.44013485      -0.57928889      -1.08390853
C       -1.67868578       1.03897485       0.21173918
C       -0.31565804       1.37876000       0.19430970
H        2.31832200       0.64472343      -0.82002006
H        2.34468063       0.45747757       0.93732523
H        2.32336956      -0.96820428      -0.09825283
H       -0.53486744      -0.43977700       2.03854305
H       -0.15560880      -1.85524501       1.00292619
H       -2.47369605      -1.03817441      -0.06553256
H       -0.56097040      -0.02645548      -2.01785395
H       -0.17600406      -1.61840065      -1.29024917
H       -1.13735103       1.89847785      -0.73306484
H        0.09953603       2.26025698       0.67477186
17
Frame=8 idx=008383 GeodesicLength=0.35335275968835467 rxn_smarts="[C:1]([C:2]12[C:3]([H:11])([H:12])[C:4]([H:13])([C:5]1([H:14])[H:15])[C:6]([H:16])=[C:7]2[H:17])([H:8])([H:9])[H:10]>>[C:1]([C:2]12[C:3]([H:11])([H:12])[C:4]([H:13])([C:5]1([H:14])[H:15])[C:6][C:7]2([H:16])[H:17])([H:8])([H:9])[H:10]"
C        1.93647423       0.04576988       0.00939990
C        0.43166206       0.05676644       0.02920168
C       -0.42294983      -0.79509545       1.01376308
C       -1.55564270      -0.46087016      -0.00675839
C       -0.43880291      -0.58312604      -1.08431631
C       -1.67565683       1.03655781       0.20123193
C       -0.31353094       1.38074498       0.18792111
H        2.31904734       0.64255502      -0.82213231
H        2.34514443       0.45713693       0.93550331
H        2.32322642      -0.96961113      -0.09801585
H       -0.53388815      -0.43522703       2.03793834
H       -0.15463110      -1.85310384       1.00593317
H       -2.47327783      -1.03994138      -0.06430805
H       -0.56012077      -0.03320149      -2.01976665
H       -0.17492947      -1.62292134      -1.28779616
H       -1.14877125       1.92361690      -0.73242566
H        0.09664730       2.24994991       0.69462683
17
Frame=9 idx=008383 GeodesicLength=0.3975253826452897 rxn_smarts="[C:1]([C:2]12[C:3]([H:11])([H:12])[C:4]([H:13])([C:5]1([H:14])[H:15])[C:6]([H:16])=[C:7]2[H:17])([H:8])([H:9])[H:10]>>[C:1]([C:2]12[C:3]([H:11])([H:12])[C:4]([H:13])([C:5]1([H:14])[H:15])[C:6][C:7]2([H:16])[H:17])([H:8])([H:9])[H:10]"
C        1.93682545       0.04472203       0.00796108
C        0.43204257       0.05675995       0.02735827
C       -0.42162068      -0.79272910       1.01394612
C       -1.55510509      -0.46249583      -0.00738671
C       -0.43739004      -0.58701968      -1.08473648
C       -1.67251815       1.03413241       0.19055251
C       -0.31131721       1.38276649       0.18146675
H        2.31984970       0.64029485      -0.82422842
H        2.34562247       0.45680530       0.93370274
H        2.32311572      -0.97106828      -0.09767518
H       -0.53295742      -0.43061595       2.03728831
H       -0.15367326      -1.85092985       1.00896320
H       -2.47284344      -1.04163777      -0.06315240
H       -0.55913673      -0.04000322      -2.02168860
H       -0.17378763      -1.62750253      -1.28530257
H       -1.16071164       1.94927467      -0.73072823
H        0.09360538       2.23924651       0.71365962
17
Frame=10 idx=008383 GeodesicLength=0.4417044019045013 rxn_smarts="[C:1]([C:2]12[C:3]([H:11])([H:12])[C:4]([H:13])([C:5]1([H:14])[H:15])[C:6]([H:16])=[C:7]2[H:17])([H:8])([H:9])[H:10]>>[C:1]([C:2]12[C:3]([H:11])([H:12])[C:4]([H:13])([C:5]1([H:14])[H:15])[C:6][C:7]2([H:16])[H:17])([H:8])([H:9])[H:10]"
C        1.93722205       0.04362544       0.00655615
C        0.43246755       0.05673172       0.02548962
C       -0.42029859      -0.79032940       1.01409953
C       -1.55452423      -0.46410075      -0.00808440
C       -0.43589015      -0.59098071      -1.08517457
C       -1.66926439       1.03169965       0.17968377
C       -0.30901562       1.38481724       0.17492488
H        2.32073734       0.63793096      -0.82630932
H        2.34611325       0.45648146       0.93192470
H        2.32303917      -0.97258278      -0.09722045
H       -0.53208096      -0.42593253       2.03658347
H       -0.15274152      -1.84871909       1.01201890
H       -2.47239306      -1.04326164      -0.06207737
H       -0.55800484      -0.04688077      -2.02363132
H       -0.17257426      -1.63215683      -1.28276451
H       -1.17323695       1.97544342      -0.72787618
H        0.09044521       2.22821462       0.73185711
17
Frame=11 idx=008383 GeodesicLength=0.4858994227144788 rxn_smarts="[C:1]([C:2]12[C:3]([H:11])([H:12])[C:4]([H:13])([C:5]1([H:14])[H:15])[C:6]([H:16])=[C:7]2[H:17])([H:8])([H:9])[H:10]>>[C:1]([C:2]12[C:3]([H:11])([H:12])[C:4]([H:13])([C:5]1([H:14])[H:15])[C:6][C:7]2([H:16])[H:17])([H:8])([H:9])[H:10]"
C        1.93766547       0.04247607       0.00518649
C        0.43293865       0.05667874       0.02359069
C       -0.41898732      -0.78789284       1.01421945
C       -1.55389953      -0.46568434      -0.00886153
C       -0.43429829      -0.59501791      -1.08563420
C       -1.66589361       1.02925816       0.16860920
C       -0.30662490       1.38689338       0.16828055
H        2.32171527       0.63545537      -0.82837415
H        2.34661463       0.45616517       0.93017030
H        2.32299774      -0.97415903      -0.09664426
H       -0.53126508      -0.42116728       2.03581721
H       -0.15184158      -1.84646812       1.01510332
H       -2.47192654      -1.04481189      -0.06109337
H       -0.55671446      -0.05385082      -2.02560343
H       -0.17128567      -1.63689425      -1.28017779
H       -1.18638418       2.00211953      -0.72377352
H        0.08718940       2.21690007       0.74918504
17
Frame=12 idx=008383 GeodesicLength=0.5301045768504937 rxn_smarts="[C:1]([C:2]12[C:3]([H:11])([H:12])[C:4]([H:13])([C:5]1([H:14])[H:15])[C:6]([H:16])=[C:7]2[H:17])([H:8])([H:9])[H:10]>>[C:1]([C:2]12[C:3]([H:11])([H:12])[C:4]([H:13])([C:5]1([H:14])[H:15])[C:6][C:7]2([H:16])[H:17])([H:8])([H:9])[H:10]"
C        1.93815778       0.04126928       0.00385282
C        0.43345809       0.05659851       0.02165453
C       -0.41769124      -0.78541280       1.01430124
C       -1.55322991      -0.46724508      -0.00973056
C       -0.43260810      -0.59914168      -1.08612018
C       -1.66240259       1.02680802       0.15730522
C       -0.30414276       1.38899225       0.16151330
H        2.32279028       0.63285726      -0.83042398
H        2.34712488       0.45585741       0.92843944
H        2.32299232      -0.97580246      -0.09593676
H       -0.53051798      -0.41630529       2.03498109
H       -0.15098014      -1.84417025       1.01822148
H       -2.47144349      -1.04628620      -0.06021291
H       -0.55525288      -0.06093325      -2.02761589
H       -0.16991709      -1.64172687      -1.27753700
H       -1.20019685       2.02929661      -0.71830085
H        0.08385968       2.20534454       0.76560900
17
Frame=13 idx=008383 GeodesicLength=0.5743096805352044 rxn_smarts="[C:1]([C:2]12[C:3]([H:11])([H:12])[C:4]([H:13])([C:5]1([H:14])[H:15])[C:6]([H:16])=[C:7]2[H:17])([H:8])([H:9])[H:10]>>[C:1]([C:2]12[C:3]([H:11])([H:12])[C:4]([H:13])([C:5]1([H:14])[H:15])[C:6][C:7]2([H:16])[H:17])([H:8])([H:9])[H:10]"
C        1.93870112       0.04000062       0.00255495
C        0.43402804       0.05648911       0.01967244
C       -0.41641536      -0.78287991       1.01433959
C       -1.55251434      -0.46878094      -0.01070604
C       -0.43081262      -0.60336406      -1.08663810
C       -1.65878710       1.02435125       0.14574305
C       -0.30156664       1.39111205       0.15459747
H        2.32396973       0.63012472      -0.83246132
H        2.34764194       0.45556037       0.92673055
H        2.32302362      -0.97751849      -0.09508765
H       -0.52984921      -0.41132658       2.03406495
H       -0.15016467      -1.84181610       1.02138011
H       -2.47094392      -1.04768100      -0.05944960
H       -0.55360605      -0.06815165      -2.02968150
H       -0.16846323      -1.64666877      -1.27483505
H       -1.21471924       2.05696256      -0.71132622
H        0.08047793       2.19358683       0.78110236
17
Frame=14 idx=008383 GeodesicLength=0.6185135921145098 rxn_smarts="[C:1]([C:2]12[C:3]([H:11])([H:12])[C:4]([H:13])([C:5]1([H:14])[H:15])[C:6]([H:16])=[C:7]2[H:17])([H:8])([H:9])[H:10]>>[C:1]([C:2]12[C:3]([H:11])([H:12])[C:4]([H:13])([C:5]1([H:14])[H:15])[C:6][C:7]2([H:16])[H:17])([H:8])([H:9])[H:10]"
C        1.93929828       0.03866477       0.00129284
C        0.43465147       0.05634902       0.01763485
C       -0.41516503      -0.78028279       1.01432842
C       -1.55175150      -0.47028786      -0.01180359
C       -0.42890419      -0.60769694      -1.08719400
C       -1.65504217       1.02189054       0.13389216
C       -0.29889225       1.39325215       0.14750396
H        2.32526285       0.62724357      -0.83448898
H        2.34816436       0.45527601       0.92504196
H        2.32309212      -0.97931376      -0.09408495
H       -0.52926860      -0.40620824       2.03305729
H       -0.14940391      -1.83939413       1.02458623
H       -2.47042743      -1.04899089      -0.05881833
H       -0.55175834      -0.07553031      -2.03181386
H       -0.16691893      -1.65173390      -1.27206434
H       -1.23000208       2.08509670      -0.70270792
H        0.07706535       2.18166605       0.79563824
17
Frame=15 idx=008383 GeodesicLength=0.6627162817839787 rxn_smarts="[C:1]([C:2]12[C:3]([H:11])([H:12])[C:4]([H:13])([C:5]1([H:14])[H:15])[C:6]([H:16])=[C:7]2[H:17])([H:8])([H:9])[H:10]>>[C:1]([C:2]12[C:3]([H:11])([H:12])[C:4]([H:13])([C:5]1([H:14])[H:15])[C:6][C:7]2([H:16])[H:17])([H:8])([H:9])[H:10]"
C        1.93995204       0.03725659       0.00006584
C        0.43533137       0.05617737       0.01553071
C       -0.41394625      -0.77760761       1.01426097
C       -1.55094003      -0.47176066      -0.01304047
C       -0.42687472      -0.61215320      -1.08779444
C       -1.65116199       1.01942984       0.12171785
C       -0.29611486       1.39541305       0.14019973
H        2.32667940       0.62419875      -0.83651063
H        2.34869037       0.45500734       0.92337114
H        2.32319794      -0.98119469      -0.09291586
H       -0.52878729      -0.40092320       2.03194516
H       -0.14870755      -1.83689020       1.02784809
H       -2.46989404      -1.05020872      -0.05833520
H       -0.54969294      -0.08309626      -2.03402778
H       -0.16527888      -1.65693738      -1.26921576
H       -1.24609521       2.11367044      -0.69229107
H        0.07364264       2.16961854       0.80919172
17
Frame=16 idx=008383 GeodesicLength=0.7069048004286321 rxn_smarts="[C:1]([C:2]12[C:3]([H:11])([H:12])[C:4]([H:13])([C:5]1([H:14])[H:15])[C:6]([H:16])=[C:7]2[H:17])([H:8])([H:9])[H:10]>>[C:1]([C:2]12[C:3]([H:11])([H:12])[C:4]([H:13])([C:5]1([H:14])[H:15])[C:6][C:7]2([H:16])[H:17])([H:8])([H:9])[H:10]"
C        1.94066573       0.03577030      -0.00112708
C        0.43607127       0.05597426       0.01334688
C       -0.41276622      -0.77483633       1.01412948
C       -1.55007822      -0.47319257      -0.01443742
C       -0.42471453      -0.61674719      -1.08844721
C       -1.64713931       1.01697496       0.10917636
C       -0.29322795       1.39759731       0.13264453
H        2.32823127       0.62097161      -0.83853149
H        2.34921827       0.45475894       0.92171413
H        2.32334087      -0.98316897      -0.09156463
H       -0.52841920      -0.39543694       2.03071307
H       -0.14808723      -1.83428606       1.03117620
H       -2.46934372      -1.05132514      -0.05801934
H       -0.54739012      -0.09088011      -2.03634068
H       -0.16353666      -1.66229637      -1.26627851
H       -1.26305572       2.14264409      -0.67988884
H        0.07023148       2.15747822       0.82173456
