13
Frame=0 idx=008362 GeodesicLength=0.0 rxn_smarts="[C:1](#[C:2][C:3]1=[C:4]([H:9])[C:5]([H:10])([H:11])[O:6][C:7]1([H:12])[H:13])[H:8]>>[C-:1](=[C:2]([C:3]1=[C:4]([H:9])[C:5]([H:10])([H:11])[O+:6]=[C:7]1[H:12])[H:13])[H:8]"
C        2.71813054      -0.79260932       0.65945623
C        1.48731828      -0.64146217       0.55788153
C        0.35317036      -0.15159252      -0.21404718
C       -0.05501221       1.01711575      -0.72861344
C       -1.55477111       1.02532682      -0.67947833
O       -1.90898759      -0.26083047      -0.10630621
C       -0.78776748      -0.90638975       0.18021369
H        3.55345910      -1.11307827       1.24671568
H        0.54843643       1.87201164      -0.98670724
H       -1.97524711       1.80960276      -0.04133466
H       -2.04059016       1.07581192      -1.65792474
H       -0.86425454      -1.97437348       0.32563887
H        0.52611554      -0.95953290       1.44450580
13
Frame=1 idx=008362 GeodesicLength=0.048177357739386036 rxn_smarts="[C:1](#[C:2][C:3]1=[C:4]([H:9])[C:5]([H:10])([H:11])[O:6][C:7]1([H:12])[H:13])[H:8]>>[C-:1](=[C:2]([C:3]1=[C:4]([H:9])[C:5]([H:10])([H:11])[O+:6]=[C:7]1[H:12])[H:13])[H:8]"
C        2.72099544      -0.76472651       0.65031997
C        1.48501260      -0.63926851       0.56722192
C        0.35181576      -0.16424695      -0.21448435
C       -0.05110719       1.00897275      -0.72423616
C       -1.55003811       1.02442248      -0.68025041
O       -1.91244669      -0.25426580      -0.09929916
C       -0.79434350      -0.90702431       0.19443255
H        3.55852069      -1.09835687       1.22823459
H        0.55961397       1.86092419      -0.97534171
H       -1.96784424       1.81559500      -0.04884496
H       -2.03083067       1.07323419      -1.66136388
H       -0.87829612      -1.97844279       0.31184751
H        0.50894807      -0.97681687       1.45176410
13
Frame=2 idx=008362 GeodesicLength=0.09640227200103213 rxn_smarts="[C:1](#[C:2][C:3]1=[C:4]([H:9])[C:5]([H:10])([H:11])[O:6][C:7]1([H:12])[H:13])[H:8]>>[C-:1](=[C:2]([C:3]1=[C:4]([H:9])[C:5]([H:10])([H:11])[O+:6]=[C:7]1[H:12])[H:13])[H:8]"
C        2.72289729      -0.73842788       0.64078404
C        1.48260133      -0.63720825       0.57686247
C        0.35051502      -0.17692561      -0.21452160
C       -0.04700853       1.00059271      -0.71996084
C       -1.54505023       1.02357082      -0.68076094
O       -1.91568181      -0.24751622      -0.09207040
C       -0.80081035      -0.90806544       0.20777840
H        3.56366832      -1.08093708       1.20992574
H        0.57100581       1.84935058      -0.96444095
H       -1.95979472       1.82159789      -0.05594195
H       -2.02105329       1.07081621      -1.66438461
H       -0.89264313      -1.98205505       0.29789187
H        0.49135428      -0.99479270       1.45883876
13
Frame=3 idx=008362 GeodesicLength=0.1446340484139908 rxn_smarts="[C:1](#[C:2][C:3]1=[C:4]([H:9])[C:5]([H:10])([H:11])[O:6][C:7]1([H:12])[H:13])[H:8]>>[C-:1](=[C:2]([C:3]1=[C:4]([H:9])[C:5]([H:10])([H:11])[O+:6]=[C:7]1[H:12])[H:13])[H:8]"
C        2.72410962      -0.71176462       0.63204625
C        1.48028716      -0.63396897       0.58747252
C        0.34948204      -0.18894761      -0.21386253
C       -0.04295853       0.99242038      -0.71570360
C       -1.54007167       1.02248490      -0.68134538
O       -1.91850456      -0.24101759      -0.08498508
C       -0.80674800      -0.90931434       0.22042522
H        3.56847046      -1.06560674       1.19005808
H        0.58201179       1.83803108      -0.95383527
H       -1.95193897       1.82716744      -0.06313908
H       -2.01126899       1.06797202      -1.66746298
H       -0.90633984      -1.98509826       0.28410795
H        0.47346950      -1.01235769       1.46622392
13
Frame=4 idx=008362 GeodesicLength=0.1929070173885602 rxn_smarts="[C:1](#[C:2][C:3]1=[C:4]([H:9])[C:5]([H:10])([H:11])[O:6][C:7]1([H:12])[H:13])[H:8]>>[C-:1](=[C:2]([C:3]1=[C:4]([H:9])[C:5]([H:10])([H:11])[O+:6]=[C:7]1[H:12])[H:13])[H:8]"
C        2.72461616      -0.68543229       0.62364319
C        1.47800403      -0.63013532       0.59868643
C        0.34864040      -0.20059055      -0.21264952
C       -0.03887111       0.98430251      -0.71146659
C       -1.53501356       1.02128049      -0.68189374
O       -1.92102058      -0.23458317      -0.07789176
C       -0.81236483      -0.91080835       0.23243354
H        3.57303940      -1.05055666       1.16934224
H        0.59286388       1.82671962      -0.94352056
H       -1.94399270       1.83250362      -0.07029638
H       -2.00145446       1.06490373      -1.67045512
H       -0.91975793      -1.98766725       0.27037830
H        0.45531130      -1.02993638       1.47368996
13
Frame=5 idx=008362 GeodesicLength=0.24126576116182807 rxn_smarts="[C:1](#[C:2][C:3]1=[C:4]([H:9])[C:5]([H:10])([H:11])[O:6][C:7]1([H:12])[H:13])[H:8]>>[C-:1](=[C:2]([C:3]1=[C:4]([H:9])[C:5]([H:10])([H:11])[O+:6]=[C:7]1[H:12])[H:13])[H:8]"
C        2.72438347      -0.66093124       0.61428872
C        1.47567801      -0.62698092       0.60953496
C        0.34779989      -0.21248217      -0.21133691
C       -0.03458556       0.97585634      -0.70740446
C       -1.52968669       1.02021597      -0.68208336
O       -1.92338966      -0.22781751      -0.07040571
C       -0.81802684      -0.91266638       0.24378982
H        3.57748419      -1.03185997       1.14997001
H        0.60402068       1.81480730      -0.93368940
H       -1.93521710       1.83800927      -0.07691840
H       -1.99171295       1.06212986      -1.67288926
H       -0.93371811      -1.98988226       0.25650844
H        0.43697067      -1.04839828       1.48063554
13
Frame=6 idx=008362 GeodesicLength=0.28967051997954346 rxn_smarts="[C:1](#[C:2][C:3]1=[C:4]([H:9])[C:5]([H:10])([H:11])[O:6][C:7]1([H:12])[H:13])[H:8]>>[C-:1](=[C:2]([C:3]1=[C:4]([H:9])[C:5]([H:10])([H:11])[O+:6]=[C:7]1[H:12])[H:13])[H:8]"
C        2.72359594      -0.63624261       0.60553387
C        1.47345856      -0.62312719       0.62089202
C        0.34718616      -0.22390187      -0.20950546
C       -0.03032356       0.96756209      -0.70333205
C       -1.52434810       1.01898717      -0.68229400
O       -1.92543795      -0.22119255      -0.06297585
C       -0.82332337      -0.91469554       0.25464965
H        3.58153978      -1.01442806       1.12958955
H        0.61490469       1.80306882      -0.92407839
H       -1.92653376       1.84320830      -0.08359486
H       -1.98195696       1.05903093      -1.67532488
H       -0.94722767      -1.99164195       0.24275597
H        0.41846623      -1.06662754       1.48768443
13
Frame=7 idx=008362 GeodesicLength=0.33816333917823693 rxn_smarts="[C:1](#[C:2][C:3]1=[C:4]([H:9])[C:5]([H:10])([H:11])[O:6][C:7]1([H:12])[H:13])[H:8]>>[C-:1](=[C:2]([C:3]1=[C:4]([H:9])[C:5]([H:10])([H:11])[O+:6]=[C:7]1[H:12])[H:13])[H:8]"
C        2.72224568      -0.61212416       0.59668298
C        1.47131270      -0.61938815       0.63212818
C        0.34667701      -0.23525477      -0.20745453
C       -0.02598653       0.95916374      -0.69937272
C       -1.51888201       1.01775282      -0.68232603
O       -1.92726368      -0.21445102      -0.05533660
C       -0.82848420      -0.91696701       0.26501720
H        3.58527039      -0.99593746       1.10951909
H        0.62580649       1.79110379      -0.91483188
H       -1.91746769       1.84836290      -0.09002607
H       -1.97227272       1.05591708      -1.67746362
H       -0.96080902      -1.99301960       0.22899674
H        0.39985360      -1.08515816       1.49446726
13
Frame=8 idx=008362 GeodesicLength=0.3867838095872841 rxn_smarts="[C:1](#[C:2][C:3]1=[C:4]([H:9])[C:5]([H:10])([H:11])[O:6][C:7]1([H:12])[H:13])[H:8]>>[C-:1](=[C:2]([C:3]1=[C:4]([H:9])[C:5]([H:10])([H:11])[O+:6]=[C:7]1[H:12])[H:13])[H:8]"
C        2.72038208      -0.58794646       0.58818318
C        1.46925873      -0.61562625       0.64336663
C        0.34629338      -0.24645540      -0.20510008
C       -0.02159810       0.95072500      -0.69546925
C       -1.51332355       1.01645551      -0.68227526
O       -1.92886317      -0.20763447      -0.04752545
C       -0.83348933      -0.91943405       0.27498413
H        3.58870365      -0.97730044       1.08912645
H        0.63666803       1.77903949      -0.90578470
H       -1.90817772       1.85342969      -0.09640521
H       -1.96260094       1.05262136      -1.67945345
H       -0.97437076      -1.99400232       0.21525956
H        0.38111770      -1.10387167       1.50109345
13
Frame=9 idx=008362 GeodesicLength=0.43551766343357584 rxn_smarts="[C:1](#[C:2][C:3]1=[C:4]([H:9])[C:5]([H:10])([H:11])[O:6][C:7]1([H:12])[H:13])[H:8]>>[C-:1](=[C:2]([C:3]1=[C:4]([H:9])[C:5]([H:10])([H:11])[O+:6]=[C:7]1[H:12])[H:13])[H:8]"
C        2.71800638      -0.56435202       0.57942933
C        1.46727175      -0.61231354       0.65421515
C        0.34594308      -0.25774775      -0.20263938
C       -0.01711696       0.94208654      -0.69171568
C       -1.50760288       1.01519998      -0.68199987
O       -1.93026486      -0.20056897      -0.03934954
C       -0.83846092      -0.92213178       0.28455357
H        3.59187507      -0.95696855       1.06944983
H        0.64764281       1.76660427      -0.89710488
H       -1.89834669       1.85856753      -0.10252620
H       -1.95302335       1.04934855      -1.68107615
H       -0.98822450      -1.99460398       0.20145610
H        0.36230108      -1.12312028       1.50730772
13
Frame=10 idx=008362 GeodesicLength=0.48439325717338616 rxn_smarts="[C:1](#[C:2][C:3]1=[C:4]([H:9])[C:5]([H:10])([H:11])[O:6][C:7]1([H:12])[H:13])[H:8]>>[C-:1](=[C:2]([C:3]1=[C:4]([H:9])[C:5]([H:10])([H:11])[O+:6]=[C:7]1[H:12])[H:13])[H:8]"
C        2.71516721      -0.54020148       0.57145942
C        1.46541694      -0.60886509       0.66510872
C        0.34575218      -0.26882160      -0.19986559
C       -0.01261622       0.93346480      -0.68799185
C       -1.50182745       1.01384024      -0.68168834
O       -1.93141652      -0.19351169      -0.03109961
C       -0.84323640      -0.92499345       0.29378009
H        3.59470113      -0.93729610       1.04900506
H        0.65850533       1.75416124      -0.88860127
H       -1.88841537       1.86353853      -0.10865410
H       -1.94345150       1.04584249      -1.68261902
H       -1.00191116      -1.99482607       0.18769847
H        0.34333182      -1.14233182       1.51346801
13
Frame=11 idx=008362 GeodesicLength=0.5334332363302302 rxn_smarts="[C:1](#[C:2][C:3]1=[C:4]([H:9])[C:5]([H:10])([H:11])[O:6][C:7]1([H:12])[H:13])[H:8]>>[C-:1](=[C:2]([C:3]1=[C:4]([H:9])[C:5]([H:10])([H:11])[O+:6]=[C:7]1[H:12])[H:13])[H:8]"
C        2.71187712      -0.51613380       0.56364810
C        1.46368109      -0.60577180       0.67565436
C        0.34562567      -0.27993708      -0.19697633
C       -0.00804124       0.92468395      -0.68440460
C       -1.49592471       1.01248367      -0.68119848
O       -1.93236180      -0.18626628      -0.02254618
C       -0.84795835      -0.92805863       0.30266525
H        3.59724396      -0.91665415       1.02884842
H        0.66944127       1.74141913      -0.88044341
H       -1.87805001       1.86852526      -0.11458766
H       -1.93397558       1.04228914      -1.68386704
H       -1.01579642      -1.99467848       0.17389064
H        0.32423899      -1.16190092       1.51931693
13
Frame=12 idx=008362 GeodesicLength=0.5826576823745142 rxn_smarts="[C:1](#[C:2][C:3]1=[C:4]([H:9])[C:5]([H:10])([H:11])[O:6][C:7]1([H:12])[H:13])[H:8]>>[C-:1](=[C:2]([C:3]1=[C:4]([H:9])[C:5]([H:10])([H:11])[O+:6]=[C:7]1[H:12])[H:13])[H:8]"
C        2.70812976      -0.49231685       0.55577109
C        1.46206574      -0.60327491       0.68565706
C        0.34551212      -0.29122921      -0.19407308
C       -0.00337233       0.91564217      -0.68102661
C       -1.48985825       1.01117837      -0.68046280
O       -1.93310336      -0.17872879      -0.01356127
C       -0.85269245      -0.93134353       0.31122040
H        3.59954430      -0.89435096       1.00944748
H        0.68053492       1.72821333      -0.87273019
H       -1.86706989       1.87361659      -0.12024068
H       -1.92465290       1.03877053      -1.68471014
H       -1.03006150      -1.99415242       0.15998085
H        0.30502384      -1.18202434       1.52472790
13
Frame=13 idx=008362 GeodesicLength=0.6320556498481948 rxn_smarts="[C:1](#[C:2][C:3]1=[C:4]([H:9])[C:5]([H:10])([H:11])[O:6][C:7]1([H:12])[H:13])[H:8]>>[C-:1](=[C:2]([C:3]1=[C:4]([H:9])[C:5]([H:10])([H:11])[O+:6]=[C:7]1[H:12])[H:13])[H:8]"
C        2.70397623      -0.46845135       0.54818153
C        1.46061106      -0.60098183       0.69539282
C        0.34548733      -0.30248693      -0.19102049
C        0.00134092       0.90650434      -0.67774716
C       -1.48369852       1.00984236      -0.67959179
O       -1.93360679      -0.17107036      -0.00435109
C       -0.85733520      -0.93479729       0.31948094
H        3.60154100      -0.87157975       0.99009971
H        0.69163254       1.71480740      -0.86531501
H       -1.85577907       1.87865250      -0.12576267
H       -1.91541512       1.03514916      -1.68532673
H       -1.04439590      -1.99324037       0.14603925
H        0.28564151      -1.20234788       1.52992071
13
Frame=14 idx=008362 GeodesicLength=0.6815946170329329 rxn_smarts="[C:1](#[C:2][C:3]1=[C:4]([H:9])[C:5]([H:10])([H:11])[O:6][C:7]1([H:12])[H:13])[H:8]>>[C-:1](=[C:2]([C:3]1=[C:4]([H:9])[C:5]([H:10])([H:11])[O+:6]=[C:7]1[H:12])[H:13])[H:8]"
C        2.69946374      -0.44463007       0.54086944
C        1.45933772      -0.59869937       0.70496211
C        0.34558283      -0.31360514      -0.18777066
C        0.00606634       0.89736364      -0.67450509
C       -1.47748549       1.00844462      -0.67862967
O       -1.93385625      -0.16338984       0.00495611
C       -0.86183451      -0.93838968       0.32746532
H        3.60320502      -0.84877162       0.97064951
H        0.70264598       1.70134571      -0.85812858
H       -1.84433679       1.88354537      -0.13119518
H       -1.90623479       1.03139541      -1.68579017
H       -1.05862313      -1.99194447       0.13211466
H        0.26606934      -1.22266453       1.53500219
13
Frame=15 idx=008362 GeodesicLength=0.731243068702531 rxn_smarts="[C:1](#[C:2][C:3]1=[C:4]([H:9])[C:5]([H:10])([H:11])[O:6][C:7]1([H:12])[H:13])[H:8]>>[C-:1](=[C:2]([C:3]1=[C:4]([H:9])[C:5]([H:10])([H:11])[O+:6]=[C:7]1[H:12])[H:13])[H:8]"
C        2.69465111      -0.42100225       0.53376204
C        1.45826844      -0.59628390       0.71442941
C        0.34582266      -0.32449853      -0.18428706
C        0.01077899       0.88830485      -0.67123528
C       -1.47125453       1.00696140      -0.67761602
O       -1.93385071      -0.15577628       0.01423851
C       -0.86615370      -0.94209372       0.33519244
H        3.60451387      -0.82623224       0.95100406
H        0.71350370       1.68796417      -0.85107713
H       -1.83289013       1.88822269      -0.13657313
H       -1.89707853       1.02749122      -1.68616972
H       -1.07259374      -1.99027603       0.11825821
H        0.24628259      -1.24278139       1.54007365
13
Frame=16 idx=008362 GeodesicLength=0.7809711259812706 rxn_smarts="[C:1](#[C:2][C:3]1=[C:4]([H:9])[C:5]([H:10])([H:11])[O:6][C:7]1([H:12])[H:13])[H:8]>>[C-:1](=[C:2]([C:3]1=[C:4]([H:9])[C:5]([H:10])([H:11])[O+:6]=[C:7]1[H:12])[H:13])[H:8]"
C        2.68960859      -0.39783098       0.52663802
C        1.45743101      -0.59369196       0.72376000
C        0.34620987      -0.33513218      -0.18058159
C        0.01546031       0.87937823      -0.66790148
C       -1.46503164       1.00539192      -0.67655863
O       -1.93360207      -0.14828325       0.02341983
C       -0.87028076      -0.94589188       0.34267370
H        3.60546124      -0.80397044       0.93133457
H        0.72416470       1.67473999      -0.84411583
H       -1.82152146       1.89264923      -0.14187970
H       -1.88794155       1.02346320      -1.68648560
H       -1.08622767      -1.98825276       0.10451071
H        0.22626942      -1.26256913       1.54518600
