19
Frame=0 idx=008016 GeodesicLength=0.0 rxn_smarts="[C:1]([O:2][C@@:3]([C:4]([H:12])([H:13])[H:14])([C:5]([C:6]([O:7][H:19])([H:17])[H:18])([H:15])[H:16])[H:11])([H:8])([H:9])[H:10]>>[C:1]([O:2][H:19])([H:8])([H:9])[H:10].[C:3]([C:4]([H:12])([H:13])[H:14])(=[C:5]([H:15])[H:16])[H:11].[C:6](=[O:7])([H:17])[H:18]"
C       -1.64136418      -1.11088772       1.14303201
O       -0.76196482      -0.01275092       1.15921623
C       -0.24750521       0.84722384      -0.74249475
C        0.12069303       2.10791465      -0.05894232
C        0.74286006       0.07336690      -1.36726064
C        1.35679765      -1.20265328      -0.22038045
O        1.55322506      -0.73565760       0.96106592
H       -1.14484660      -2.02313090       1.48717545
H       -2.03283663      -1.29571180       0.13369444
H       -2.48907679      -0.90875835       1.80254802
H       -1.28981587       0.67882296      -0.98491626
H        0.98848439       1.91692276       0.58028520
H       -0.69206413       2.51539197       0.53530103
H        0.42807425       2.83950594      -0.81296788
H        1.67786985       0.60497654      -1.51987943
H        0.41802804      -0.51543806      -2.21970094
H        0.54008092      -1.93214658      -0.35713789
H        2.24474681      -1.50338974      -0.79435373
H        0.22861426      -0.34360070       1.27571603
19
Frame=1 idx=008016 GeodesicLength=0.10966813048626402 rxn_smarts="[C:1]([O:2][C@@:3]([C:4]([H:12])([H:13])[H:14])([C:5]([C:6]([O:7][H:19])([H:17])[H:18])([H:15])[H:16])[H:11])([H:8])([H:9])[H:10]>>[C:1]([O:2][H:19])([H:8])([H:9])[H:10].[C:3]([C:4]([H:12])([H:13])[H:14])(=[C:5]([H:15])[H:16])[H:11].[C:6](=[O:7])([H:17])[H:18]"
C       -1.65342451      -1.10259212       1.16774294
O       -0.74569822      -0.02847321       1.16404767
C       -0.24318598       0.84217702      -0.73819507
C        0.10531212       2.11317470      -0.06106214
C        0.75626640       0.08847403      -1.37529664
C        1.37009138      -1.21954742      -0.24229610
O        1.56540140      -0.77910341       0.95092791
H       -1.19028470      -2.01049763       1.56636110
H       -2.02103089      -1.32472313       0.15727713
H       -2.51876653      -0.85796483       1.78888828
H       -1.28187355       0.66731880      -0.99419997
H        0.95610248       1.93311088       0.60341559
H       -0.72199508       2.52389098       0.51108796
H        0.42843131       2.84030749      -0.81238583
H        1.69106931       0.62507062      -1.51297837
H        0.43881004      -0.47627097      -2.24682688
H        0.55136033      -1.94473900      -0.39006321
H        2.25924284      -1.51329407      -0.81765549
H        0.25417186      -0.37631871       1.28121112
19
Frame=2 idx=008016 GeodesicLength=0.21913392656060868 rxn_smarts="[C:1]([O:2][C@@:3]([C:4]([H:12])([H:13])[H:14])([C:5]([C:6]([O:7][H:19])([H:17])[H:18])([H:15])[H:16])[H:11])([H:8])([H:9])[H:10]>>[C:1]([O:2][H:19])([H:8])([H:9])[H:10].[C:3]([C:4]([H:12])([H:13])[H:14])(=[C:5]([H:15])[H:16])[H:11].[C:6](=[O:7])([H:17])[H:18]"
C       -1.66521250      -1.09281491       1.19316738
O       -0.72838606      -0.04510738       1.16916306
C       -0.23868696       0.83642016      -0.73358401
C        0.08873004       2.11768020      -0.06278768
C        0.77023736       0.10414476      -1.38297001
C        1.38367042      -1.23713432      -0.26578238
O        1.57769219      -0.82508799       0.93917035
H       -1.23871254      -1.99126176       1.65046512
H       -2.00735785      -1.35644706       0.18403316
H       -2.54717661      -0.80395190       1.77044319
H       -1.27332445       0.65457333      -1.00366130
H        0.92111444       1.94903334       0.62724887
H       -0.75350836       2.53088573       0.48595995
H        0.42788062       2.84088084      -0.81040558
H        1.70474504       0.64571667      -1.50444218
H        0.46072718      -0.43479687      -2.27373214
H        0.56300788      -1.95767425      -0.42563422
H        2.27409876      -1.52337491      -0.84259252
H        0.28046141      -0.41168367       1.28594092
19
Frame=3 idx=008016 GeodesicLength=0.3281506245816751 rxn_smarts="[C:1]([O:2][C@@:3]([C:4]([H:12])([H:13])[H:14])([C:5]([C:6]([O:7][H:19])([H:17])[H:18])([H:15])[H:16])[H:11])([H:8])([H:9])[H:10]>>[C:1]([O:2][H:19])([H:8])([H:9])[H:10].[C:3]([C:4]([H:12])([H:13])[H:14])(=[C:5]([H:15])[H:16])[H:11].[C:6](=[O:7])([H:17])[H:18]"
C       -1.67658934      -1.08138201       1.21921031
O       -0.71003740      -0.06261166       1.17462944
C       -0.23400957       0.82988293      -0.72862948
C        0.07085683       2.12134143      -0.06415151
C        0.78478682       0.12033639      -1.39011447
C        1.39743649      -1.25544203      -0.29078907
O        1.58991288      -0.87375481       0.92575795
H       -1.28983498      -1.96438031       1.73832495
H       -1.99225194      -1.39049260       0.21464746
H       -2.57347787      -0.74750262       1.74715570
H       -1.26411003       0.64051611      -1.01333325
H        0.88331461       1.96461110       0.65171098
H       -0.78664104       2.53623140       0.45981128
H        0.42632419       2.84116010      -0.80701311
H        1.71890753       0.66678122      -1.49399025
H        0.48385139      -0.39095592      -2.30014728
H        0.57494106      -1.97090154      -0.46391950
H        2.28925463      -1.53364559      -0.86903951
H        0.30736573      -0.44979160       1.28987937
19
Frame=4 idx=008016 GeodesicLength=0.4365507305123916 rxn_smarts="[C:1]([O:2][C@@:3]([C:4]([H:12])([H:13])[H:14])([C:5]([C:6]([O:7][H:19])([H:17])[H:18])([H:15])[H:16])[H:11])([H:8])([H:9])[H:10]>>[C:1]([O:2][H:19])([H:8])([H:9])[H:10].[C:3]([C:4]([H:12])([H:13])[H:14])(=[C:5]([H:15])[H:16])[H:11].[C:6](=[O:7])([H:17])[H:18]"
C       -1.68737942      -1.06813798       1.24576423
O       -0.69066471      -0.08091756       1.18051716
C       -0.22916263       0.82252282      -0.72330043
C        0.05160488       2.12409252      -0.06519037
C        0.79991841       0.13700110      -1.39655054
C        1.41126248      -1.27450860      -0.31725893
O        1.60185744      -0.92524534       0.91064683
H       -1.34318150      -1.92891210       1.82867547
H       -1.97610282      -1.42638981       0.24977488
H       -2.59692257      -0.68949945       1.71903024
H       -1.25417842       0.62510779      -1.02324554
H        0.84249519       1.97978110       0.67671522
H       -0.82141894       2.53981233       0.43253172
H        0.42367032       2.84110140      -0.80219350
H        1.73356025       0.68810572      -1.48132489
H        0.50823953      -0.34470052      -2.32577449
H        0.58703075      -1.98435740      -0.50495564
H        2.30461782      -1.54415654      -0.89686493
H        0.33475394      -0.49069947       1.29300355
19
Frame=5 idx=008016 GeodesicLength=0.5443330942733263 rxn_smarts="[C:1]([O:2][C@@:3]([C:4]([H:12])([H:13])[H:14])([C:5]([C:6]([O:7][H:19])([H:17])[H:18])([H:15])[H:16])[H:11])([H:8])([H:9])[H:10]>>[C:1]([O:2][H:19])([H:8])([H:9])[H:10].[C:3]([C:4]([H:12])([H:13])[H:14])(=[C:5]([H:15])[H:16])[H:11].[C:6](=[O:7])([H:17])[H:18]"
C       -1.69741665      -1.05292080       1.27266987
O       -0.67024454      -0.09994816       1.18689360
C       -0.22413995       0.81431266      -0.71759034
C        0.03087340       2.12591568      -0.06598559
C        0.81566482       0.15408748      -1.40208474
C        1.42503810      -1.29437457      -0.34507120
O        1.61334082      -0.97965256       0.89383613
H       -1.39802974      -1.88442243       1.91974863
H       -1.95973870      -1.46348085       0.28986550
H       -2.61666687      -0.63072651       1.68670116
H       -1.24346310       0.60831008      -1.03349269
H        0.79836983       1.99452820       0.70221110
H       -0.85791179       2.54158061       0.40385972
H        0.41984767       2.84069974      -0.79596823
H        1.74872913       0.70952781      -1.46611244
H        0.53395045      -0.29603311      -2.35026786
H        0.59914754      -1.99797054      -0.54868339
H        2.32010585      -1.55498334      -0.92586023
H        0.36254374      -0.53444937       1.29533099
19
Frame=6 idx=008016 GeodesicLength=0.6513828321385512 rxn_smarts="[C:1]([O:2][C@@:3]([C:4]([H:12])([H:13])[H:14])([C:5]([C:6]([O:7][H:19])([H:17])[H:18])([H:15])[H:16])[H:11])([H:8])([H:9])[H:10]>>[C:1]([O:2][H:19])([H:8])([H:9])[H:10].[C:3]([C:4]([H:12])([H:13])[H:14])(=[C:5]([H:15])[H:16])[H:11].[C:6](=[O:7])([H:17])[H:18]"
C       -1.70644935      -1.03566797       1.29980448
O       -0.64884051      -0.11958413       1.19380277
C       -0.21896425       0.80528673      -0.71148483
C        0.00862656       2.12677124      -0.06658545
C        0.83199362       0.17155037      -1.40652611
C        1.43855436      -1.31504875      -0.37415961
O        1.62405129      -1.03706824       0.87525306
H       -1.45352645      -1.83025993       2.01037928
H       -1.94332326      -1.50118943       0.33540930
H       -2.63231467      -0.57226834       1.65022243
H       -1.23191831       0.59017957      -1.04407656
H        0.75076307       2.00876686       0.72804652
H       -0.89603636       2.54146148       0.37370198
H        0.41484255       2.83993310      -0.78830422
H        1.76437854       0.73084056      -1.44806778
H        0.56101216      -0.24492530      -2.37327496
H        0.61107609      -2.01161777      -0.59508046
H        2.33554016      -1.56618918      -0.95587863
H        0.39053472      -0.58097088       1.29681876
19
Frame=7 idx=008016 GeodesicLength=0.7576006563173864 rxn_smarts="[C:1]([O:2][C@@:3]([C:4]([H:12])([H:13])[H:14])([C:5]([C:6]([O:7][H:19])([H:17])[H:18])([H:15])[H:16])[H:11])([H:8])([H:9])[H:10]>>[C:1]([O:2][H:19])([H:8])([H:9])[H:10].[C:3]([C:4]([H:12])([H:13])[H:14])(=[C:5]([H:15])[H:16])[H:11].[C:6](=[O:7])([H:17])[H:18]"
C       -1.71421644      -1.01629571       1.32702170
O       -0.62647560      -0.13970192       1.20128689
C       -0.21363762       0.79547411      -0.70498240
C       -0.01518215       2.12660105      -0.06706239
C        0.84889830       0.18935017      -1.40967885
C        1.45159453      -1.33650455      -0.40444012
O        1.63364632      -1.09752515       0.85482387
H       -1.50872954      -1.76612432       2.09919795
H       -1.92715636      -1.53879645       0.38675383
H       -2.64344836      -0.51509106       1.61002379
H       -1.21944770       0.57075291      -1.05503466
H        0.69940985       2.02238754       0.75409270
H       -0.93572222       2.53936661       0.34186398
H        0.40865294       2.83874119      -0.77917322
H        1.78046625       0.75183194      -1.42688137
H        0.58948583      -0.19136239      -2.39441563
H        0.62260308      -2.02511265      -0.64408050
H        2.35071845      -1.57780660      -0.98675129
H        0.41854044      -0.63018472       1.29743572
19
Frame=8 idx=008016 GeodesicLength=0.8630818781777302 rxn_smarts="[C:1]([O:2][C@@:3]([C:4]([H:12])([H:13])[H:14])([C:5]([C:6]([O:7][H:19])([H:17])[H:18])([H:15])[H:16])[H:11])([H:8])([H:9])[H:10]>>[C:1]([O:2][H:19])([H:8])([H:9])[H:10].[C:3]([C:4]([H:12])([H:13])[H:14])(=[C:5]([H:15])[H:16])[H:11].[C:6](=[O:7])([H:17])[H:18]"
C       -1.72047848      -0.99476658       1.35419152
O       -0.60315060      -0.16019147       1.20938509
C       -0.20817809       0.78492963      -0.69809030
C       -0.04059016       2.12537664      -0.06749397
C        0.86637449       0.20746097      -1.41135577
C        1.46397169      -1.35871462      -0.43584656
O        1.64180580      -1.16104577       0.83244351
H       -1.56271638      -1.69190023       2.18498970
H       -1.91148411      -1.57560419       0.44420106
H       -2.64982324      -0.46007152       1.56654266
H       -1.20598694       0.55008375      -1.06640393
H        0.64405375       2.03528058       0.78019732
H       -0.97687767       2.53524675       0.30814086
H        0.40128936       2.83711223      -0.76852928
H        1.79694953       0.77230989      -1.40226127
H        0.61943090      -0.13533326      -2.41330406
H        0.63353638      -2.03827623      -0.69561451
H        2.36548183      -1.58986317      -1.01832776
H        0.44639195      -0.68203337       1.29713568
19
Frame=9 idx=008016 GeodesicLength=0.9680655123563316 rxn_smarts="[C:1]([O:2][C@@:3]([C:4]([H:12])([H:13])[H:14])([C:5]([C:6]([O:7][H:19])([H:17])[H:18])([H:15])[H:16])[H:11])([H:8])([H:9])[H:10]>>[C:1]([O:2][H:19])([H:8])([H:9])[H:10].[C:3]([C:4]([H:12])([H:13])[H:14])(=[C:5]([H:15])[H:16])[H:11].[C:6](=[O:7])([H:17])[H:18]"
C       -1.72503771      -0.97108114       1.38109982
O       -0.57887282      -0.18094651       1.21811942
C       -0.20264342       0.77372941      -0.69083245
C       -0.06758865       2.12312767      -0.06797659
C        0.88436471       0.22581370      -1.41139120
C        1.47560495      -1.38160522      -0.46821763
O        1.64828979      -1.22747331       0.80807917
H       -1.61443953      -1.60814301       2.26622461
H       -1.89694557      -1.61076998       0.50773713
H       -2.65123002      -0.40783954       1.52071396
H       -1.19154810       0.52829827      -1.07823964
H        0.58449242       2.04733336       0.80617765
H       -1.01933669       2.52918214       0.27229302
H        0.39280875       2.83509577      -0.75633371
H        1.81372155       0.79207886      -1.37407341
H        0.65076655      -0.07704856      -2.42950330
H        0.64383265      -2.05099187      -0.74946261
H        2.37980961      -1.60231566      -1.05032944
H        0.47395154      -0.73644437       1.29591523
19
Frame=10 idx=008016 GeodesicLength=1.0726353476870034 rxn_smarts="[C:1]([O:2][C@@:3]([C:4]([H:12])([H:13])[H:14])([C:5]([C:6]([O:7][H:19])([H:17])[H:18])([H:15])[H:16])[H:11])([H:8])([H:9])[H:10]>>[C:1]([O:2][H:19])([H:8])([H:9])[H:10].[C:3]([C:4]([H:12])([H:13])[H:14])(=[C:5]([H:15])[H:16])[H:11].[C:6](=[O:7])([H:17])[H:18]"
C       -1.72764013      -0.94521497       1.40768241
O       -0.55361227      -0.20188449       1.22749917
C       -0.19706194       0.76191394      -0.68323308
C       -0.09620936       2.11974515      -0.06854817
C        0.90285559       0.24438186      -1.40963107
C        1.48633034      -1.40508227      -0.50155515
O        1.65271843      -1.29676123       0.78154663
H       -1.66302333      -1.51476175       2.34222290
H       -1.88345281      -1.64353217       0.57751136
H       -2.64777311      -0.35910939       1.47283842
H       -1.17603955       0.50542612      -1.09056759
H        0.52039459       2.05828000       0.83188163
H       -1.06293928       2.52105356       0.23413927
H        0.38324820       2.83259834      -0.74240572
H        1.83066555       0.81093785      -1.34206328
H        0.68357715      -0.01649573      -2.44266712
H        0.65338860      -2.06300642      -0.80565121
H        2.39357993      -1.61509862      -1.08265228
H        0.50099339      -0.79338979       1.29365289
19
Frame=11 idx=008016 GeodesicLength=1.1770305230720695 rxn_smarts="[C:1]([O:2][C@@:3]([C:4]([H:12])([H:13])[H:14])([C:5]([C:6]([O:7][H:19])([H:17])[H:18])([H:15])[H:16])[H:11])([H:8])([H:9])[H:10]>>[C:1]([O:2][H:19])([H:8])([H:9])[H:10].[C:3]([C:4]([H:12])([H:13])[H:14])(=[C:5]([H:15])[H:16])[H:11].[C:6](=[O:7])([H:17])[H:18]"
C       -1.72812429      -0.91718330       1.43377121
O       -0.52737975      -0.22293887       1.23751671
C       -0.19152095       0.74953926      -0.67533272
C       -0.12640373       2.11518066      -0.06927586
C        0.92174766       0.26308390      -1.40596970
C        1.49615268      -1.42897268      -0.53571031
O        1.65484101      -1.36859161       0.75278081
H       -1.70750979      -1.41255138       2.41179511
H       -1.87149513      -1.67295188       0.65333143
H       -2.63952429      -0.31424764       1.42389746
H       -1.15948800       0.48161636      -1.10341926
H        0.45155093       2.06781273       0.85707942
H       -1.10739680       2.51091991       0.19348216
H        0.37271497       2.82959002      -0.72659626
H        1.84757791       0.82870327      -1.30627040
H        0.71771839       0.04601224      -2.45239816
H        0.66234370      -2.07416112      -0.86397838
H        2.40689706      -1.62801137      -1.11498623
H        0.52729843      -0.85284848       1.29028298
19
Frame=12 idx=008016 GeodesicLength=1.2814878301125168 rxn_smarts="[C:1]([O:2][C@@:3]([C:4]([H:12])([H:13])[H:14])([C:5]([C:6]([O:7][H:19])([H:17])[H:18])([H:15])[H:16])[H:11])([H:8])([H:9])[H:10]>>[C:1]([O:2][H:19])([H:8])([H:9])[H:10].[C:3]([C:4]([H:12])([H:13])[H:14])(=[C:5]([H:15])[H:16])[H:11].[C:6](=[O:7])([H:17])[H:18]"
C       -1.72628609      -0.88696191       1.45927488
O       -0.50012059      -0.24408816       1.24817110
C       -0.18611549       0.73662195      -0.66715773
C       -0.15814338       2.10929777      -0.07015251
C        0.94092842       0.28186677      -1.40030998
C        1.50503819      -1.45309946      -0.57064163
O        1.65434622      -1.44272939       0.72161563
H       -1.74718003      -1.30164880       2.47435464
H       -1.86095351      -1.69827090       0.73523965
H       -2.62669371      -0.27366510       1.37416577
H       -1.14190751       0.45695472      -1.11680778
H        0.37770307       2.07549976       0.88157816
H       -1.15239701       2.49871993       0.15020650
H        0.36128027       2.82596423      -0.70859454
H        1.86421086       0.84521308      -1.26666849
H        0.75306825       0.11029831      -2.45836896
H        0.67082516      -2.08423262      -0.92444176
H        2.41981700      -1.64083199      -1.14711290
H        0.55257989      -0.91490817       1.28564996
19
Frame=13 idx=008016 GeodesicLength=1.386356584530493 rxn_smarts="[C:1]([O:2][C@@:3]([C:4]([H:12])([H:13])[H:14])([C:5]([C:6]([O:7][H:19])([H:17])[H:18])([H:15])[H:16])[H:11])([H:8])([H:9])[H:10]>>[C:1]([O:2][H:19])([H:8])([H:9])[H:10].[C:3]([C:4]([H:12])([H:13])[H:14])(=[C:5]([H:15])[H:16])[H:11].[C:6](=[O:7])([H:17])[H:18]"
C       -1.72198495      -0.85451974       1.48408071
O       -0.47182601      -0.26532633       1.25943109
C       -0.18097205       0.72315838      -0.65876160
C       -0.19138953       2.10196590      -0.07117606
C        0.96025625       0.30063912      -1.39261081
C        1.51309482      -1.47724836      -0.60622908
O        1.65100506      -1.51877136       0.68795152
H       -1.78122420      -1.18278240       2.52905703
H       -1.85211456      -1.71852082       0.82301678
H       -2.60949240      -0.23740593       1.32450325
H       -1.12335206       0.43156928      -1.13076395
H        0.29861157       2.08082869       0.90512838
H       -1.19757908       2.48450249       0.10420566
H        0.34901055       2.82161302      -0.68807646
H        1.88028079       0.86032813      -1.22343558
H        0.78942205       0.17599063      -2.46029151
H        0.67917861      -2.09306416      -0.98694030
H        2.43258901      -1.65327107      -1.17867494
H        0.57648611      -0.97968545       1.27958588
19
Frame=14 idx=008016 GeodesicLength=1.4920636957222322 rxn_smarts="[C:1]([O:2][C@@:3]([C:4]([H:12])([H:13])[H:14])([C:5]([C:6]([O:7][H:19])([H:17])[H:18])([H:15])[H:16])[H:11])([H:8])([H:9])[H:10]>>[C:1]([O:2][H:19])([H:8])([H:9])[H:10].[C:3]([C:4]([H:12])([H:13])[H:14])(=[C:5]([H:15])[H:16])[H:11].[C:6](=[O:7])([H:17])[H:18]"
C       -1.71503545      -0.81976960       1.50803464
O       -0.44242263      -0.28669723       1.27129240
C       -0.17626181       0.70910694      -0.65015608
C       -0.22606992       2.09298007      -0.07223606
C        0.97948521       0.31930137      -1.38285857
C        1.52043923      -1.50117766      -0.64235778
O        1.64462872      -1.59627687       0.65167298
H       -1.80905471      -1.05613282       2.57524653
H       -1.84478492      -1.73284925       0.91665236
H       -2.58817061      -0.20560926       1.27508309
H       -1.10395933       0.40563001      -1.14526586
H        0.21412050       2.08312654       0.92751318
H       -1.24248676       2.46826394       0.05554623
H        0.33595361       2.81634877      -0.66453759
H        1.89540346       0.87393102      -1.17685499
H        0.82636774       0.24269482      -2.45793109
H        0.68780673      -2.10047107      -1.05142055
H        2.44545929      -1.66499285      -1.20928492
H        0.59858164      -1.04740689       1.27186207
19
Frame=15 idx=008016 GeodesicLength=1.5992576091739457 rxn_smarts="[C:1]([O:2][C@@:3]([C:4]([H:12])([H:13])[H:14])([C:5]([C:6]([O:7][H:19])([H:17])[H:18])([H:15])[H:16])[H:11])([H:8])([H:9])[H:10]>>[C:1]([O:2][H:19])([H:8])([H:9])[H:10].[C:3]([C:4]([H:12])([H:13])[H:14])(=[C:5]([H:15])[H:16])[H:11].[C:6](=[O:7])([H:17])[H:18]"
C       -1.70527105      -0.78260824       1.53108618
O       -0.41185544      -0.30826011       1.28370919
C       -0.17213849       0.69438846      -0.64142049
C       -0.26220230       2.08214461      -0.07326056
C        0.99846147       0.33778446      -1.37105488
C        1.52723349      -1.52469722      -0.67894060
O        1.63499080      -1.67487294       0.61264636
H       -1.82987797      -0.92212639       2.61230450
H       -1.83903216      -1.74023932       1.01607847
H       -2.56295507      -0.17816586       1.22657101
H       -1.08380853       0.37919491      -1.16039262
H        0.12390662       2.08171112       0.94846805
H       -1.28673705       2.45006766       0.00417921
H        0.32207628       2.80999050      -0.63743286
H        1.90928339       0.88596033      -1.12711521
H        0.86369026       0.31009989      -2.45114056
H        0.69718590      -2.10629916      -1.11793613
H        2.45875715      -1.67572080      -1.23850970
H        0.61829271      -1.11835190       1.26216062
19
Frame=16 idx=008016 GeodesicLength=1.7087630676328331 rxn_smarts="[C:1]([O:2][C@@:3]([C:4]([H:12])([H:13])[H:14])([C:5]([C:6]([O:7][H:19])([H:17])[H:18])([H:15])[H:16])[H:11])([H:8])([H:9])[H:10]>>[C:1]([O:2][H:19])([H:8])([H:9])[H:10].[C:3]([C:4]([H:12])([H:13])[H:14])(=[C:5]([H:15])[H:16])[H:11].[C:6](=[O:7])([H:17])[H:18]"
C       -1.69247523      -0.74288254       1.55295125
O       -0.38003174      -0.33010244       1.29669208
C       -0.16884711       0.67889824      -0.63255678
C       -0.29968347       2.06919986      -0.07398790
C        1.01679921       0.35595196      -1.35727591
C        1.53370698      -1.54754906      -0.71575986
O        1.62201696      -1.75396301       0.57084659
H       -1.84320709      -0.78084068       2.63930016
H       -1.83448780      -1.73969322       1.12134498
H       -2.53407124      -0.15514660       1.17895506
H       -1.06316490       0.35254797      -1.17612217
H        0.02809163       2.07568910       0.96772628
H       -1.32974384       2.42999365      -0.04940482
H        0.30725139       2.80225829      -0.60610449
H        1.92143687       0.89637593      -1.07479636
H        0.90069431       0.37763883      -2.43984476
H        0.70796478      -2.11042454      -1.18635706
H        2.47285466      -1.68509843      -1.26573655
H        0.63489563      -1.19285330       1.25013025
