13
Frame=0 idx=002204 GeodesicLength=0.0 rxn_smarts="[C:1]([C:2](=[O:3])[C@@:4]1([H:10])[C:5]([H:11])([H:12])[N:6]1[H:13])([H:7])([H:8])[H:9]>>[C:1](=[C:2]([O:3][H:7])[C@@:4]1([H:10])[C:5]([H:11])([H:12])[N:6]1[H:13])([H:8])[H:9]"
C        1.94001904      -0.39505953       0.43291224
C        0.68428236       0.14305563       0.07401035
O        0.73239585       1.42427160       0.18557471
C       -0.52266194      -0.52201677      -0.42346529
C       -1.82459256      -0.02023121       0.11030910
N       -1.45985168       0.21820071      -1.26413136
H        1.94233651       1.07661676       0.28493550
H        2.28260662      -1.35042821       0.05169067
H        2.16331536      -0.23236057       1.48676106
H       -0.41707886      -1.57504378      -0.65076709
H       -1.78416742       0.80496034       0.81147644
H       -2.61667170      -0.74142240       0.26999775
H       -1.11993161       1.16945742      -1.36930407
13
Frame=1 idx=002204 GeodesicLength=0.043049900967795075 rxn_smarts="[C:1]([C:2](=[O:3])[C@@:4]1([H:10])[C:5]([H:11])([H:12])[N:6]1[H:13])([H:7])([H:8])[H:9]>>[C:1](=[C:2]([O:3][H:7])[C@@:4]1([H:10])[C:5]([H:11])([H:12])[N:6]1[H:13])([H:8])[H:9]"
C        1.94019119      -0.39404386       0.43217800
C        0.67521723       0.14239119       0.10385093
O        0.72918480       1.42534688       0.19011549
C       -0.52353883      -0.52165575      -0.41648240
C       -1.83103345      -0.02343160       0.10594234
N       -1.45251773       0.22008108      -1.26468115
H        1.95475669       1.07982818       0.26521430
H        2.26207075      -1.35824803       0.05418041
H        2.19424045      -0.22478365       1.47785395
H       -0.41210363      -1.57310676      -0.64958173
H       -1.79891139       0.80081999       0.80900327
H       -2.62443187      -0.74558500       0.25510860
H       -1.11312420       1.17238732      -1.36270201
13
Frame=2 idx=002204 GeodesicLength=0.08601376241870985 rxn_smarts="[C:1]([C:2](=[O:3])[C@@:4]1([H:10])[C:5]([H:11])([H:12])[N:6]1[H:13])([H:7])([H:8])[H:9]>>[C:1](=[C:2]([O:3][H:7])[C@@:4]1([H:10])[C:5]([H:11])([H:12])[N:6]1[H:13])([H:8])[H:9]"
C        1.93953716      -0.39323229       0.43202502
C        0.66671018       0.14218001       0.13220456
O        0.72625893       1.42640256       0.19382170
C       -0.52397713      -0.52084194      -0.41013296
C       -1.83677145      -0.02686221       0.10193813
N       -1.44552587       0.22240371      -1.26487211
H        1.96698316       1.08223604       0.24442740
H        2.24135564      -1.36614021       0.05880911
H        2.22284696      -0.21728025       1.46889577
H       -0.40660850      -1.57053351      -0.64950369
H       -1.81268195       0.79610100       0.80716542
H       -2.63100407      -0.75031227       0.24084681
H       -1.10712306       1.17587934      -1.35562516
13
Frame=3 idx=002204 GeodesicLength=0.1288863972521921 rxn_smarts="[C:1]([C:2](=[O:3])[C@@:4]1([H:10])[C:5]([H:11])([H:12])[N:6]1[H:13])([H:7])([H:8])[H:9]>>[C:1](=[C:2]([O:3][H:7])[C@@:4]1([H:10])[C:5]([H:11])([H:12])[N:6]1[H:13])([H:8])[H:9]"
C        1.93816817      -0.39257423       0.43247107
C        0.65883205       0.14235261       0.15875894
O        0.72367953       1.42743403       0.19657346
C       -0.52399466      -0.51962090      -0.40455689
C       -1.84178837      -0.03052301       0.09834502
N       -1.43902093       0.22520556      -1.26472246
H        1.97907538       1.08390574       0.22271798
H        2.22045972      -1.37417540       0.06577912
H        2.24903516      -0.20983581       1.46006129
H       -0.40058629      -1.56735654      -0.65073735
H       -1.82537852       0.79078647       0.80608404
H       -2.63638043      -0.75557331       0.22729271
H       -1.10210082       1.17997479      -1.34806692
13
Frame=4 idx=002204 GeodesicLength=0.17180922321865538 rxn_smarts="[C:1]([C:2](=[O:3])[C@@:4]1([H:10])[C:5]([H:11])([H:12])[N:6]1[H:13])([H:7])([H:8])[H:9]>>[C:1](=[C:2]([O:3][H:7])[C@@:4]1([H:10])[C:5]([H:11])([H:12])[N:6]1[H:13])([H:8])[H:9]"
C        1.93626635      -0.39205156       0.43341133
C        0.65140825       0.14298180       0.18379568
O        0.72139350       1.42850367       0.19853894
C       -0.52370120      -0.51802423      -0.39956547
C       -1.84623898      -0.03438724       0.09507138
N       -1.43292613       0.22839856      -1.26429755
H        1.99106806       1.08475315       0.20030083
H        2.19954126      -1.38220368       0.07458085
H        2.27328729      -0.20256637       1.45138534
H       -0.39415538      -1.56361986      -0.65291170
H       -1.83724203       0.78495425       0.80554116
H       -2.64080109      -0.76129696       0.21431691
H       -1.09789988       1.18455848      -1.34016772
13
Frame=5 idx=002204 GeodesicLength=0.2144913317201786 rxn_smarts="[C:1]([C:2](=[O:3])[C@@:4]1([H:10])[C:5]([H:11])([H:12])[N:6]1[H:13])([H:7])([H:8])[H:9]>>[C:1](=[C:2]([O:3][H:7])[C@@:4]1([H:10])[C:5]([H:11])([H:12])[N:6]1[H:13])([H:8])[H:9]"
C        1.93382184      -0.39159939       0.43487015
C        0.64459842       0.14393978       0.20691543
O        0.71947052       1.42955889       0.19951683
C       -0.52306578      -0.51610721      -0.39532602
C       -1.85002330      -0.03843022       0.09220021
N       -1.42736744       0.23197224      -1.26358271
H        2.00298738       1.08493299       0.17743532
H        2.17858897      -1.39017819       0.08534451
H        2.29514485      -0.19554552       1.44299629
H       -0.38728840      -1.55936762      -0.65624150
H       -1.84804831       0.77864183       0.80567810
H       -2.64415124      -0.76741884       0.20210133
H       -1.09466750       1.18960125      -1.33190793
13
Frame=6 idx=002204 GeodesicLength=0.25706270226279987 rxn_smarts="[C:1]([C:2](=[O:3])[C@@:4]1([H:10])[C:5]([H:11])([H:12])[N:6]1[H:13])([H:7])([H:8])[H:9]>>[C:1](=[C:2]([O:3][H:7])[C@@:4]1([H:10])[C:5]([H:11])([H:12])[N:6]1[H:13])([H:8])[H:9]"
C        1.93103334      -0.39120234       0.43672396
C        0.63820606       0.14533981       0.22867366
O        0.71783561       1.43069606       0.19984543
C       -0.52219362      -0.51389817      -0.39159622
C       -1.85337889      -0.04263785       0.08960735
N       -1.42219995       0.23584683      -1.26268231
H        2.01484806       1.08431148       0.15409703
H        2.15772134      -1.39801288       0.09761974
H        2.31535964      -0.18882015       1.43478726
H       -0.38008876      -1.55467287      -0.66034331
H       -1.85819277       0.77193643       0.80628908
H       -2.64679050      -0.77391623       0.19039756
H       -1.09215956       1.19502989      -1.32341923
13
Frame=7 idx=002204 GeodesicLength=0.29992216691660334 rxn_smarts="[C:1]([C:2](=[O:3])[C@@:4]1([H:10])[C:5]([H:11])([H:12])[N:6]1[H:13])([H:7])([H:8])[H:9]>>[C:1](=[C:2]([O:3][H:7])[C@@:4]1([H:10])[C:5]([H:11])([H:12])[N:6]1[H:13])([H:8])[H:9]"
C        1.92798785      -0.39084797       0.43881862
C        0.63202822       0.14694907       0.24952227
O        0.71634079       1.43175460       0.19984089
C       -0.52114687      -0.51145677      -0.38815175
C       -1.85642197      -0.04694252       0.08714727
N       -1.41729718       0.23997960      -1.26158952
H        2.02665863       1.08301596       0.13024211
H        2.13688469      -1.40564290       0.11110326
H        2.33455304      -0.18229107       1.42658601
H       -0.37257529      -1.54953720      -0.66488917
H       -1.86793287       0.76489621       0.80714668
H       -2.64885285      -0.78058632       0.17887995
H       -1.09022620       1.20070932      -1.31465664
13
Frame=8 idx=002204 GeodesicLength=0.3428339387940144 rxn_smarts="[C:1]([C:2](=[O:3])[C@@:4]1([H:10])[C:5]([H:11])([H:12])[N:6]1[H:13])([H:7])([H:8])[H:9]>>[C:1](=[C:2]([O:3][H:7])[C@@:4]1([H:10])[C:5]([H:11])([H:12])[N:6]1[H:13])([H:8])[H:9]"
C        1.92471123      -0.39049741       0.44117969
C        0.62613901       0.14885159       0.26932469
O        0.71507292       1.43284219       0.19941812
C       -0.51993424      -0.50880413      -0.38507839
C       -1.85915726      -0.05137179       0.08487603
N       -1.41269523       0.24436015      -1.26034929
H        2.03844978       1.08100438       0.10596475
H        2.11610534      -1.41304265       0.12581856
H        2.35256460      -0.17601105       1.41849452
H       -0.36479613      -1.54403276      -0.67000104
H       -1.87720915       0.75753515       0.80835886
H       -2.65039052      -0.78751248       0.16767125
H       -1.08886037       1.20667881      -1.30567774
13
Frame=9 idx=002204 GeodesicLength=0.38557897161366095 rxn_smarts="[C:1]([C:2](=[O:3])[C@@:4]1([H:10])[C:5]([H:11])([H:12])[N:6]1[H:13])([H:7])([H:8])[H:9]>>[C:1](=[C:2]([O:3][H:7])[C@@:4]1([H:10])[C:5]([H:11])([H:12])[N:6]1[H:13])([H:8])[H:9]"
C        1.92125558      -0.39013039       0.44374663
C        0.62050712       0.15104998       0.28829283
O        0.71397279       1.43394042       0.19867409
C       -0.51856808      -0.50595951      -0.38226046
C       -1.86164082      -0.05588497       0.08274517
N       -1.40832225       0.24892699      -1.25898075
H        2.05012241       1.07821754       0.08136567
H        2.09546668      -1.42007538       0.14147703
H        2.36956082      -0.17006443       1.41043098
H       -0.35675869      -1.53818399      -0.67546167
H       -1.88614262       0.74992665       0.80981565
H       -2.65148748      -0.79460541       0.15668692
H       -1.08796545       1.21284251      -1.29653210
13
Frame=10 idx=002204 GeodesicLength=0.42831751013843306 rxn_smarts="[C:1]([C:2](=[O:3])[C@@:4]1([H:10])[C:5]([H:11])([H:12])[N:6]1[H:13])([H:7])([H:8])[H:9]>>[C:1](=[C:2]([O:3][H:7])[C@@:4]1([H:10])[C:5]([H:11])([H:12])[N:6]1[H:13])([H:8])[H:9]"
C        1.91762979      -0.38973198       0.44650415
C        0.61511488       0.15351623       0.30636851
O        0.71304959       1.43506150       0.19756365
C       -0.51707122      -0.50294300      -0.37971066
C       -1.86387009      -0.06048042       0.08076087
N       -1.40421683       0.25365425      -1.25749292
H        2.06179940       1.07475867       0.05658148
H        2.07497071      -1.42672504       0.15798576
H        2.38549260      -0.16449582       1.40247714
H       -0.34849541      -1.53200807      -0.68126803
H       -1.89469648       0.74208476       0.81150570
H       -2.65214419      -0.80185842       0.14597915
H       -1.08756276       1.21916734      -1.28725478
13
Frame=11 idx=002204 GeodesicLength=0.47110106675517394 rxn_smarts="[C:1]([C:2](=[O:3])[C@@:4]1([H:10])[C:5]([H:11])([H:12])[N:6]1[H:13])([H:7])([H:8])[H:9]>>[C:1](=[C:2]([O:3][H:7])[C@@:4]1([H:10])[C:5]([H:11])([H:12])[N:6]1[H:13])([H:8])[H:9]"
C        1.91383898      -0.38927479       0.44941950
C        0.60988449       0.15625333       0.32358905
O        0.71224179       1.43621612       0.19607722
C       -0.51547984      -0.49978566      -0.37737674
C       -1.86584048      -0.06513139       0.07890540
N       -1.40034456       0.25847199      -1.25587324
H        2.07352086       1.07066052       0.03177878
H        2.05468193      -1.43287839       0.17505080
H        2.40036829      -0.15940322       1.39469786
H       -0.34006252      -1.52555989      -0.68729415
H       -1.90286474       0.73408713       0.81334031
H       -2.65235455      -0.80922656       0.13556418
H       -1.08758964       1.22557082      -1.27787896
13
Frame=12 idx=002204 GeodesicLength=0.5139427134614103 rxn_smarts="[C:1]([C:2](=[O:3])[C@@:4]1([H:10])[C:5]([H:11])([H:12])[N:6]1[H:13])([H:7])([H:8])[H:9]>>[C:1](=[C:2]([O:3][H:7])[C@@:4]1([H:10])[C:5]([H:11])([H:12])[N:6]1[H:13])([H:8])[H:9]"
C        1.90995388      -0.38876016       0.45243857
C        0.60479891       0.15918583       0.34027111
O        0.71153769       1.43736000       0.19443420
C       -0.51380633      -0.49650726      -0.37515368
C       -1.86767188      -0.06982656       0.07711608
N       -1.39663541       0.26338815      -1.25417523
H        2.08524757       1.06589977       0.00681315
H        2.03457940      -1.43854359       0.19258981
H        2.41456041      -0.15465889       1.38695896
H       -0.33145941      -1.51884978      -0.69341032
H       -1.91086199       0.72593089       0.81527881
H       -2.65229589      -0.81665830       0.12525737
H       -1.08794696       1.23203991      -1.26841883
13
Frame=13 idx=002204 GeodesicLength=0.5567967694716144 rxn_smarts="[C:1]([C:2](=[O:3])[C@@:4]1([H:10])[C:5]([H:11])([H:12])[N:6]1[H:13])([H:7])([H:8])[H:9]>>[C:1](=[C:2]([O:3][H:7])[C@@:4]1([H:10])[C:5]([H:11])([H:12])[N:6]1[H:13])([H:8])[H:9]"
C        1.90596359      -0.38816652       0.45556712
C        0.59984480       0.16234996       0.35634944
O        0.71092747       1.43852676       0.19255654
C       -0.51205912      -0.49311666      -0.37305795
C       -1.86934002      -0.07456226       0.07540911
N       -1.39310379       0.26837146      -1.25239189
H        2.09702492       1.06048963      -0.01819265
H        2.01469616      -1.44367719       0.21048486
H        2.42795991      -0.15034541       1.37934296
H       -0.32270357      -1.51190225      -0.69961393
H       -1.91863428       0.71764584       0.81731438
H       -2.65193554      -0.82416196       0.11513021
H       -1.08864053       1.23854861      -1.25889821
13
Frame=14 idx=002204 GeodesicLength=0.599651058038353 rxn_smarts="[C:1]([C:2](=[O:3])[C@@:4]1([H:10])[C:5]([H:11])([H:12])[N:6]1[H:13])([H:7])([H:8])[H:9]>>[C:1](=[C:2]([O:3][H:7])[C@@:4]1([H:10])[C:5]([H:11])([H:12])[N:6]1[H:13])([H:8])[H:9]"
C        1.90188250      -0.38747771       0.45879015
C        0.59500552       0.16573985       0.37187345
O        0.71038977       1.43971857       0.19045720
C       -0.51025421      -0.48963296      -0.37105663
C       -1.87086311      -0.07932204       0.07377635
N       -1.38974001       0.27338102      -1.25053789
H        2.10888468       1.05445779      -0.04314609
H        1.99508059      -1.44822833       0.22853334
H        2.44058349      -0.14650073       1.37189493
H       -0.31382281      -1.50474942      -0.70582741
H       -1.92620366       0.70927524       0.81940963
H       -2.65130412      -0.83170738       0.10519493
H       -1.08963862       1.24504611      -1.24936195
13
Frame=15 idx=002204 GeodesicLength=0.6425192324360084 rxn_smarts="[C:1]([C:2](=[O:3])[C@@:4]1([H:10])[C:5]([H:11])([H:12])[N:6]1[H:13])([H:7])([H:8])[H:9]>>[C:1](=[C:2]([O:3][H:7])[C@@:4]1([H:10])[C:5]([H:11])([H:12])[N:6]1[H:13])([H:8])[H:9]"
C        1.89772757      -0.38667862       0.46209403
C        0.59025927       0.16934880       0.38688350
O        0.70989564       1.44094119       0.18814578
C       -0.50840856      -0.48607661      -0.36911965
C       -1.87225846      -0.08408889       0.07221310
N       -1.38653709       0.27837833      -1.24862828
H        2.12086927       1.04783984      -0.06795730
H        1.97578872      -1.45216188       0.24652458
H        2.45244244      -0.14315974       1.36467784
H       -0.30484487      -1.49743064      -0.71197708
H       -1.93359210       0.70086748       0.82152892
H       -2.65042834      -0.83926815       0.09547339
H       -1.09091348       1.25148889      -1.23985884
13
Frame=16 idx=002204 GeodesicLength=0.685365312538394 rxn_smarts="[C:1]([C:2](=[O:3])[C@@:4]1([H:10])[C:5]([H:11])([H:12])[N:6]1[H:13])([H:7])([H:8])[H:9]>>[C:1](=[C:2]([O:3][H:7])[C@@:4]1([H:10])[C:5]([H:11])([H:12])[N:6]1[H:13])([H:8])[H:9]"
C        1.89350095      -0.38574365       0.46547075
C        0.58559264       0.17317783       0.40140577
O        0.70943379       1.44218789       0.18562295
C       -0.50653706      -0.48245991      -0.36722263
C       -1.87353535      -0.08885308       0.07071530
N       -1.38348645       0.28332240      -1.24666345
H        2.13302464       1.04065749      -0.09253966
H        1.95684648      -1.45543274       0.26426451
H        2.46352791      -0.14034273       1.35774375
H       -0.29580447      -1.48996419      -0.71800166
H       -1.94080227       0.69245121       0.82363550
H       -2.64933027      -0.84682387       0.08598711
H       -1.09243056       1.25782334      -1.23041826
