13
Frame=0 idx=002201 GeodesicLength=0.0 rxn_smarts="[C:1]([C:2](=[O:3])[C@@:4]1([H:10])[C:5]([H:11])([H:12])[N:6]1[H:13])([H:7])([H:8])[H:9]>>[C:1]([C@:2]12[O:3][C:5]([H:11])([H:12])[C@@:4]1([H:10])[N:6]2[H:13])([H:7])([H:8])[H:9]"
C        1.84663969       0.08518721       0.30362736
C        0.37485707       0.26777674       0.36781974
O       -0.17744166       1.21542859       0.92404237
C       -0.67438855      -0.58071533      -0.30744323
C       -1.83077915       0.03559107       0.43780467
N       -0.96060603       0.04562285      -1.56207215
H        2.37000077       0.93569380       0.73481916
H        2.14803521      -0.05422550      -0.73636022
H        2.11309712      -0.82979033       0.83891245
H       -0.51038553      -1.67408807      -0.25218458
H       -1.94588063       0.02185054       1.51537458
H       -2.66187152       0.34899470      -0.17955784
H       -0.09127674       0.18267371      -2.08478234
13
Frame=1 idx=002201 GeodesicLength=0.0705634277142508 rxn_smarts="[C:1]([C:2](=[O:3])[C@@:4]1([H:10])[C:5]([H:11])([H:12])[N:6]1[H:13])([H:7])([H:8])[H:9]>>[C:1]([C@:2]12[O:3][C:5]([H:11])([H:12])[C@@:4]1([H:10])[N:6]2[H:13])([H:7])([H:8])[H:9]"
C        1.84868915       0.07604230       0.30458216
C        0.37800417       0.27197140       0.34775072
O       -0.17896083       1.20847676       0.92730546
C       -0.67124778      -0.58550304      -0.30910887
C       -1.82573605       0.03720427       0.43050775
N       -0.96023238       0.08367451      -1.54122031
H        2.37716930       0.95822395       0.65987537
H        2.15697493      -0.14950759      -0.71805687
H        2.11077785      -0.79008674       0.91709661
H       -0.50833391      -1.67769575      -0.28187183
H       -1.94496728       0.00998650       1.50754287
H       -2.68070056       0.31437730      -0.17162486
H       -0.10143661       0.24283613      -2.07277820
13
Frame=2 idx=002201 GeodesicLength=0.14117934035477303 rxn_smarts="[C:1]([C:2](=[O:3])[C@@:4]1([H:10])[C:5]([H:11])([H:12])[N:6]1[H:13])([H:7])([H:8])[H:9]>>[C:1]([C@:2]12[O:3][C:5]([H:11])([H:12])[C@@:4]1([H:10])[N:6]2[H:13])([H:7])([H:8])[H:9]"
C        1.85041395       0.06737257       0.30508611
C        0.38094544       0.27521893       0.32954922
O       -0.18025124       1.20060138       0.93187208
C       -0.66809002      -0.59016865      -0.31047469
C       -1.82112505       0.03941341       0.42267181
N       -0.95866065       0.11971141      -1.51981624
H        2.38410439       0.97412867       0.58314761
H        2.16294641      -0.24075435      -0.69439312
H        2.10945164      -0.74494150       0.98803449
H       -0.50710250      -1.68067516      -0.31116093
H       -1.94531327      -0.00161281       1.49890133
H       -2.69715392       0.28092298      -0.16472545
H       -0.11016518       0.30078313      -2.05869222
13
Frame=3 idx=002201 GeodesicLength=0.21187284159252728 rxn_smarts="[C:1]([C:2](=[O:3])[C@@:4]1([H:10])[C:5]([H:11])([H:12])[N:6]1[H:13])([H:7])([H:8])[H:9]>>[C:1]([C@:2]12[O:3][C:5]([H:11])([H:12])[C@@:4]1([H:10])[N:6]2[H:13])([H:7])([H:8])[H:9]"
C        1.85187732       0.05907582       0.30523914
C        0.38367186       0.27760442       0.31296051
O       -0.18141046       1.19202527       0.93728213
C       -0.66497898      -0.59478750      -0.31159516
C       -1.81692275       0.04204132       0.41443982
N       -0.95615589       0.15371471      -1.49801917
H        2.39046318       0.98358821       0.50565766
H        2.16655120      -0.32756926      -0.66581855
H        2.10941088      -0.69520561       1.05185850
H       -0.50657616      -1.68307359      -0.34011590
H       -1.94668625      -0.01285560       1.48961010
H       -2.71145156       0.24873049      -0.15869454
H       -0.11779238       0.35671130      -2.04280454
13
Frame=4 idx=002201 GeodesicLength=0.2826431957558925 rxn_smarts="[C:1]([C:2](=[O:3])[C@@:4]1([H:10])[C:5]([H:11])([H:12])[N:6]1[H:13])([H:7])([H:8])[H:9]>>[C:1]([C@:2]12[O:3][C:5]([H:11])([H:12])[C@@:4]1([H:10])[N:6]2[H:13])([H:7])([H:8])[H:9]"
C        1.85310688       0.05114070       0.30518086
C        0.38616274       0.27922059       0.29786566
O       -0.18257778       1.18285708       0.94335794
C       -0.66192219      -0.59939235      -0.31252278
C       -1.81310676       0.04487376       0.40589915
N       -0.95284051       0.18582011      -1.47592416
H        2.39614399       0.98692730       0.42781725
H        2.16800978      -0.40999312      -0.63267376
H        2.11084470      -0.64146900       1.10886118
H       -0.50660592      -1.68489001      -0.36887232
H       -1.94895347      -0.02388013       1.47976244
H       -2.72376918       0.21797634      -0.15343742
H       -0.12449228       0.41080872      -2.02531404
13
Frame=5 idx=002201 GeodesicLength=0.3534039511341669 rxn_smarts="[C:1]([C:2](=[O:3])[C@@:4]1([H:10])[C:5]([H:11])([H:12])[N:6]1[H:13])([H:7])([H:8])[H:9]>>[C:1]([C@:2]12[O:3][C:5]([H:11])([H:12])[C@@:4]1([H:10])[N:6]2[H:13])([H:7])([H:8])[H:9]"
C        1.85411721       0.04350813       0.30497422
C        0.38848023       0.28055759       0.28348800
O       -0.18379231       1.17360146       0.94929959
C       -0.65885649      -0.60397962      -0.31336653
C       -1.80948872       0.04772493       0.39725729
N       -0.94922192       0.21584156      -1.45377968
H        2.40119391       0.98413474       0.35163942
H        2.16817299      -0.48734796      -0.59546845
H        2.11302190      -0.58492555       1.15902378
H       -0.50686751      -1.68608237      -0.39737341
H       -1.95146943      -0.03456984       1.46962833
H       -2.73429100       0.18857269      -0.14853830
H       -0.13099888       0.46296425      -2.00678425
13
Frame=6 idx=002201 GeodesicLength=0.42416410752717354 rxn_smarts="[C:1]([C:2](=[O:3])[C@@:4]1([H:10])[C:5]([H:11])([H:12])[N:6]1[H:13])([H:7])([H:8])[H:9]>>[C:1]([C@:2]12[O:3][C:5]([H:11])([H:12])[C@@:4]1([H:10])[N:6]2[H:13])([H:7])([H:8])[H:9]"
C        1.85493619       0.03612172       0.30472875
C        0.39059298       0.28140821       0.27011197
O       -0.18514897       1.16400110       0.95548893
C       -0.65581754      -0.60857728      -0.31416613
C       -1.80613552       0.05048095       0.38848127
N       -0.94514491       0.24414843      -1.43157249
H        2.40547840       0.97580482       0.27620168
H        2.16686484      -0.56039657      -0.55432379
H        2.11653958      -0.52548409       1.20298316
H       -0.50736645      -1.68665832      -0.42586883
H       -1.95446205      -0.04519606       1.45916138
H       -2.74322766       0.16067044      -0.14414350
H       -0.13710890       0.51367665      -1.98708239
13
Frame=7 idx=002201 GeodesicLength=0.49497684073799675 rxn_smarts="[C:1]([C:2](=[O:3])[C@@:4]1([H:10])[C:5]([H:11])([H:12])[N:6]1[H:13])([H:7])([H:8])[H:9]>>[C:1]([C@:2]12[O:3][C:5]([H:11])([H:12])[C@@:4]1([H:10])[N:6]2[H:13])([H:7])([H:8])[H:9]"
C        1.85556351       0.02899752       0.30459851
C        0.39254021       0.28211995       0.25736227
O       -0.18672147       1.15418918       0.96177579
C       -0.65270170      -0.61305307      -0.31514273
C       -1.80292073       0.05290238       0.37968265
N       -0.94087629       0.27108669      -1.40938700
H        2.40926409       0.96191532       0.20135376
H        2.16418653      -0.62985095      -0.50883030
H        2.12097655      -0.46312724       1.24131383
H       -0.50781212      -1.68641493      -0.45475238
H       -1.95752251      -0.05622955       1.44848160
H       -2.75074735       0.13414591      -0.14001442
H       -0.14322872       0.56331880      -1.96644159
13
Frame=8 idx=002201 GeodesicLength=0.5657335785039208 rxn_smarts="[C:1]([C:2](=[O:3])[C@@:4]1([H:10])[C:5]([H:11])([H:12])[N:6]1[H:13])([H:7])([H:8])[H:9]>>[C:1]([C@:2]12[O:3][C:5]([H:11])([H:12])[C@@:4]1([H:10])[N:6]2[H:13])([H:7])([H:8])[H:9]"
C        1.85601998       0.02217620       0.30457256
C        0.39428797       0.28252183       0.24554225
O       -0.18858441       1.14404438       0.96839494
C       -0.64954414      -0.61752501      -0.31611328
C       -1.79992265       0.05505541       0.37078706
N       -0.93617529       0.29660097      -1.38717051
H        2.41230683       0.94271477       0.12734093
H        2.16002834      -0.69508457      -0.45963648
H        2.12686902      -0.39852217       1.27362242
H       -0.50822415      -1.68546331      -0.48371671
H       -1.96100523      -0.06743181       1.43748840
H       -2.75701853       0.10908544      -0.13644212
H       -0.14903774       0.61182787      -1.94466948
13
Frame=9 idx=002201 GeodesicLength=0.636329455319187 rxn_smarts="[C:1]([C:2](=[O:3])[C@@:4]1([H:10])[C:5]([H:11])([H:12])[N:6]1[H:13])([H:7])([H:8])[H:9]>>[C:1]([C@:2]12[O:3][C:5]([H:11])([H:12])[C@@:4]1([H:10])[N:6]2[H:13])([H:7])([H:8])[H:9]"
C        1.85631413       0.01551606       0.30462022
C        0.39593943       0.28300328       0.23391502
O       -0.19061164       1.13392058       0.97473035
C       -0.64627523      -0.62193957      -0.31724021
C       -1.79694302       0.05688007       0.36195073
N       -0.93150991       0.32062513      -1.36516008
H        2.41485624       0.91829775       0.05574220
H        2.15505628      -0.75584759      -0.40709017
H        2.13328111      -0.33248399       1.30008884
H       -0.50838241      -1.68374091      -0.51274894
H       -1.96428858      -0.07871352       1.42642183
H       -2.76218554       0.08521971      -0.13300616
H       -0.15525086       0.65926298      -1.92222363
13
Frame=10 idx=002201 GeodesicLength=0.7067493275972367 rxn_smarts="[C:1]([C:2](=[O:3])[C@@:4]1([H:10])[C:5]([H:11])([H:12])[N:6]1[H:13])([H:7])([H:8])[H:9]>>[C:1]([C@:2]12[O:3][C:5]([H:11])([H:12])[C@@:4]1([H:10])[N:6]2[H:13])([H:7])([H:8])[H:9]"
C        1.85647177       0.00913404       0.30480388
C        0.39745066       0.28344227       0.22289392
O       -0.19293047       1.12354238       0.98131694
C       -0.64289123      -0.62629461      -0.31845788
C       -1.79407866       0.05836295       0.35308140
N       -0.92660002       0.34344168      -1.34323200
H        2.41679007       0.88879577      -0.01432446
H        2.14880295      -0.81235369      -0.35124235
H        2.14084416      -0.26492118       1.32075991
H       -0.50825732      -1.68122084      -0.54186600
H       -1.96774692      -0.09030908       1.41512665
H       -2.76639055       0.06261555      -0.13002429
H       -0.16146443       0.70576476      -1.89883573
13
Frame=11 idx=002201 GeodesicLength=0.777055432298676 rxn_smarts="[C:1]([C:2](=[O:3])[C@@:4]1([H:10])[C:5]([H:11])([H:12])[N:6]1[H:13])([H:7])([H:8])[H:9]>>[C:1]([C@:2]12[O:3][C:5]([H:11])([H:12])[C@@:4]1([H:10])[N:6]2[H:13])([H:7])([H:8])[H:9]"
C        1.85650311       0.00284105       0.30508054
C        0.39886745       0.28383516       0.21224549
O       -0.19544432       1.11282280       0.98807370
C       -0.63939661      -0.63056273      -0.31995322
C       -1.79125185       0.05944826       0.34422173
N       -0.92160009       0.36526104      -1.32143764
H        2.41797706       0.85406454      -0.08281385
H        2.14162506      -0.86497420      -0.29174778
H        2.14935945      -0.19551606       1.33581882
H       -0.50778431      -1.67782820      -0.57132909
H       -1.97116390      -0.10233838       1.40365902
H       -2.76975144       0.04113416      -0.12735601
H       -0.16793961       0.75181256      -1.87446170
13
Frame=12 idx=002201 GeodesicLength=0.8473617898846605 rxn_smarts="[C:1]([C:2](=[O:3])[C@@:4]1([H:10])[C:5]([H:11])([H:12])[N:6]1[H:13])([H:7])([H:8])[H:9]>>[C:1]([C@:2]12[O:3][C:5]([H:11])([H:12])[C@@:4]1([H:10])[N:6]2[H:13])([H:7])([H:8])[H:9]"
C        1.85642726      -0.00319118       0.30557953
C        0.40013747       0.28419151       0.20240054
O       -0.19835861       1.10138258       0.99568664
C       -0.63572085      -0.63459279      -0.32182224
C       -1.78854346       0.06002915       0.33528468
N       -0.91628732       0.38669031      -1.29955185
H        2.41822742       0.81321813      -0.15143500
H        2.13274158      -0.91428440      -0.22743084
H        2.15969738      -0.12323664       1.34507595
H       -0.50678959      -1.67328724      -0.60156003
H       -1.97483484      -0.11543228       1.39181045
H       -2.77236313       0.02060692      -0.12534896
H       -0.17433331       0.79790595      -1.84868886
13
Frame=13 idx=002201 GeodesicLength=0.9175367247255191 rxn_smarts="[C:1]([C:2](=[O:3])[C@@:4]1([H:10])[C:5]([H:11])([H:12])[N:6]1[H:13])([H:7])([H:8])[H:9]>>[C:1]([C@:2]12[O:3][C:5]([H:11])([H:12])[C@@:4]1([H:10])[N:6]2[H:13])([H:7])([H:8])[H:9]"
C        1.85618917      -0.00911652       0.30619276
C        0.40146799       0.28525872       0.19203319
O       -0.20131681       1.09000746       1.00291990
C       -0.63169239      -0.63822128      -0.32440160
C       -1.78556570       0.06003018       0.32655514
N       -0.91147484       0.40755984      -1.27794890
H        2.41853602       0.76631409      -0.21738044
H        2.12267398      -0.95963288      -0.15855107
H        2.16977571      -0.04971582       1.34849015
H       -0.50498698      -1.66746813      -0.63257671
H       -1.97751132      -0.12943206       1.38002251
H       -2.77420657       0.00045531      -0.12306631
H       -0.18188828       0.84396107      -1.82228861
13
Frame=14 idx=002201 GeodesicLength=0.9877566562993546 rxn_smarts="[C:1]([C:2](=[O:3])[C@@:4]1([H:10])[C:5]([H:11])([H:12])[N:6]1[H:13])([H:7])([H:8])[H:9]>>[C:1]([C@:2]12[O:3][C:5]([H:11])([H:12])[C@@:4]1([H:10])[N:6]2[H:13])([H:7])([H:8])[H:9]"
C        1.85587655      -0.01486160       0.30692255
C        0.40260165       0.28590205       0.18300587
O       -0.20467640       1.07731886       1.01166474
C       -0.62756405      -0.64177200      -0.32719917
C       -1.78279322       0.05967214       0.31756038
N       -0.90592079       0.42806442      -1.25602676
H        2.41675628       0.71291204      -0.28305465
H        2.11105711      -1.00049308      -0.08534326
H        2.18252866       0.02661576       1.34485129
H       -0.50265465      -1.66060426      -0.66406125
H       -1.98101238      -0.14430244       1.36751750
H       -2.77540401      -0.01854804      -0.12203710
H       -0.18879476       0.89009616      -1.79380014
13
Frame=15 idx=002201 GeodesicLength=1.0578769139529607 rxn_smarts="[C:1]([C:2](=[O:3])[C@@:4]1([H:10])[C:5]([H:11])([H:12])[N:6]1[H:13])([H:7])([H:8])[H:9]>>[C:1]([C@:2]12[O:3][C:5]([H:11])([H:12])[C@@:4]1([H:10])[N:6]2[H:13])([H:7])([H:8])[H:9]"
C        1.85550786      -0.02060031       0.30767549
C        0.40374170       0.28680670       0.17403757
O       -0.20811756       1.06392287       1.02081579
C       -0.62317706      -0.64501738      -0.33068438
C       -1.77989799       0.05879582       0.30860512
N       -0.90046682       0.44829870      -1.23414803
H        2.41400047       0.65274763      -0.34631226
H        2.09835600      -1.03658495      -0.00731945
H        2.19597596       0.10462245       1.33409000
H       -0.49947139      -1.65245038      -0.69633192
H       -1.98413504      -0.16023188       1.35475906
H       -2.77602180      -0.03686992      -0.12127852
H       -0.19629432       0.93656066      -1.76390847
13
Frame=16 idx=002201 GeodesicLength=1.128017078807757 rxn_smarts="[C:1]([C:2](=[O:3])[C@@:4]1([H:10])[C:5]([H:11])([H:12])[N:6]1[H:13])([H:7])([H:8])[H:9]>>[C:1]([C@:2]12[O:3][C:5]([H:11])([H:12])[C@@:4]1([H:10])[N:6]2[H:13])([H:7])([H:8])[H:9]"
C        1.85504531      -0.02603665       0.30859473
C        0.40485653       0.28821146       0.16544419
O       -0.21176913       1.04960570       1.03090450
C       -0.61838942      -0.64770674      -0.33491717
C       -1.77686504       0.05739075       0.29964993
N       -0.89496121       0.46875292      -1.21204709
H        2.40986238       0.58465273      -0.40757584
H        2.08365677      -1.06723166       0.07608195
H        2.21076554       0.18432568       1.31544177
H       -0.49523977      -1.64261200      -0.72964797
H       -1.98695972      -0.17767217       1.34156057
H       -2.77596020      -0.05495773      -0.12106764
H       -0.20404204       0.98327771      -1.73242192
