14
Frame=0 idx=007140 GeodesicLength=0.0 rxn_smarts="[N:1](=[C:2]1\[O:3][C:4]([H:9])([H:10])[C@@:5]2([H:11])[C:6]([H:12])([H:13])[C@@:7]12[H:14])\[H:8]>>[N:1](=[C:2]=[C:7]([C:6]([C@@:5]1([H:11])[O:3][C:4]1([H:9])[H:10])([H:12])[H:13])[H:14])[H:8]"
N        1.94506773      -1.63481726       0.44367893
C        0.88771313      -0.94593615       0.31508042
O        1.09052416       0.54948588       0.42151574
C        0.44274708       1.39338064      -0.54253455
C       -0.72878709       0.98915694       0.21677192
C       -1.44696724      -0.19483108      -0.25067760
C       -0.45443128      -1.25757323       0.16396797
H        2.73739197      -1.07854454       0.73632328
H        0.50654450       1.01540615      -1.56209726
H        0.81896966       2.40696456      -0.43845621
H       -0.95073331       1.48554400       1.15125024
H       -1.67651888      -0.14740301      -1.32497768
H       -2.37697942      -0.31944092       0.30697561
H       -0.79454107      -2.26139196       0.36317915
14
Frame=1 idx=007140 GeodesicLength=0.09378393883765136 rxn_smarts="[N:1](=[C:2]1\[O:3][C:4]([H:9])([H:10])[C@@:5]2([H:11])[C:6]([H:12])([H:13])[C@@:7]12[H:14])\[H:8]>>[N:1](=[C:2]=[C:7]([C:6]([C@@:5]1([H:11])[O:3][C:4]1([H:9])[H:10])([H:12])[H:13])[H:14])[H:8]"
N        1.94356758      -1.66274123       0.40806725
C        0.89387265      -0.96213043       0.29990353
O        1.09687098       0.55700902       0.40422589
C        0.43568605       1.41579617      -0.53451718
C       -0.72560588       0.97485546       0.22162012
C       -1.43844357      -0.20371390      -0.27066390
C       -0.46024530      -1.24828095       0.21366979
H        2.74682947      -1.11783404       0.69340805
H        0.50489567       1.06813221      -1.56434557
H        0.79458540       2.43295487      -0.40427669
H       -0.96987400       1.46858755       1.15207750
H       -1.61396188      -0.17786180      -1.35485108
H       -2.39321383      -0.31613677       0.24573509
H       -0.81496333      -2.22863616       0.48994721
14
Frame=2 idx=007140 GeodesicLength=0.18697484630982003 rxn_smarts="[N:1](=[C:2]1\[O:3][C:4]([H:9])([H:10])[C@@:5]2([H:11])[C:6]([H:12])([H:13])[C@@:7]12[H:14])\[H:8]>>[N:1](=[C:2]=[C:7]([C:6]([C@@:5]1([H:11])[O:3][C:4]1([H:9])[H:10])([H:12])[H:13])[H:14])[H:8]"
N        1.93938765      -1.69191802       0.37744947
C        0.89863391      -0.97877205       0.28776329
O        1.10308679       0.56502704       0.38542119
C        0.42790397       1.43773323      -0.52744705
C       -0.72229718       0.96112223       0.22575944
C       -1.42911566      -0.21315516      -0.28912150
C       -0.46423606      -1.23745062       0.25794153
H        2.75410254      -1.15858201       0.65329044
H        0.50076800       1.11965162      -1.56645833
H        0.77008579       2.45740008      -0.37172654
H       -0.98860210       1.45255679       1.15156616
H       -1.55401215      -0.20762746      -1.37976960
H       -2.40442752      -0.31607072       0.18893844
H       -0.83127798      -2.18991494       0.60639306
14
Frame=3 idx=007140 GeodesicLength=0.27964236278191545 rxn_smarts="[N:1](=[C:2]1\[O:3][C:4]([H:9])([H:10])[C@@:5]2([H:11])[C:6]([H:12])([H:13])[C@@:7]12[H:14])\[H:8]>>[N:1](=[C:2]=[C:7]([C:6]([C@@:5]1([H:11])[O:3][C:4]1([H:9])[H:10])([H:12])[H:13])[H:14])[H:8]"
N        1.93306966      -1.72208769       0.35175922
C        0.90244760      -0.99580061       0.27844939
O        1.10931050       0.57352038       0.36477199
C        0.41936190       1.45925112      -0.52137527
C       -0.71867344       0.94791777       0.22942349
C       -1.41908517      -0.22292772      -0.30613871
C       -0.46656179      -1.22557489       0.29699872
H        2.75934131      -1.20045492       0.61657319
H        0.49388397       1.17015959      -1.56860217
H        0.74551218       2.48037984      -0.34082778
H       -1.00653504       1.43716763       1.15011534
H       -1.49680091      -0.23609930      -1.40030084
H       -2.41125807      -0.31873123       0.13661784
H       -0.84401269      -2.14671998       0.71253558
14
Frame=4 idx=007140 GeodesicLength=0.3720591238963453 rxn_smarts="[N:1](=[C:2]1\[O:3][C:4]([H:9])([H:10])[C@@:5]2([H:11])[C:6]([H:12])([H:13])[C@@:7]12[H:14])\[H:8]>>[N:1](=[C:2]=[C:7]([C:6]([C@@:5]1([H:11])[O:3][C:4]1([H:9])[H:10])([H:12])[H:13])[H:14])[H:8]"
N        1.92516315      -1.75316750       0.33002305
C        0.90564737      -1.01319568       0.27192919
O        1.11532830       0.58241360       0.34275167
C        0.41017702       1.48041604      -0.51582939
C       -0.71483704       0.93507904       0.23269523
C       -1.40836415      -0.23302763      -0.32223292
C       -0.46770263      -1.21315687       0.33225661
H        2.76343019      -1.24332965       0.58108763
H        0.48469166       1.22006348      -1.57044439
H        0.72094099       2.50202038      -0.31072026
H       -1.02422766       1.42221852       1.14771918
H       -1.44128837      -0.26365301      -1.41747524
H       -2.41488010      -0.32341946       0.08712008
H       -0.85407874      -2.09926127       0.81111956
14
Frame=5 idx=007140 GeodesicLength=0.4641093772726135 rxn_smarts="[N:1](=[C:2]1\[O:3][C:4]([H:9])([H:10])[C@@:5]2([H:11])[C:6]([H:12])([H:13])[C@@:7]12[H:14])\[H:8]>>[N:1](=[C:2]=[C:7]([C:6]([C@@:5]1([H:11])[O:3][C:4]1([H:9])[H:10])([H:12])[H:13])[H:14])[H:8]"
N        1.91569182      -1.78503035       0.31274279
C        0.90832215      -1.03081223       0.26848064
O        1.12118071       0.59170867       0.31923091
C        0.40037869       1.50131571      -0.51086998
C       -0.71068988       0.92267724       0.23567166
C       -1.39696230      -0.24334007      -0.33731634
C       -0.46777472      -1.20029721       0.36442155
H        2.76647157      -1.28703545       0.54643776
H        0.47310918       1.26949965      -1.57213148
H        0.69641533       2.52242672      -0.28158230
H       -1.04147850       1.40773987       1.14454676
H       -1.38723222      -0.28993234      -1.43173389
H       -2.41558438      -0.33004119       0.04069238
H       -0.86184745      -2.04887903       0.90140953
14
Frame=6 idx=007140 GeodesicLength=0.5561100131311353 rxn_smarts="[N:1](=[C:2]1\[O:3][C:4]([H:9])([H:10])[C@@:5]2([H:11])[C:6]([H:12])([H:13])[C@@:7]12[H:14])\[H:8]>>[N:1](=[C:2]=[C:7]([C:6]([C@@:5]1([H:11])[O:3][C:4]1([H:9])[H:10])([H:12])[H:13])[H:14])[H:8]"
N        1.90528098      -1.81752499       0.29872867
C        0.91094617      -1.04871649       0.26703681
O        1.12692728       0.60138358       0.29365406
C        0.38986316       1.52207757      -0.50655636
C       -0.70611243       0.91069951       0.23849536
C       -1.38495525      -0.25373091      -0.35142369
C       -0.46686065      -1.18712939       0.39378109
H        2.76820014      -1.33178193       0.51460145
H        0.45865038       1.31884929      -1.57379281
H        0.67206172       2.54169115      -0.25327720
H       -1.05801168       1.39356611       1.14085453
H       -1.33478788      -0.31498575      -1.44321781
H       -2.41378328      -0.33801674      -0.00289833
H       -0.86741864      -1.99638098       0.98401425
14
Frame=7 idx=007140 GeodesicLength=0.6481273230205723 rxn_smarts="[N:1](=[C:2]1\[O:3][C:4]([H:9])([H:10])[C@@:5]2([H:11])[C:6]([H:12])([H:13])[C@@:7]12[H:14])\[H:8]>>[N:1](=[C:2]=[C:7]([C:6]([C@@:5]1([H:11])[O:3][C:4]1([H:9])[H:10])([H:12])[H:13])[H:14])[H:8]"
N        1.89410617      -1.85055645       0.28766637
C        0.91363769      -1.06684269       0.26750166
O        1.13250392       0.61145110       0.26592043
C        0.37865552       1.54278615      -0.50283240
C       -0.70107846       0.89918295       0.24119871
C       -1.37233906      -0.26414739      -0.36463396
C       -0.46501047      -1.17368867       0.42075729
H        2.76870766      -1.37758964       0.48552406
H        0.44124765       1.36828596      -1.57538899
H        0.64803905       2.55988660      -0.22565927
H       -1.07383232       1.37968633       1.13669916
H       -1.28381969      -0.33882537      -1.45228098
H       -2.40976364      -0.34710589      -0.04390432
H       -0.87105402      -1.94252299       1.05943224
14
Frame=8 idx=007140 GeodesicLength=0.7401313507071017 rxn_smarts="[N:1](=[C:2]1\[O:3][C:4]([H:9])([H:10])[C@@:5]2([H:11])[C:6]([H:12])([H:13])[C@@:7]12[H:14])\[H:8]>>[N:1](=[C:2]=[C:7]([C:6]([C@@:5]1([H:11])[O:3][C:4]1([H:9])[H:10])([H:12])[H:13])[H:14])[H:8]"
N        1.88216751      -1.88407570       0.27942872
C        0.91642301      -1.08503151       0.27025441
O        1.13769481       0.62191339       0.23639206
C        0.36686077       1.56343989      -0.49945882
C       -0.69569030       0.88813118       0.24374502
C       -1.35907921      -0.27461253      -0.37712633
C       -0.46241036      -1.15997397       0.44610783
H        2.76846650      -1.42443622       0.45745128
H        0.42121756       1.41782047      -1.57663934
H        0.62448824       2.57704745      -0.19838926
H       -1.08935340       1.36617531       1.13189918
H       -1.23367384      -0.36179221      -1.45923871
H       -2.40391455      -0.35712104      -0.08309860
H       -0.87319671      -1.88748450       1.12867255
14
Frame=9 idx=007140 GeodesicLength=0.832000026644571 rxn_smarts="[N:1](=[C:2]1\[O:3][C:4]([H:9])([H:10])[C@@:5]2([H:11])[C:6]([H:12])([H:13])[C@@:7]12[H:14])\[H:8]>>[N:1](=[C:2]=[C:7]([C:6]([C@@:5]1([H:11])[O:3][C:4]1([H:9])[H:10])([H:12])[H:13])[H:14])[H:8]"
N        1.86933458      -1.91799146       0.27426450
C        0.91928613      -1.10312793       0.27561139
O        1.14242720       0.63278983       0.20518130
C        0.35455592       1.58408025      -0.49638027
C       -0.68996294       0.87761494       0.24612302
C       -1.34508549      -0.28513028      -0.38891320
C       -0.45905753      -1.14592717       0.47016091
H        2.76739061      -1.47227874       0.42951344
H        0.39869734       1.46746572      -1.57744686
H        0.60145035       2.59322566      -0.17154886
H       -1.10465713       1.35310229       1.12641995
H       -1.18395242      -0.38369473      -1.46448692
H       -2.39626472      -0.36817949      -0.12041160
H       -0.87416190      -1.83194890       1.19191320
14
Frame=10 idx=007140 GeodesicLength=0.9239338110427214 rxn_smarts="[N:1](=[C:2]1\[O:3][C:4]([H:9])([H:10])[C@@:5]2([H:11])[C:6]([H:12])([H:13])[C@@:7]12[H:14])\[H:8]>>[N:1](=[C:2]=[C:7]([C:6]([C@@:5]1([H:11])[O:3][C:4]1([H:9])[H:10])([H:12])[H:13])[H:14])[H:8]"
N        1.85599940      -1.95214997       0.27107756
C        0.92249918      -1.12120294       0.28240111
O        1.14668439       0.64406532       0.17174039
C        0.34166755       1.60476526      -0.49368906
C       -0.68377817       0.86762732       0.24840260
C       -1.33048283      -0.29557310      -0.39999770
C       -0.45485918      -1.13160398       0.49269668
H        2.76517506      -1.52125436       0.40412586
H        0.37322414       1.51740296      -1.57785657
H        0.57917482       2.60841614      -0.14506265
H       -1.11940970       1.34029541       1.12047434
H       -1.13519116      -0.40450493      -1.46800140
H       -2.38699597      -0.37992990      -0.15582116
H       -0.87370754      -1.77635323       1.24951002
14
Frame=11 idx=007140 GeodesicLength=1.0158908965226607 rxn_smarts="[N:1](=[C:2]1\[O:3][C:4]([H:9])([H:10])[C@@:5]2([H:11])[C:6]([H:12])([H:13])[C@@:7]12[H:14])\[H:8]>>[N:1](=[C:2]=[C:7]([C:6]([C@@:5]1([H:11])[O:3][C:4]1([H:9])[H:10])([H:12])[H:13])[H:14])[H:8]"
N        1.84209174      -1.98646588       0.26992349
C        0.92606042      -1.13912901       0.29082117
O        1.15029072       0.65579604       0.13641944
C        0.32829436       1.62545513      -0.49124159
C       -0.67721014       0.85819994       0.25054741
C       -1.31523919      -0.30595572      -0.41046970
C       -0.44986423      -1.11696190       0.51400840
H        2.76195792      -1.57126621       0.38013026
H        0.34511115       1.56746038      -1.57761372
H        0.55777854       2.62262249      -0.11885021
H       -1.13387446       1.32781495       1.11391241
H       -1.08707387      -0.42433788      -1.47000030
H       -2.37623555      -0.39234258      -0.18966179
H       -0.87208740      -1.72088976       1.30207471
14
Frame=12 idx=007140 GeodesicLength=1.1078487679761633 rxn_smarts="[N:1](=[C:2]1\[O:3][C:4]([H:9])([H:10])[C@@:5]2([H:11])[C:6]([H:12])([H:13])[C@@:7]12[H:14])\[H:8]>>[N:1](=[C:2]=[C:7]([C:6]([C@@:5]1([H:11])[O:3][C:4]1([H:9])[H:10])([H:12])[H:13])[H:14])[H:8]"
N        1.82769002      -2.02081938       0.27036234
C        0.93001843      -1.15688158       0.30038498
O        1.15315453       0.66801738       0.09921627
C        0.31447068       1.64613715      -0.48904120
C       -0.67023817       0.84935235       0.25256951
C       -1.29941111      -0.31621939      -0.42033554
C       -0.44401415      -1.10201019       0.53406836
H        2.75761615      -1.62228113       0.35824443
H        0.31438116       1.61754614      -1.57662123
H        0.53737218       2.63585990      -0.09298234
H       -1.14796251       1.31561106       1.10679892
H       -1.03974184      -0.44308092      -1.47066505
H       -2.36409959      -0.40533885      -0.22184214
H       -0.86923578      -1.66589254       1.34984268
14
Frame=13 idx=007140 GeodesicLength=1.1996810778822877 rxn_smarts="[N:1](=[C:2]1\[O:3][C:4]([H:9])([H:10])[C@@:5]2([H:11])[C:6]([H:12])([H:13])[C@@:7]12[H:14])\[H:8]>>[N:1](=[C:2]=[C:7]([C:6]([C@@:5]1([H:11])[O:3][C:4]1([H:9])[H:10])([H:12])[H:13])[H:14])[H:8]"
N        1.81272300      -2.05513522       0.27241891
C        0.93433690      -1.17438044       0.31106508
O        1.15516852       0.68078361       0.06050535
C        0.30028272       1.66676089      -0.48701474
C       -0.66291484       0.84110620       0.25447986
C       -1.28299711      -0.32634736      -0.42962542
C       -0.43730597      -1.08673082       0.55301877
H        2.75215195      -1.67420101       0.33791430
H        0.28133820       1.66744073      -1.57473747
H        0.51793326       2.64816889      -0.06762124
H       -1.16176988       1.30370136       1.09912250
H       -0.99299961      -0.46062956      -1.47025412
H       -2.35067644      -0.41894880      -0.25239543
H       -0.86527070      -1.61158847       1.39312364
14
Frame=14 idx=007140 GeodesicLength=1.29148024615456 rxn_smarts="[N:1](=[C:2]1\[O:3][C:4]([H:9])([H:10])[C@@:5]2([H:11])[C:6]([H:12])([H:13])[C@@:7]12[H:14])\[H:8]>>[N:1](=[C:2]=[C:7]([C:6]([C@@:5]1([H:11])[O:3][C:4]1([H:9])[H:10])([H:12])[H:13])[H:14])[H:8]"
N        1.79717775      -2.08935086       0.27629949
C        0.93902130      -1.19159743       0.32289374
O        1.15619787       0.69426870       0.02089137
C        0.28581664       1.68726283      -0.48503570
C       -0.65533067       0.83347111       0.25623815
C       -1.26596327      -0.33636253      -0.43843802
C       -0.42980757      -1.07108343       0.57104189
H        2.74562327      -1.72689335       0.31782201
H        0.24648655       1.71679954      -1.57174652
H        0.49946786       2.65962274      -0.04268566
H       -1.17557990       1.29210221       1.09067658
H       -0.94668914      -0.47725072      -1.46876511
H       -2.33603949      -0.43310166      -0.28175635
H       -0.86038120      -1.55788717       1.43256412
14
Frame=15 idx=007140 GeodesicLength=1.3832333754488082 rxn_smarts="[N:1](=[C:2]1\[O:3][C:4]([H:9])([H:10])[C@@:5]2([H:11])[C:6]([H:12])([H:13])[C@@:7]12[H:14])\[H:8]>>[N:1](=[C:2]=[C:7]([C:6]([C@@:5]1([H:11])[O:3][C:4]1([H:9])[H:10])([H:12])[H:13])[H:14])[H:8]"
N        1.78126924      -2.12340266       0.28063789
C        0.94409689      -1.20872584       0.33451381
O        1.15622815       0.70852712      -0.02001350
C        0.27099347       1.70767301      -0.48326896
C       -0.64735482       0.82643145       0.25792116
C       -1.24855914      -0.34608378      -0.44671372
C       -0.42132949      -1.05518397       0.58771257
H        2.73791519      -1.78038837       0.30125925
H        0.20956316       1.76562663      -1.56772192
H        0.48200873       2.67028428      -0.01843566
H       -1.18882761       1.28060088       1.08188678
H       -0.90154537      -0.49254829      -1.46644133
H       -2.32041003      -0.44756327      -0.30940549
H       -0.85404839      -1.50524719       1.46806912
14
Frame=16 idx=007140 GeodesicLength=1.4749147768352089 rxn_smarts="[N:1](=[C:2]1\[O:3][C:4]([H:9])([H:10])[C@@:5]2([H:11])[C:6]([H:12])([H:13])[C@@:7]12[H:14])\[H:8]>>[N:1](=[C:2]=[C:7]([C:6]([C@@:5]1([H:11])[O:3][C:4]1([H:9])[H:10])([H:12])[H:13])[H:14])[H:8]"
N        1.76483135      -2.15732161       0.28625377
C        0.94947216      -1.22572225       0.34648979
O        1.15519411       0.72374875      -0.06134274
C        0.25590692       1.72794582      -0.48156425
C       -0.63911390       0.82000517       0.25950574
C       -1.23065072      -0.35558363      -0.45454238
C       -0.41198073      -1.03895618       0.60338194
H        2.72907360      -1.83456982       0.28571145
H        0.17124087       1.81356561      -1.56253339
H        0.46532693       2.68031146       0.00507174
H       -1.20188784       1.26926721       1.07252536
H       -0.85700015      -0.50674825      -1.46338065
H       -2.30376645      -0.46243002      -0.33577777
H       -0.84664615      -1.45351226       1.50020139
