14
Frame=0 idx=007278 GeodesicLength=0.0 rxn_smarts="[O:1]([C@@:2]1([H:9])[C:3]([H:10])([H:11])[N:4]([H:12])[C:5]([H:13])([H:14])[C:6]1=[O:7])[H:8]>>[H:10][H:11].[O:1]([C@@:2]1([H:9])[C:3][N:4]([H:12])[C:5]([H:13])([H:14])[C:6]1=[O:7])[H:8]"
O        2.15253206       0.05816325       0.61646797
C        0.77405838       0.02831102       0.76532915
C       -0.00549632       1.25026129       0.31006622
N       -1.23742623       0.76953190       0.01619467
C       -1.29852535      -0.63515391      -0.35631472
C        0.10180150      -1.10220241       0.00194017
O        0.63993781      -2.11927434      -0.33761266
H        2.41961192      -0.79950091       0.26534199
H        0.49737329      -0.09315539       1.82671644
H        0.63593202       1.93799442      -0.53151941
H        0.84327941       1.30347192      -1.16762205
H       -2.00501235       1.38643657      -0.17506739
H       -1.46591661      -0.78147908      -1.42926214
H       -2.05214957      -1.20340434       0.19534176
14
Frame=1 idx=007278 GeodesicLength=0.051698026811018045 rxn_smarts="[O:1]([C@@:2]1([H:9])[C:3]([H:10])([H:11])[N:4]([H:12])[C:5]([H:13])([H:14])[C:6]1=[O:7])[H:8]>>[H:10][H:11].[O:1]([C@@:2]1([H:9])[C:3][N:4]([H:12])[C:5]([H:13])([H:14])[C:6]1=[O:7])[H:8]"
O        2.15290051       0.05584402       0.61543326
C        0.77412875       0.02611208       0.76438987
C       -0.00396241       1.24688026       0.30455943
N       -1.24026862       0.76625752       0.02296790
C       -1.29939572      -0.63754650      -0.35456043
C        0.10156320      -1.10429526       0.00103376
O        0.63761072      -2.12361802      -0.33486785
H        2.42134925      -0.80493988       0.27328143
H        0.49773617      -0.09501526       1.82596890
H        0.65038670       1.95798473      -0.52908538
H        0.83140613       1.31707946      -1.17567933
H       -2.00350701       1.38425963      -0.18255661
H       -1.46773577      -0.78184081      -1.42759880
H       -2.05221189      -1.20716196       0.19671384
14
Frame=2 idx=007278 GeodesicLength=0.10338657140469576 rxn_smarts="[O:1]([C@@:2]1([H:9])[C:3]([H:10])([H:11])[N:4]([H:12])[C:5]([H:13])([H:14])[C:6]1=[O:7])[H:8]>>[H:10][H:11].[O:1]([C@@:2]1([H:9])[C:3][N:4]([H:12])[C:5]([H:13])([H:14])[C:6]1=[O:7])[H:8]"
O        2.15323876       0.05346622       0.61445900
C        0.77415262       0.02394289       0.76338594
C       -0.00241445       1.24347348       0.29870370
N       -1.24307285       0.76297894       0.02963631
C       -1.30026844      -0.63995525      -0.35286058
C        0.10131379      -1.10640850       0.00009675
O        0.63526200      -2.12799994      -0.33204727
H        2.42302758      -0.81037282       0.28136563
H        0.49796777      -0.09671013       1.82514805
H        0.66531043       1.97770111      -0.52675354
H        0.81940471       1.33122462      -1.18370761
H       -2.00207308       1.38183403      -0.18950132
H       -1.46956998      -0.78226527      -1.42597628
H       -2.05227886      -1.21090937       0.19805120
14
Frame=3 idx=007278 GeodesicLength=0.15506739406184966 rxn_smarts="[O:1]([C@@:2]1([H:9])[C:3]([H:10])([H:11])[N:4]([H:12])[C:5]([H:13])([H:14])[C:6]1=[O:7])[H:8]>>[H:10][H:11].[O:1]([C@@:2]1([H:9])[C:3][N:4]([H:12])[C:5]([H:13])([H:14])[C:6]1=[O:7])[H:8]"
O        2.15354722       0.05103194       0.61355704
C        0.77412985       0.02180039       0.76232600
C       -0.00085441       1.24003481       0.29251438
N       -1.24583043       0.75969480       0.03619225
C       -1.30114134      -0.64238176      -0.35121721
C        0.10105184      -1.10854717      -0.00086024
O        0.63289576      -2.13241657      -0.32915370
H        2.42464605      -0.81578275       0.28957071
H        0.49806900      -0.09824643       1.82426318
H        0.68070145       1.99713404      -0.52455198
H        0.80727268       1.34589716      -1.19169169
H       -2.00072320       1.37917882      -0.19589951
H       -1.47141022      -0.78275370      -1.42439847
H       -2.05235426      -1.21464359       0.19934924
14
Frame=4 idx=007278 GeodesicLength=0.2067154301294839 rxn_smarts="[O:1]([C@@:2]1([H:9])[C:3]([H:10])([H:11])[N:4]([H:12])[C:5]([H:13])([H:14])[C:6]1=[O:7])[H:8]>>[H:10][H:11].[O:1]([C@@:2]1([H:9])[C:3][N:4]([H:12])[C:5]([H:13])([H:14])[C:6]1=[O:7])[H:8]"
O        2.15382463       0.04854156       0.61274186
C        0.77405999       0.01968212       0.76121838
C        0.00071791       1.23655936       0.28600476
N       -1.24853109       0.75640699       0.04262998
C       -1.30200996      -0.64482502      -0.34963208
C        0.10077664      -1.11071578      -0.00182405
O        0.63051754      -2.13686357      -0.32619026
H        2.42620266      -0.82115184       0.29786408
H        0.49803919      -0.09962732       1.82332123
H        0.69655354       2.01626988      -0.52250566
H        0.79500424       1.36107712      -1.19960926
H       -1.99947151       1.37630938      -0.20175207
H       -1.47324290      -0.78330495      -1.42286833
H       -2.05244087      -1.21835794       0.20060142
14
Frame=5 idx=007278 GeodesicLength=0.2583476449577158 rxn_smarts="[O:1]([C@@:2]1([H:9])[C:3]([H:10])([H:11])[N:4]([H:12])[C:5]([H:13])([H:14])[C:6]1=[O:7])[H:8]>>[H:10][H:11].[O:1]([C@@:2]1([H:9])[C:3][N:4]([H:12])[C:5]([H:13])([H:14])[C:6]1=[O:7])[H:8]"
O        2.15407403       0.04599806       0.61201072
C        0.77394586       0.01758400       0.76006681
C        0.00229793       1.23303993       0.27919512
N       -1.25117112       0.75311189       0.04894681
C       -1.30287496      -0.64728920      -0.34810296
C        0.10048866      -1.11291821      -0.00279216
O        0.62812794      -2.14134314      -0.32315612
H        2.42769970      -0.82647756       0.30624036
H        0.49788758      -0.10086556       1.82232781
H        0.71286968       2.03511352      -0.52063007
H        0.78258228       1.37677915      -1.20744205
H       -1.99831791       1.37324626      -0.20709324
H       -1.47506961      -0.78392504      -1.42138419
H       -2.05254006      -1.22205410       0.20181315
14
Frame=6 idx=007278 GeodesicLength=0.30996192430101654 rxn_smarts="[O:1]([C@@:2]1([H:9])[C:3]([H:10])([H:11])[N:4]([H:12])[C:5]([H:13])([H:14])[C:6]1=[O:7])[H:8]>>[H:10][H:11].[O:1]([C@@:2]1([H:9])[C:3][N:4]([H:12])[C:5]([H:13])([H:14])[C:6]1=[O:7])[H:8]"
O        2.15429622       0.04340261       0.61136084
C        0.77378968       0.01550261       0.75887359
C        0.00388256       1.22947029       0.27210270
N       -1.25374510       0.74980815       0.05514068
C       -1.30373460      -0.64977621      -0.34662778
C        0.10018901      -1.11515744      -0.00376088
O        0.62572818      -2.14585679      -0.32004936
H        2.42913739      -0.83175806       0.31469156
H        0.49762196      -0.10197078       1.82128534
H        0.72965080       2.05366637      -0.51893988
H        0.76998724       1.39301269      -1.21516608
H       -1.99726430       1.37000512      -0.21195478
H       -1.47688773      -0.78461774      -1.41994376
H       -2.05265130      -1.22573082       0.20298781
14
Frame=7 idx=007278 GeodesicLength=0.36155517657550246 rxn_smarts="[O:1]([C@@:2]1([H:9])[C:3]([H:10])([H:11])[N:4]([H:12])[C:5]([H:13])([H:14])[C:6]1=[O:7])[H:8]>>[H:10][H:11].[O:1]([C@@:2]1([H:9])[C:3][N:4]([H:12])[C:5]([H:13])([H:14])[C:6]1=[O:7])[H:8]"
O        2.15449229       0.04075697       0.61079059
C        0.77359348       0.01343478       0.75764177
C        0.00546877       1.22584454       0.26474395
N       -1.25624913       0.74649427       0.06121033
C       -1.30458788      -0.65228819      -0.34520504
C        0.09987804      -1.11743684      -0.00472582
O        0.62331923      -2.15040590      -0.31686869
H        2.43051662      -0.83699067       0.32320938
H        0.49724963      -0.10295188       1.82019750
H        0.74689919       2.07192860      -0.51745494
H        0.75720064       1.40978810      -1.22275501
H       -1.99631077       1.36660023      -0.21636544
H       -1.47869487      -0.78538613      -1.41854599
H       -2.05277524      -1.22938787       0.20412741
14
Frame=8 idx=007278 GeodesicLength=0.4131290184677392 rxn_smarts="[O:1]([C@@:2]1([H:9])[C:3]([H:10])([H:11])[N:4]([H:12])[C:5]([H:13])([H:14])[C:6]1=[O:7])[H:8]>>[H:10][H:11].[O:1]([C@@:2]1([H:9])[C:3][N:4]([H:12])[C:5]([H:13])([H:14])[C:6]1=[O:7])[H:8]"
O        2.15466329       0.03806289       0.61029796
C        0.77335924       0.01137717       0.75637442
C        0.00705360       1.22215661       0.25713533
N       -1.25868013       0.74316855       0.06715545
C       -1.30543396      -0.65482745      -0.34383293
C        0.09955609      -1.11975974      -0.00568256
O        0.62090180      -2.15499209      -0.31361231
H        2.43183829      -0.84217300       0.33178530
H        0.49677776      -0.10381782       1.81906789
H        0.76462041       2.08990167      -0.51619523
H        0.74420055       1.42711713      -1.23018103
H       -1.99545565       1.36304502      -0.22035675
H       -1.48048853      -0.78623344      -1.41718954
H       -2.05291278      -1.23302552       0.20523399
14
Frame=9 idx=007278 GeodesicLength=0.4646978261227725 rxn_smarts="[O:1]([C@@:2]1([H:9])[C:3]([H:10])([H:11])[N:4]([H:12])[C:5]([H:13])([H:14])[C:6]1=[O:7])[H:8]>>[H:10][H:11].[O:1]([C@@:2]1([H:9])[C:3][N:4]([H:12])[C:5]([H:13])([H:14])[C:6]1=[O:7])[H:8]"
O        2.15481741       0.03532273       0.60988269
C        0.77309161       0.00932801       0.75507617
C        0.00863494       1.21840273       0.24929391
N       -1.26103924       0.73983142       0.07297726
C       -1.30627618      -0.65739737      -0.34251127
C        0.09922393      -1.12213085      -0.00662814
O        0.61847850      -2.15962045      -0.31028185
H        2.43311121      -0.84730481       0.34041335
H        0.49621468      -0.10457331       1.81790356
H        0.78282636       2.10758956      -0.51518050
H        0.73096248       1.44501041      -1.23741597
H       -1.99470298       1.35935323      -0.22396038
H       -1.48227095      -0.78716642      -1.41587701
H       -2.05307176      -1.23664488       0.20630817
14
Frame=10 idx=007278 GeodesicLength=0.5162184549643549 rxn_smarts="[O:1]([C@@:2]1([H:9])[C:3]([H:10])([H:11])[N:4]([H:12])[C:5]([H:13])([H:14])[C:6]1=[O:7])[H:8]>>[H:10][H:11].[O:1]([C@@:2]1([H:9])[C:3][N:4]([H:12])[C:5]([H:13])([H:14])[C:6]1=[O:7])[H:8]"
O        2.15493895       0.03253728       0.60953623
C        0.77278510       0.00728141       0.75374442
C        0.01020406       1.21457264       0.24123058
N       -1.26332328       0.73647600       0.07867145
C       -1.30710796      -0.65999912      -0.34123327
C        0.09888012      -1.12455001      -0.00755792
O        0.61604669      -2.16428487      -0.30687141
H        2.43432028      -0.85238088       0.34908212
H        0.49556440      -0.10523477       1.81669860
H        0.80151044       2.12498767      -0.51444809
H        0.71748688       1.46349354      -1.24440559
H       -1.99403127       1.35553065      -0.22721092
H       -1.48403825      -0.78818329      -1.41459616
H       -2.05323616      -1.24024625       0.20735995
14
Frame=11 idx=007278 GeodesicLength=0.5677325180309795 rxn_smarts="[O:1]([C@@:2]1([H:9])[C:3]([H:10])([H:11])[N:4]([H:12])[C:5]([H:13])([H:14])[C:6]1=[O:7])[H:8]>>[H:10][H:11].[O:1]([C@@:2]1([H:9])[C:3][N:4]([H:12])[C:5]([H:13])([H:14])[C:6]1=[O:7])[H:8]"
O        2.15503167       0.02970763       0.60924742
C        0.77244509       0.00523502       0.75237639
C        0.01176463       1.21066148       0.23295666
N       -1.26552198       0.73310157       0.08424073
C       -1.30792737      -0.66263667      -0.33999490
C        0.09852865      -1.12701795      -0.00847764
O        0.61360709      -2.16898400      -0.30339141
H        2.43546672      -0.85741604       0.35782867
H        0.49483258      -0.10581096       1.81544998
H        0.82071001       2.14210225      -0.51400432
H        0.70370209       1.48259978      -1.25113984
H       -1.99343835       1.35158531      -0.23014847
H       -1.48579384      -0.78929387      -1.41334146
H       -2.05340700      -1.24383356       0.20839819
14
Frame=12 idx=007278 GeodesicLength=0.6192529239180232 rxn_smarts="[O:1]([C@@:2]1([H:9])[C:3]([H:10])([H:11])[N:4]([H:12])[C:5]([H:13])([H:14])[C:6]1=[O:7])[H:8]>>[H:10][H:11].[O:1]([C@@:2]1([H:9])[C:3][N:4]([H:12])[C:5]([H:13])([H:14])[C:6]1=[O:7])[H:8]"
O        2.15511920       0.02683571       0.60902153
C        0.77208015       0.00319047       0.75097936
C        0.01330999       1.20666993       0.22448779
N       -1.26765494       0.72971162       0.08968353
C       -1.30875080      -0.66531640      -0.33879959
C        0.09817098      -1.12954230      -0.00938879
O        0.61116963      -2.17373135      -0.29984921
H        2.43657855      -0.86241198       0.36664582
H        0.49403117      -0.10629662       1.81417305
H        0.84044562       2.15893445      -0.51388472
H        0.68960833       1.50234974      -1.25756796
H       -1.99294444       1.34753061      -0.23280143
H       -1.48755992      -0.79051510      -1.41212473
H       -2.05360353      -1.24740878       0.20942534
14
Frame=13 idx=007278 GeodesicLength=0.6707269786902982 rxn_smarts="[O:1]([C@@:2]1([H:9])[C:3]([H:10])([H:11])[N:4]([H:12])[C:5]([H:13])([H:14])[C:6]1=[O:7])[H:8]>>[H:10][H:11].[O:1]([C@@:2]1([H:9])[C:3][N:4]([H:12])[C:5]([H:13])([H:14])[C:6]1=[O:7])[H:8]"
O        2.15516341       0.02392095       0.60884947
C        0.77167547       0.00113905       0.74954526
C        0.01483618       1.20258435       0.21582584
N       -1.26970302       0.72629641       0.09499151
C       -1.30955806      -0.66803846      -0.33763593
C        0.09780299      -1.13212067      -0.01028271
O        0.60872262      -2.17851392      -0.29623077
H        2.43761423      -0.86735720       0.37551370
H        0.49315158      -0.10671494       1.81284719
H        0.86071081       2.17548238      -0.51413335
H        0.67519569       1.52277286      -1.26362429
H       -1.99250649       1.34336379      -0.23519840
H       -1.48931273      -0.79183987      -1.41091995
H       -2.05379269      -1.25097473       0.21045245
14
Frame=14 idx=007278 GeodesicLength=0.7222272899099851 rxn_smarts="[O:1]([C@@:2]1([H:9])[C:3]([H:10])([H:11])[N:4]([H:12])[C:5]([H:13])([H:14])[C:6]1=[O:7])[H:8]>>[H:10][H:11].[O:1]([C@@:2]1([H:9])[C:3][N:4]([H:12])[C:5]([H:13])([H:14])[C:6]1=[O:7])[H:8]"
O        2.15521208       0.02096543       0.60871516
C        0.77125328      -0.00091257       0.74807623
C        0.01633916       1.19840857       0.20698613
N       -1.27169290       0.72285936       0.10017132
C       -1.31037444      -0.67081224      -0.33651681
C        0.09743056      -1.13476120      -0.01117134
O        0.60627265      -2.18336161      -0.29252730
H        2.43862456      -0.87227530       0.38447085
H        0.49222174      -0.10704890       1.81149268
H        0.88156667       2.19174980      -0.51476587
H        0.66041467       1.54392246      -1.26927730
H       -1.99217033       1.33909377      -0.23736796
H       -1.49108254      -0.79329231      -1.40975793
H       -2.05401515      -1.25453526       0.21147216
14
Frame=15 idx=007278 GeodesicLength=0.7736972723479683 rxn_smarts="[O:1]([C@@:2]1([H:9])[C:3]([H:10])([H:11])[N:4]([H:12])[C:5]([H:13])([H:14])[C:6]1=[O:7])[H:8]>>[H:10][H:11].[O:1]([C@@:2]1([H:9])[C:3][N:4]([H:12])[C:5]([H:13])([H:14])[C:6]1=[O:7])[H:8]"
O        2.15520948       0.01796590       0.60859453
C        0.77079388      -0.00297381       0.74655333
C        0.01781266       1.19412771       0.19796055
N       -1.27359332       0.71938577       0.10521918
C       -1.31116521      -0.67363591      -0.33543203
C        0.09705161      -1.13745823      -0.01204724
O        0.60379794      -2.18826424      -0.28869639
H        2.43954414      -0.87716273       0.39351851
H        0.49123312      -0.10732570       1.81007196
H        0.90303746       2.20771343      -0.51583748
H        0.64520233       1.56587018      -1.27445411
H       -1.99188299       1.33470966      -0.23932816
H       -1.49282294      -0.79485304      -1.40860769
H       -2.05421814      -1.25809902       0.21248503
14
Frame=16 idx=007278 GeodesicLength=0.8251845108988326 rxn_smarts="[O:1]([C@@:2]1([H:9])[C:3]([H:10])([H:11])[N:4]([H:12])[C:5]([H:13])([H:14])[C:6]1=[O:7])[H:8]>>[H:10][H:11].[O:1]([C@@:2]1([H:9])[C:3][N:4]([H:12])[C:5]([H:13])([H:14])[C:6]1=[O:7])[H:8]"
O        2.15519928       0.01492719       0.60849938
C        0.77031256      -0.00503881       0.74498979
C        0.01925314       1.18974524       0.18876519
N       -1.27543567       0.71588024       0.11013537
C       -1.31195936      -0.67651996      -0.33439082
C        0.09666786      -1.14022183      -0.01291437
O        0.60131159      -2.19324107      -0.28475060
H        2.44042409      -0.88201831       0.40264832
H        0.49019744      -0.10752755       1.80861385
H        0.92516923       2.22336920      -0.51739382
H        0.62955800       1.58864380      -1.27909170
H       -1.99168480       1.33022167      -0.24110445
H       -1.49456856      -0.79655092      -1.40749578
H       -2.05444480      -1.26166890       0.21348965
