14
Frame=0 idx=002988 GeodesicLength=0.0 rxn_smarts="[C:1]([C@@:2]1([H:10])[O:3][C@:4]1([C:5]([O:6][H:14])([H:12])[H:13])[H:11])([H:7])([H:8])[H:9]>>[C:1]([C:2]([O+:3]=[C-:4][C:5]([O:6][H:14])([H:12])[H:13])([H:10])[H:11])([H:7])([H:8])[H:9]"
C        1.71961629      -0.06629237      -0.46752850
C        0.87000676      -0.61066806       0.64087521
O        0.30195331       0.30340255       1.53199395
C       -0.87684491      -0.20907238       0.92740637
C       -1.38880946       0.72680734      -0.13822279
O       -2.32368852       0.08498889      -0.96891593
H        1.20128155       0.68438253      -1.06006099
H        2.04256079      -0.87385044      -1.12575056
H        2.60468798       0.40231188      -0.03388734
H        1.30043311      -1.45855341       1.17843193
H       -0.14803781      -1.18450134       0.25973550
H       -0.64716385       1.20098099      -0.78517098
H       -1.84719886       1.53491272       0.45625124
H       -2.80879638      -0.53484884      -0.41515706
14
Frame=1 idx=002988 GeodesicLength=0.0721563492961045 rxn_smarts="[C:1]([C@@:2]1([H:10])[O:3][C@:4]1([C:5]([O:6][H:14])([H:12])[H:13])[H:11])([H:7])([H:8])[H:9]>>[C:1]([C:2]([O+:3]=[C-:4][C:5]([O:6][H:14])([H:12])[H:13])([H:10])[H:11])([H:7])([H:8])[H:9]"
C        1.73922244      -0.06302541      -0.45817804
C        0.87586044      -0.61912234       0.63412875
O        0.29075307       0.29375073       1.51888691
C       -0.87288206      -0.21958430       0.89827446
C       -1.40110134       0.72693506      -0.14724138
O       -2.37170724       0.09984477      -0.94777768
H        1.22242623       0.68255220      -1.05862329
H        2.08225736      -0.86585350      -1.11212994
H        2.61252984       0.41473747      -0.01089228
H        1.31280408      -1.45649678       1.18248880
H       -0.14402800      -1.21121638       0.24571235
H       -0.67176562       1.18747706      -0.81782456
H       -1.82767454       1.54642608       0.45470960
H       -2.84669467      -0.51642466      -0.38153370
14
Frame=2 idx=002988 GeodesicLength=0.14399751667238903 rxn_smarts="[C:1]([C@@:2]1([H:10])[O:3][C@:4]1([C:5]([O:6][H:14])([H:12])[H:13])[H:11])([H:7])([H:8])[H:9]>>[C:1]([C:2]([O+:3]=[C-:4][C:5]([O:6][H:14])([H:12])[H:13])([H:10])[H:11])([H:7])([H:8])[H:9]"
C        1.75891050      -0.05944576      -0.44837504
C        0.88178438      -0.62781721       0.62703627
O        0.27898916       0.28332106       1.50521764
C       -0.86879109      -0.23038256       0.86747614
C       -1.41357627       0.72699740      -0.15685612
O       -2.42009971       0.11568467      -0.92469524
H        1.24407418       0.68115765      -1.05681114
H        2.12230508      -0.85713410      -1.09773533
H        2.61987353       0.42734421       0.01291310
H        1.32468668      -1.45456776       1.18635571
H       -0.13974849      -1.23852223       0.23117520
H       -0.69757616       1.17298368      -0.85159702
H       -1.80701576       1.55771726       0.45167717
H       -2.88381601      -0.49733629      -0.34578134
14
Frame=3 idx=002988 GeodesicLength=0.21549436633415098 rxn_smarts="[C:1]([C@@:2]1([H:10])[O:3][C@:4]1([C:5]([O:6][H:14])([H:12])[H:13])[H:11])([H:7])([H:8])[H:9]>>[C:1]([C:2]([O+:3]=[C-:4][C:5]([O:6][H:14])([H:12])[H:13])([H:10])[H:11])([H:7])([H:8])[H:9]"
C        1.77861484      -0.05554914      -0.43809875
C        0.88774931      -0.63676167       0.61958287
O        0.26661840       0.27204864       1.49096421
C       -0.86456177      -0.24143481       0.83491815
C       -1.42622499       0.72703883      -0.16706779
O       -2.46863916       0.13248792      -0.89958086
H        1.26616787       0.68020468      -1.05459514
H        2.16263529      -0.84766481      -1.08252943
H        2.62662486       0.44012393       0.03754668
H        1.33602348      -1.45279579       1.19001203
H       -0.13523738      -1.26643196       0.21614169
H       -0.72476848       1.15754498      -0.88649871
H       -1.78512721       1.56881650       0.44705774
H       -2.91987505      -0.47762730      -0.30785270
14
Frame=4 idx=002988 GeodesicLength=0.28662922533019797 rxn_smarts="[C:1]([C@@:2]1([H:10])[O:3][C@:4]1([C:5]([O:6][H:14])([H:12])[H:13])[H:11])([H:7])([H:8])[H:9]>>[C:1]([C:2]([O+:3]=[C-:4][C:5]([O:6][H:14])([H:12])[H:13])([H:10])[H:11])([H:7])([H:8])[H:9]"
C        1.79827978      -0.05131471      -0.42730580
C        0.89372417      -0.64597315       0.61172739
O        0.25357286       0.25984355       1.47608412
C       -0.86017503      -0.25272682       0.80046451
C       -1.43902050       0.72708475      -0.17791871
O       -2.51713748       0.15023228      -0.87225584
H        1.28866962       0.67971685      -1.05194979
H        2.20324686      -0.83739918      -1.06642229
H        2.63266180       0.45310813       0.06308461
H        1.34674576      -1.45123432       1.19340222
H       -0.13053568      -1.29495684       0.20058349
H       -0.75355464       1.14113731      -0.92255197
H       -1.76185767       1.57975091       0.44066859
H       -2.95461983      -0.45726876      -0.26761050
14
Frame=5 idx=002988 GeodesicLength=0.3573975094663562 rxn_smarts="[C:1]([C@@:2]1([H:10])[O:3][C@:4]1([C:5]([O:6][H:14])([H:12])[H:13])[H:11])([H:7])([H:8])[H:9]>>[C:1]([C:2]([O+:3]=[C-:4][C:5]([O:6][H:14])([H:12])[H:13])([H:10])[H:11])([H:7])([H:8])[H:9]"
C        1.81783797      -0.04674919      -0.41597652
C        0.89966530      -0.65545268       0.60345615
O        0.23977774       0.24664581       1.46052542
C       -0.85561014      -0.26419240       0.76402493
C       -1.45194367       0.72718294      -0.18941095
O       -2.56535415       0.16895527      -0.84258072
H        1.31153013       0.67967792      -1.04883331
H        2.24405576      -0.82631263      -1.04938139
H        2.63789828       0.46625233       0.08953533
H        1.35676910      -1.44990290       1.19651062
H       -0.12572225      -1.32407702       0.18452373
H       -0.78412126       1.12387726      -0.95971828
H       -1.73714258       1.59051646       0.43235144
H       -2.98764025      -0.43642116      -0.22502645
14
Frame=6 idx=002988 GeodesicLength=0.4278021485744335 rxn_smarts="[C:1]([C@@:2]1([H:10])[O:3][C@:4]1([C:5]([O:6][H:14])([H:12])[H:13])[H:11])([H:7])([H:8])[H:9]>>[C:1]([C:2]([O+:3]=[C-:4][C:5]([O:6][H:14])([H:12])[H:13])([H:10])[H:11])([H:7])([H:8])[H:9]"
C        1.83724072      -0.04185538      -0.40407062
C        0.90554338      -0.66520962       0.59471293
O        0.22518271       0.23240317       1.44420438
C       -0.85082287      -0.27579614       0.72544825
C       -1.46498484       0.72735053      -0.20157733
O       -2.61301860       0.18865101      -0.81033398
H        1.33474850       0.68010517      -1.04525350
H        2.28505964      -0.81441507      -1.03126036
H        2.64219983       0.47955278       0.11697921
H        1.36600983      -1.44885586       1.19928457
H       -0.12085036      -1.35378415       0.16792193
H       -0.81676438       1.10584942      -0.99794326
H       -1.71095603       1.60107139       0.42187169
H       -3.01858753      -0.41506725      -0.17998389
14
Frame=7 idx=002988 GeodesicLength=0.49784503933750845 rxn_smarts="[C:1]([C@@:2]1([H:10])[O:3][C@:4]1([C:5]([O:6][H:14])([H:12])[H:13])[H:11])([H:7])([H:8])[H:9]>>[C:1]([C:2]([O+:3]=[C-:4][C:5]([O:6][H:14])([H:12])[H:13])([H:10])[H:11])([H:7])([H:8])[H:9]"
C        1.85643626      -0.03667445      -0.39156716
C        0.91131663      -0.67523019       0.58547754
O        0.20974896       0.21712544       1.42702019
C       -0.84576449      -0.28743093       0.68463456
C       -1.47814199       0.72763970      -0.21440711
O       -2.65977845       0.20929570      -0.77537517
H        1.35832810       0.68097549      -1.04118384
H        2.32615808      -0.80174920      -1.01201020
H        2.64549763       0.49290195       0.14541740
H        1.37436483      -1.44810278       1.20172442
H       -0.11601188      -1.38403014       0.15080118
H       -0.85173921       1.08729592      -1.03711378
H       -1.68341699       1.61136966       0.40908862
H       -3.04699747      -0.39338617      -0.13250666
14
Frame=8 idx=002988 GeodesicLength=0.5675535087524222 rxn_smarts="[C:1]([C@@:2]1([H:10])[O:3][C@:4]1([C:5]([O:6][H:14])([H:12])[H:13])[H:11])([H:7])([H:8])[H:9]>>[C:1]([C:2]([O+:3]=[C-:4][C:5]([O:6][H:14])([H:12])[H:13])([H:10])[H:11])([H:7])([H:8])[H:9]"
C        1.87538795      -0.03121900      -0.37839687
C        0.91694750      -0.68551568       0.57567177
O        0.19339943       0.20077749       1.40882311
C       -0.84035584      -0.29902108       0.64142511
C       -1.49140447       0.72803226      -0.22797259
O       -2.70535510       0.23093969      -0.73736872
H        1.38232161       0.68231012      -1.03658929
H        2.36735782      -0.78833801      -0.99142908
H        2.64765019       0.50626888       0.17497182
H        1.38170700      -1.44769909       1.20375018
H       -0.11128985      -1.41474515       0.13305642
H       -0.88940381       1.06831558      -1.07718288
H       -1.65454719       1.62132260       0.39366698
H       -3.07241525      -0.37142860      -0.08242595
14
Frame=9 idx=002988 GeodesicLength=0.6371325779535668 rxn_smarts="[C:1]([C@@:2]1([H:10])[O:3][C@:4]1([C:5]([O:6][H:14])([H:12])[H:13])[H:11])([H:7])([H:8])[H:9]>>[C:1]([C:2]([O+:3]=[C-:4][C:5]([O:6][H:14])([H:12])[H:13])([H:10])[H:11])([H:7])([H:8])[H:9]"
C        1.89430170      -0.02561526      -0.36454161
C        0.92253721      -0.69601414       0.56533762
O        0.17629100       0.18357479       1.38939228
C       -0.83432433      -0.31030304       0.59570777
C       -1.50496066       0.72836871      -0.24226788
O       -2.74970004       0.25367977      -0.69643321
H        1.40704832       0.68402358      -1.03135138
H        2.40870131      -0.77434591      -0.96957674
H        2.64894445       0.51938038       0.20556420
H        1.38800707      -1.44758653       1.20544760
H       -0.10667240      -1.44579435       0.11471626
H       -0.93004632       1.04904498      -1.11779750
H       -1.62533097       1.63061399       0.37568868
H       -3.09479635      -0.34902697      -0.02988610
14
Frame=10 idx=002988 GeodesicLength=0.7064388984637703 rxn_smarts="[C:1]([C@@:2]1([H:10])[O:3][C@:4]1([C:5]([O:6][H:14])([H:12])[H:13])[H:11])([H:7])([H:8])[H:9]>>[C:1]([C:2]([O+:3]=[C-:4][C:5]([O:6][H:14])([H:12])[H:13])([H:10])[H:11])([H:7])([H:8])[H:9]"
C        1.91293663      -0.01980514      -0.34989342
C        0.92786534      -0.70674272       0.55431141
O        0.15816767       0.16537328       1.36862183
C       -0.82775552      -0.32118672       0.54731265
C       -1.51867656       0.72884442      -0.25737330
O       -2.79209277       0.27719135      -0.65197955
H        1.43237762       0.68626598      -1.02544023
H        2.45003740      -0.75971427      -0.94614192
H        2.64896305       0.53226744       0.23746878
H        1.39292765      -1.44791950       1.20661461
H       -0.10248700      -1.47703813       0.09558800
H       -0.97412379       1.02959771      -1.15912844
H       -1.59504309       1.63952094       0.35458932
H       -3.11309664      -0.32665466       0.02545027
14
Frame=11 idx=002988 GeodesicLength=0.7755065944739039 rxn_smarts="[C:1]([C@@:2]1([H:10])[O:3][C@:4]1([C:5]([O:6][H:14])([H:12])[H:13])[H:11])([H:7])([H:8])[H:9]>>[C:1]([C:2]([O+:3]=[C-:4][C:5]([O:6][H:14])([H:12])[H:13])([H:10])[H:11])([H:7])([H:8])[H:9]"
C        1.93126576      -0.01389552      -0.33442171
C        0.93286571      -0.71764185       0.54256040
O        0.13905760       0.14634964       1.34632923
C       -0.82054401      -0.33135649       0.49620604
C       -1.53260221       0.72954340      -0.27322170
O       -2.83203457       0.30117136      -0.60394143
H        1.45840306       0.68900197      -1.01879488
H        2.49121998      -0.74461256      -0.92105532
H        2.64771654       0.54469173       0.27066584
H        1.39626834      -1.44869760       1.20724457
H       -0.09896765      -1.50825051       0.07566716
H       -1.02194811       1.01033129      -1.20093908
H       -1.56402550       1.64806959       0.33027787
H       -3.12667495      -0.30470444       0.08342301
14
Frame=12 idx=002988 GeodesicLength=0.8443955704628819 rxn_smarts="[C:1]([C@@:2]1([H:10])[O:3][C@:4]1([C:5]([O:6][H:14])([H:12])[H:13])[H:11])([H:7])([H:8])[H:9]>>[C:1]([C:2]([O+:3]=[C-:4][C:5]([O:6][H:14])([H:12])[H:13])([H:10])[H:11])([H:7])([H:8])[H:9]"
C        1.94928728      -0.00794186      -0.31804264
C        0.93746324      -0.72866255       0.53001517
O        0.11897431       0.12666558       1.32230083
C       -0.81256755      -0.34054197       0.44226575
C       -1.54678995       0.73046391      -0.28987721
O       -2.86902212       0.32543111      -0.55204830
H        1.48528692       0.69229319      -1.01129111
H        2.53214376      -0.72917149      -0.89413603
H        2.64517255       0.55647209       0.30527884
H        1.39778489      -1.44997235       1.20725762
H       -0.09634286      -1.53919176       0.05478627
H       -1.07393280       0.99130017      -1.24305034
H       -1.53261724       1.65621807       0.30242857
H       -3.13484040      -0.28336214       0.14411258
14
Frame=13 idx=002988 GeodesicLength=0.9131505285251734 rxn_smarts="[C:1]([C@@:2]1([H:10])[O:3][C@:4]1([C:5]([O:6][H:14])([H:12])[H:13])[H:11])([H:7])([H:8])[H:9]>>[C:1]([C:2]([O+:3]=[C-:4][C:5]([O:6][H:14])([H:12])[H:13])([H:10])[H:11])([H:7])([H:8])[H:9]"
C        1.96710939      -0.00218194      -0.30081636
C        0.94167502      -0.73964458       0.51672041
O        0.09821343       0.10682766       1.29638179
C       -0.80359606      -0.34819593       0.38561810
C       -1.56140950       0.73164172      -0.30713011
O       -2.90263588       0.34975523      -0.49657258
H        1.51328597       0.69599837      -1.00289879
H        2.57262756      -0.71384675      -0.86546254
H        2.64163804       0.56718913       0.34107676
H        1.39731382      -1.45161795       1.20674330
H       -0.09487093      -1.56947600       0.03310625
H       -1.13035667       0.97291185      -1.28481940
H       -1.50182618       1.66396711       0.27129478
H       -3.13716802      -0.26332792       0.20675837
14
Frame=14 idx=002988 GeodesicLength=0.9818566103815818 rxn_smarts="[C:1]([C@@:2]1([H:10])[O:3][C@:4]1([C:5]([O:6][H:14])([H:12])[H:13])[H:11])([H:7])([H:8])[H:9]>>[C:1]([C:2]([O+:3]=[C-:4][C:5]([O:6][H:14])([H:12])[H:13])([H:10])[H:11])([H:7])([H:8])[H:9]"
C        1.98462438       0.00338453      -0.28259645
C        0.94530900      -0.75055308       0.50254283
O        0.07667533       0.08697148       1.26837417
C       -0.79360141      -0.35401717       0.32622191
C       -1.57641748       0.73313820      -0.32509151
O       -2.93214104       0.37354987      -0.43712230
H        1.54246324       0.70023662      -0.99346768
H        2.61254641      -0.69869124      -0.83476915
H        2.63691787       0.57675218       0.37832229
H        1.39446688      -1.45376920       1.20553185
H       -0.09497391      -1.59875878       0.01029167
H       -1.19156871       0.95510022      -1.32621024
H       -1.47158384       1.67146734       0.23628238
H       -3.13271673      -0.24481096       0.27169023
14
Frame=15 idx=002988 GeodesicLength=1.0505997046181925 rxn_smarts="[C:1]([C@@:2]1([H:10])[O:3][C@:4]1([C:5]([O:6][H:14])([H:12])[H:13])[H:11])([H:7])([H:8])[H:9]>>[C:1]([C:2]([O+:3]=[C-:4][C:5]([O:6][H:14])([H:12])[H:13])([H:10])[H:11])([H:7])([H:8])[H:9]"
C        2.00189274       0.00851460      -0.26345461
C        0.94831638      -0.76118919       0.48753074
O        0.05466256       0.06772601       1.23816769
C       -0.78242465      -0.35736323       0.26436374
C       -1.59192133       0.73507644      -0.34353965
O       -2.95701387       0.39617529      -0.37409079
H        1.57302134       0.70487306      -0.98299980
H        2.65164543      -0.68422637      -0.80213814
H        2.63131356       0.58474755       0.41676727
H        1.38902334      -1.45629056       1.20369398
H       -0.09706656      -1.62653716      -0.01352489
H       -1.25760580       0.93822127      -1.36656215
H       -1.44281967       1.67889294       0.19767194
H       -3.12102348      -0.22862065       0.33811468
14
Frame=16 idx=002988 GeodesicLength=1.1195689365257855 rxn_smarts="[C:1]([C@@:2]1([H:10])[O:3][C@:4]1([C:5]([O:6][H:14])([H:12])[H:13])[H:11])([H:7])([H:8])[H:9]>>[C:1]([C:2]([O+:3]=[C-:4][C:5]([O:6][H:14])([H:12])[H:13])([H:10])[H:11])([H:7])([H:8])[H:9]"
C        2.01899412       0.01305557      -0.24339317
C        0.95065105      -0.77139030       0.47167926
O        0.03245358       0.04962329       1.20569150
C       -0.76993759      -0.35773269       0.20025423
C       -1.60802002       0.73742786      -0.36236884
O       -2.97683898       0.41720846      -0.30772512
H        1.60518364       0.70984563      -0.97142355
H        2.68980642      -0.67082737      -0.76754204
H        2.62504615       0.59092024       0.45633584
H        1.38076691      -1.45912874       1.20119203
H       -0.10151670      -1.65234065      -0.03840744
H       -1.32856231       0.92214606      -1.40530447
H       -1.41631100       1.68636042       0.15545941
H       -3.10171528      -0.21516777       0.40555236
