11
Frame=0 idx=005132 GeodesicLength=0.0 rxn_smarts="[C:1]1([H:7])([H:8])[C@@:2]2([H:9])[O:3][C:4]([H:10])=[N:5][C@@:6]12[H:11]>>[C:1](=[C:2]([O:3][C:4](=[N+:5]=[C-:6][H:11])[H:10])[H:9])([H:7])[H:8]"
C       -1.26073427       0.30471725      -0.41881577
C       -0.34448991      -0.41895979      -1.08430914
O        0.97074109      -0.10090211      -1.11601754
C        1.53301968       0.38448818       0.03468426
N        0.97467706       0.19327416       1.15371329
C       -0.19588330      -0.06387653       1.57991773
H       -1.06324753       1.31767721      -0.10418369
H       -2.28997049      -0.02573750      -0.41861335
H       -0.55845942      -1.34740540      -1.59836969
H        2.51896863       0.79786798      -0.10180466
H       -0.28462159      -1.04114343       2.07379858
11
Frame=1 idx=005132 GeodesicLength=0.049435516224883964 rxn_smarts="[C:1]1([H:7])([H:8])[C@@:2]2([H:9])[O:3][C:4]([H:10])=[N:5][C@@:6]12[H:11]>>[C:1](=[C:2]([O:3][C:4](=[N+:5]=[C-:6][H:11])[H:10])[H:9])([H:7])[H:8]"
C       -1.26281957       0.30938795      -0.41443823
C       -0.34304242      -0.43119197      -1.06300058
O        0.97169576      -0.10266813      -1.11275546
C        1.53345861       0.38966439       0.03457198
N        0.97552582       0.20296908       1.15450869
C       -0.20010818      -0.08176656       1.55982182
H       -1.06190816       1.32501007      -0.11012145
H       -2.29480418      -0.01225761      -0.42700831
H       -0.56073407      -1.35153736      -1.58945051
H        2.51953495       0.80291492      -0.10263686
H       -0.27679855      -1.05052478       2.07050890
11
Frame=2 idx=005132 GeodesicLength=0.09885417716028605 rxn_smarts="[C:1]1([H:7])([H:8])[C@@:2]2([H:9])[O:3][C:4]([H:10])=[N:5][C@@:6]12[H:11]>>[C:1](=[C:2]([O:3][C:4](=[N+:5]=[C-:6][H:11])[H:10])[H:9])([H:7])[H:8]"
C       -1.26480230       0.31356932      -0.40989075
C       -0.34158607      -0.44265916      -1.04244234
O        0.97250349      -0.10396457      -1.10984574
C        1.53388915       0.39449344       0.03434754
N        0.97627465       0.21195264       1.15507830
C       -0.20364744      -0.09898188       1.54006514
H       -1.06089923       1.33177731      -0.11571730
H       -2.29901217      -0.00026133      -0.43468187
H       -0.56277895      -1.35471476      -1.58139983
H        2.52029949       0.80723877      -0.10335289
H       -0.27024061      -1.05844979       2.06783975
11
Frame=3 idx=005132 GeodesicLength=0.1482491539101669 rxn_smarts="[C:1]1([H:7])([H:8])[C@@:2]2([H:9])[O:3][C:4]([H:10])=[N:5][C@@:6]12[H:11]>>[C:1](=[C:2]([O:3][C:4](=[N+:5]=[C-:6][H:11])[H:10])[H:9])([H:7])[H:8]"
C       -1.26669580       0.31731612      -0.40517955
C       -0.34010811      -0.45335300      -1.02265070
O        0.97316141      -0.10476519      -1.10726043
C        1.53423778       0.39911704       0.03400271
N        0.97690749       0.22033093       1.15542405
C       -0.20655540      -0.11562402       1.52060386
H       -1.06022971       1.33802993      -0.12099299
H       -2.30266491       0.01042110      -0.44173970
H       -0.56454259      -1.35709111      -1.57388326
H        2.52125715       0.81071731      -0.10393745
H       -0.26476731      -1.06509910       2.06561345
11
Frame=4 idx=005132 GeodesicLength=0.19764339772879658 rxn_smarts="[C:1]1([H:7])([H:8])[C@@:2]2([H:9])[O:3][C:4]([H:10])=[N:5][C@@:6]12[H:11]>>[C:1](=[C:2]([O:3][C:4](=[N+:5]=[C-:6][H:11])[H:10])[H:9])([H:7])[H:8]"
C       -1.26847607       0.32071550      -0.40029829
C       -0.33860807      -0.46333226      -1.00365569
O        0.97373196      -0.10519553      -1.10501688
C        1.53459665       0.40344739       0.03353443
N        0.97750998       0.22801273       1.15555161
C       -0.20889818      -0.13176403       1.50144584
H       -1.05976605       1.34385351      -0.12593672
H       -2.30583574       0.02001677      -0.44817398
H       -0.56604539      -1.35891833      -1.56671717
H        2.52230371       0.81381252      -0.10446235
H       -0.26051281      -1.07064827       2.06372922
11
Frame=5 idx=005132 GeodesicLength=0.24701633008456758 rxn_smarts="[C:1]1([H:7])([H:8])[C@@:2]2([H:9])[O:3][C:4]([H:10])=[N:5][C@@:6]12[H:11]>>[C:1](=[C:2]([O:3][C:4](=[N+:5]=[C-:6][H:11])[H:10])[H:9])([H:7])[H:8]"
C       -1.27009941       0.32383968      -0.39527246
C       -0.33707115      -0.47266088      -0.98545645
O        0.97425813      -0.10538956      -1.10307768
C        1.53499813       0.40740563       0.03295656
N        0.97812667       0.23495086       1.15549016
C       -0.21072006      -0.14749365       1.48256637
H       -1.05937584       1.34930909      -0.13058258
H       -2.30854355       0.02876366      -0.45411125
H       -0.56738302      -1.36032637      -1.55965732
H        2.52325278       0.81691192      -0.10500314
H       -0.25744268      -1.07531038       2.06214779
11
Frame=6 idx=005132 GeodesicLength=0.296432581855378 rxn_smarts="[C:1]1([H:7])([H:8])[C@@:2]2([H:9])[O:3][C:4]([H:10])=[N:5][C@@:6]12[H:11]>>[C:1](=[C:2]([O:3][C:4](=[N+:5]=[C-:6][H:11])[H:10])[H:9])([H:7])[H:8]"
C       -1.27159939       0.32673391      -0.39006914
C       -0.33549930      -0.48137296      -0.96802358
O        0.97475900      -0.10537310      -1.10142184
C        1.53542129       0.41105767       0.03228746
N        0.97875742       0.24124342       1.15526035
C       -0.21206401      -0.16287396       1.46395033
H       -1.05906575       1.35444821      -0.13491746
H       -2.31088867       0.03679694      -0.45955593
H       -0.56848828      -1.36149125      -1.55263731
H        2.52411965       0.81997270      -0.10554009
H       -0.25545197      -1.07914157       2.06066721
11
Frame=7 idx=005132 GeodesicLength=0.3458467786092771 rxn_smarts="[C:1]1([H:7])([H:8])[C@@:2]2([H:9])[O:3][C:4]([H:10])=[N:5][C@@:6]12[H:11]>>[C:1](=[C:2]([O:3][C:4](=[N+:5]=[C-:6][H:11])[H:10])[H:9])([H:7])[H:8]"
C       -1.27291856       0.32940159      -0.38468706
C       -0.33389599      -0.48952373      -0.95135213
O        0.97528115      -0.10530036      -1.10000198
C        1.53591207       0.41425263       0.03155277
N        0.97943801       0.24678016       1.15490163
C       -0.21298910      -0.17797895       1.44559162
H       -1.05872622       1.35926389      -0.13893377
H       -2.31278763       0.04423363      -0.46457644
H       -0.56952632      -1.36241795      -1.54569577
H        2.52472950       0.82338598      -0.10612503
H       -0.25451690      -1.08209689       2.05932616
11
Frame=8 idx=005132 GeodesicLength=0.3952831551070232 rxn_smarts="[C:1]1([H:7])([H:8])[C@@:2]2([H:9])[O:3][C:4]([H:10])=[N:5][C@@:6]12[H:11]>>[C:1](=[C:2]([O:3][C:4](=[N+:5]=[C-:6][H:11])[H:10])[H:9])([H:7])[H:8]"
C       -1.27407643       0.33192933      -0.37915356
C       -0.33223770      -0.49720109      -0.93538056
O        0.97584205      -0.10518750      -1.09881849
C        1.53648294       0.41706104       0.03073460
N        0.98019087       0.25167399       1.15440509
C       -0.21350559      -0.19281500       1.42749385
H       -1.05830767       1.36385111      -0.14270839
H       -2.31438548       0.05122497      -0.46918872
H       -0.57040718      -1.36322128      -1.53863668
H        2.52507610       0.82720523      -0.10682559
H       -0.25467190      -1.08452081       2.05807844
11
Frame=9 idx=005132 GeodesicLength=0.4447536794616941 rxn_smarts="[C:1]1([H:7])([H:8])[C@@:2]2([H:9])[O:3][C:4]([H:10])=[N:5][C@@:6]12[H:11]>>[C:1](=[C:2]([O:3][C:4](=[N+:5]=[C-:6][H:11])[H:10])[H:9])([H:7])[H:8]"
C       -1.27504935       0.33430941      -0.37345234
C       -0.33054120      -0.50446865      -0.92006986
O        0.97645234      -0.10510206      -1.09782903
C        1.53714923       0.41946254       0.02986946
N        0.98102919       0.25593976       1.15381800
C       -0.21365632      -0.20740664       1.40962775
H       -1.05776882       1.36819698      -0.14623162
H       -2.31562231       0.05781740      -0.47342473
H       -0.57126895      -1.36392973      -1.53159978
H        2.52512480       0.83155326      -0.10763706
H       -0.25584860      -1.08637227       2.05692922
11
Frame=10 idx=005132 GeodesicLength=0.49421256646144607 rxn_smarts="[C:1]1([H:7])([H:8])[C@@:2]2([H:9])[O:3][C:4]([H:10])=[N:5][C@@:6]12[H:11]>>[C:1](=[C:2]([O:3][C:4](=[N+:5]=[C-:6][H:11])[H:10])[H:9])([H:7])[H:8]"
C       -1.27584437       0.33649195      -0.36752470
C       -0.32879261      -0.51128025      -0.90543316
O        0.97714096      -0.10507250      -1.09702918
C        1.53790350       0.42139460       0.02896039
N        0.98198642       0.25948650       1.15313478
C       -0.21349902      -0.22183554       1.39205588
H       -1.05715098       1.37225335      -0.14942364
H       -2.31649601       0.06400636      -0.47725969
H       -0.57205309      -1.36452289      -1.52470894
H        2.52482484       0.83641937      -0.10855337
H       -0.25801965      -1.08734095       2.05578163
11
Frame=11 idx=005132 GeodesicLength=0.5437250502038905 rxn_smarts="[C:1]1([H:7])([H:8])[C@@:2]2([H:9])[O:3][C:4]([H:10])=[N:5][C@@:6]12[H:11]>>[C:1](=[C:2]([O:3][C:4](=[N+:5]=[C-:6][H:11])[H:10])[H:9])([H:7])[H:8]"
C       -1.27650261       0.33857208      -0.36144218
C       -0.32700755      -0.51784572      -0.89138305
O        0.97790437      -0.10509217      -1.09639832
C        1.53874456       0.42298966       0.02802054
N        0.98298139       0.26256363       1.15241096
C       -0.21298567      -0.23607989       1.37466645
H       -1.05640533       1.37614719      -0.15240934
H       -2.31716860       0.06992622      -0.48077390
H       -0.57282528      -1.36507922      -1.51789034
H        2.52428039       0.84176432      -0.10954212
H       -0.26101569      -1.08786610       2.05474130
11
Frame=12 idx=005132 GeodesicLength=0.5932203725113259 rxn_smarts="[C:1]1([H:7])([H:8])[C@@:2]2([H:9])[O:3][C:4]([H:10])=[N:5][C@@:6]12[H:11]>>[C:1](=[C:2]([O:3][C:4](=[N+:5]=[C-:6][H:11])[H:10])[H:9])([H:7])[H:8]"
C       -1.27695241       0.34046578      -0.35514069
C       -0.32514784      -0.52400758      -0.87790428
O        0.97873402      -0.10518475      -1.09591159
C        1.53967569       0.42413282       0.02702083
N        0.98414597       0.26496355       1.15155676
C       -0.21222150      -0.25018421       1.35758506
H       -1.05554089       1.37974327      -0.15512517
H       -2.31744609       0.07550911      -0.48389940
H       -0.57352902      -1.36549210      -1.51118166
H        2.52330735       0.84767638      -0.11068215
H       -0.26502527      -1.08762228       2.05368228
11
Frame=13 idx=005132 GeodesicLength=0.6427272893062626 rxn_smarts="[C:1]1([H:7])([H:8])[C@@:2]2([H:9])[O:3][C:4]([H:10])=[N:5][C@@:6]12[H:11]>>[C:1](=[C:2]([O:3][C:4](=[N+:5]=[C-:6][H:11])[H:10])[H:9])([H:7])[H:8]"
C       -1.27724878       0.34222281      -0.34865617
C       -0.32324114      -0.52994649      -0.86496893
O        0.97965091      -0.10535598      -1.09557760
C        1.54071841       0.42492342       0.02599521
N        0.98541610       0.26687420       1.15066291
C       -0.21116948      -0.26414681       1.34072467
H       -1.05454666       1.38312978      -0.15760676
H       -2.31748095       0.08082267      -0.48667460
H       -0.57423819      -1.36582956      -1.50466991
H        2.52204457       0.85410658      -0.11192592
H       -0.26990478      -1.08680064       2.05269710
11
Frame=14 idx=005132 GeodesicLength=0.692259913256561 rxn_smarts="[C:1]1([H:7])([H:8])[C@@:2]2([H:9])[O:3][C:4]([H:10])=[N:5][C@@:6]12[H:11]>>[C:1](=[C:2]([O:3][C:4](=[N+:5]=[C-:6][H:11])[H:10])[H:9])([H:7])[H:8]"
C       -1.27739125       0.34384242      -0.34198105
C       -0.32126971      -0.53567944      -0.85254992
O        0.98065615      -0.10559568      -1.09538972
C        1.54186336       0.42536990       0.02493992
N        0.98679532       0.26830002       1.14971792
C       -0.20985296      -0.27798477       1.32408407
H       -1.05343241       1.38630632      -0.15985683
H       -2.31727449       0.08586886      -0.48906852
H       -0.57492395      -1.36608063      -1.49837079
H        2.52047558       0.86101544      -0.11326976
H       -0.27564562      -1.08536244       2.05174469
11
Frame=15 idx=005132 GeodesicLength=0.7418060182235778 rxn_smarts="[C:1]1([H:7])([H:8])[C@@:2]2([H:9])[O:3][C:4]([H:10])=[N:5][C@@:6]12[H:11]>>[C:1](=[C:2]([O:3][C:4](=[N+:5]=[C-:6][H:11])[H:10])[H:9])([H:7])[H:8]"
C       -1.27737266       0.34532348      -0.33511467
C       -0.31922928      -0.54122760      -0.84062494
O        0.98175328      -0.10591154      -1.09534023
C        1.54311698       0.42546675       0.02385766
N        0.98829716       0.26924125       1.14872341
C       -0.20829065      -0.29171456       1.30766452
H       -1.05219105       1.38926880      -0.16187405
H       -2.31682247       0.09065607      -0.49106607
H       -0.57559043      -1.36624155      -1.49232111
H        2.51857435       0.86841559      -0.11471495
H       -0.28224522      -1.08327669       2.05081043
11
Frame=16 idx=005132 GeodesicLength=0.7913573482518135 rxn_smarts="[C:1]1([H:7])([H:8])[C@@:2]2([H:9])[O:3][C:4]([H:10])=[N:5][C@@:6]12[H:11]>>[C:1](=[C:2]([O:3][C:4](=[N+:5]=[C-:6][H:11])[H:10])[H:9])([H:7])[H:8]"
C       -1.27718201       0.34666848      -0.32806023
C       -0.31711780      -0.54662145      -0.82917059
O        0.98295170      -0.10632929      -1.09541718
C        1.54449250       0.42519105       0.02275475
N        0.98993392       0.26969191       1.14768606
C       -0.20649971      -0.30535815       1.29146526
H       -1.05080075       1.39201775      -0.16366048
H       -2.31612468       0.09520310      -0.49265805
H       -0.57625183      -1.36630414      -1.48655686
H        2.51629432       0.87635789      -0.11626756
H       -0.28969567      -1.08051715       2.04988487
