10
Frame=0 idx=005715 GeodesicLength=0.0 rxn_smarts="[O:1]=[C:2]([O:3][C:4]([C:5]#[C:6][H:10])([H:8])[H:9])[H:7]>>[O:1]=[C:2]([O:3][C:4]([C:6](=[C:5])[H:10])([H:8])[H:9])[H:7]"
O       -1.27121128       0.32749298      -1.32318872
C       -1.58999349      -0.19925506      -0.29798289
O       -0.84761105      -0.25341550       0.81338316
C        0.44432958       0.30754354       0.73604834
C        1.54900246      -0.96350017       0.51215617
C        1.55623688      -0.37236389      -0.58759147
H       -2.54369842      -0.71143828      -0.12300761
H        0.41458919       1.20336651       0.10771590
H        0.73643611       0.61060991       1.73435751
H        1.55192001       0.05095995      -1.57189040
10
Frame=1 idx=005715 GeodesicLength=0.1289098211486378 rxn_smarts="[O:1]=[C:2]([O:3][C:4]([C:5]#[C:6][H:10])([H:8])[H:9])[H:7]>>[O:1]=[C:2]([O:3][C:4]([C:6](=[C:5])[H:10])([H:8])[H:9])[H:7]"
O       -1.34257800       0.38576591      -1.29441011
C       -1.62053779      -0.19135253      -0.28477882
O       -0.83621600      -0.29475093       0.79252869
C        0.44073664       0.30047561       0.71218443
C        1.54957276      -0.98401214       0.50632061
C        1.63971113      -0.34403993      -0.55990329
H       -2.56462303      -0.71733561      -0.09836133
H        0.40265626       1.19667193       0.08517932
H        0.70720774       0.63044662       1.70981083
H        1.62407031       0.01813106      -1.56857033
10
Frame=2 idx=005715 GeodesicLength=0.25036223838663363 rxn_smarts="[O:1]=[C:2]([O:3][C:4]([C:5]#[C:6][H:10])([H:8])[H:9])[H:7]>>[O:1]=[C:2]([O:3][C:4]([C:6](=[C:5])[H:10])([H:8])[H:9])[H:7]"
O       -1.41819556       0.43927153      -1.26061828
C       -1.65466287      -0.18348278      -0.26787718
O       -0.82638148      -0.33392818       0.76905776
C        0.43617114       0.29220815       0.68385344
C        1.54806717      -1.00621703       0.49406313
C        1.71799377      -0.31953796      -0.53076563
H       -2.58931748      -0.72096512      -0.06681035
H        0.39042378       1.18690252       0.05548235
H        0.67736114       0.64949712       1.67921356
H        1.71854040      -0.00374825      -1.55559879
10
Frame=3 idx=005715 GeodesicLength=0.3674456488211021 rxn_smarts="[O:1]=[C:2]([O:3][C:4]([C:5]#[C:6][H:10])([H:8])[H:9])[H:7]>>[O:1]=[C:2]([O:3][C:4]([C:6](=[C:5])[H:10])([H:8])[H:9])[H:7]"
O       -1.50012982       0.49032869      -1.22065773
C       -1.69238196      -0.17672280      -0.24754749
O       -0.81811865      -0.37214830       0.74190313
C        0.43053289       0.28206758       0.64970098
C        1.54446387      -1.03109191       0.47594589
C        1.79381143      -0.29931860      -0.49840496
H       -2.61855077      -0.72108825      -0.02627486
H        0.37789345       1.17253921       0.01609769
H        0.64621745       0.66841311       1.64082952
H        1.83626210      -0.01297873      -1.53159218
10
Frame=4 idx=005715 GeodesicLength=0.4815747227781036 rxn_smarts="[O:1]=[C:2]([O:3][C:4]([C:5]#[C:6][H:10])([H:8])[H:9])[H:7]>>[O:1]=[C:2]([O:3][C:4]([C:6](=[C:5])[H:10])([H:8])[H:9])[H:7]"
O       -1.59142959       0.54732563      -1.16924367
C       -1.73343961      -0.16965644      -0.22359004
O       -0.81139124      -0.40871933       0.71019026
C        0.42408264       0.27057792       0.60870961
C        1.53860129      -1.05860054       0.45226027
C        1.86904775      -0.28317287      -0.46046208
H       -2.64798085      -0.72463741       0.01915757
H        0.36607273       1.15306377      -0.03533292
H        0.61372893       0.68867693       1.59311844
H        1.97270794      -0.01485766      -1.49480745
10
Frame=5 idx=005715 GeodesicLength=0.5907802275261005 rxn_smarts="[O:1]=[C:2]([O:3][C:4]([C:5]#[C:6][H:10])([H:8])[H:9])[H:7]>>[O:1]=[C:2]([O:3][C:4]([C:6](=[C:5])[H:10])([H:8])[H:9])[H:7]"
O       -1.68871562       0.60637427      -1.10653359
C       -1.77668931      -0.16374224      -0.19702447
O       -0.80603864      -0.44551655       0.67220905
C        0.41665259       0.25684776       0.56008329
C        1.53178999      -1.08818841       0.42072572
C        1.94350192      -0.26944282      -0.41607982
H       -2.67963845      -0.72510340       0.07336821
H        0.35397886       1.12689337      -0.10013506
H        0.57908186       0.70933861       1.53505468
H        2.12607680      -0.00746059      -1.44166802
10
Frame=6 idx=005715 GeodesicLength=0.6935893204826736 rxn_smarts="[O:1]=[C:2]([O:3][C:4]([C:5]#[C:6][H:10])([H:8])[H:9])[H:7]>>[O:1]=[C:2]([O:3][C:4]([C:6](=[C:5])[H:10])([H:8])[H:9])[H:7]"
O       -1.79194293       0.67788460      -1.02213239
C       -1.82078463      -0.15467234      -0.16557357
O       -0.80258277      -0.47736529       0.63094128
C        0.40898484       0.24378025       0.50464495
C        1.52276092      -1.11842445       0.38256128
C        2.01362492      -0.26017162      -0.36527761
H       -2.70377325      -0.73972517       0.12053228
H        0.34310593       1.09471879      -0.17954711
H        0.54514310       0.73458481       1.46596781
H        2.28546387      -0.00060957      -1.37211693
10
Frame=7 idx=005715 GeodesicLength=0.7872102752380883 rxn_smarts="[O:1]=[C:2]([O:3][C:4]([C:5]#[C:6][H:10])([H:8])[H:9])[H:7]>>[O:1]=[C:2]([O:3][C:4]([C:6](=[C:5])[H:10])([H:8])[H:9])[H:7]"
O       -1.88956103       0.74696207      -0.92535647
C       -1.86255344      -0.14660623      -0.13279519
O       -0.80057044      -0.50809117       0.58514336
C        0.40069343       0.22965572       0.44371519
C        1.51404513      -1.14826483       0.33377074
C        2.07701468      -0.25233522      -0.30973474
H       -2.72704744      -0.74987210       0.17174983
H        0.33097697       1.05540133      -0.27026065
H        0.51059110       0.76056408       1.38791989
H        2.44641104       0.01258634      -1.28415195
10
Frame=8 idx=005715 GeodesicLength=0.8717438447728929 rxn_smarts="[O:1]=[C:2]([O:3][C:4]([C:5]#[C:6][H:10])([H:8])[H:9])[H:7]>>[O:1]=[C:2]([O:3][C:4]([C:6](=[C:5])[H:10])([H:8])[H:9])[H:7]"
O       -1.97610853       0.81333803      -0.81705159
C       -1.89986316      -0.13751149      -0.09785725
O       -0.80000754      -0.53442853       0.53927243
C        0.39226368       0.21698542       0.38058943
C        1.50545970      -1.17568315       0.27537618
C        2.12962313      -0.24680082      -0.25245003
H       -2.74491259      -0.76257236       0.21753073
H        0.31754919       1.01135150      -0.36769515
H        0.47798592       0.78914820       1.30391399
H        2.59801020       0.02617321      -1.18162875
10
Frame=9 idx=005715 GeodesicLength=0.9487185375480174 rxn_smarts="[O:1]=[C:2]([O:3][C:4]([C:5]#[C:6][H:10])([H:8])[H:9])[H:7]>>[O:1]=[C:2]([O:3][C:4]([C:6](=[C:5])[H:10])([H:8])[H:9])[H:7]"
O       -2.04745406       0.87389069      -0.70200755
C       -1.93097067      -0.12749503      -0.06106087
O       -0.80019480      -0.55531530       0.49698199
C        0.38397861       0.20741994       0.31855849
C        1.49772687      -1.19859728       0.20941597
C        2.16964926      -0.24353685      -0.19675840
H       -2.75661510      -0.77875477       0.25302682
H        0.30209260       0.96559432      -0.46576408
H        0.44877422       0.82066754       1.21777963
H        2.73301305       0.03612673      -1.07017201
10
Frame=10 idx=005715 GeodesicLength=1.0206758939533502 rxn_smarts="[O:1]=[C:2]([O:3][C:4]([C:5]#[C:6][H:10])([H:8])[H:9])[H:7]>>[O:1]=[C:2]([O:3][C:4]([C:6](=[C:5])[H:10])([H:8])[H:9])[H:7]"
O       -2.10210489       0.92207612      -0.59309586
C       -1.95568770      -0.11888190      -0.02547002
O       -0.80038509      -0.57410224       0.45561373
C        0.37567801       0.19964647       0.25821674
C        1.49219126      -1.21710128       0.13307210
C        2.19848166      -0.24187551      -0.14386491
H       -2.76611376      -0.78761555       0.29184949
H        0.28451223       0.92073367      -0.55951285
H        0.42121979       0.85053766       1.13266250
H        2.85220849       0.04658256      -0.94947092
10
Frame=11 idx=005715 GeodesicLength=1.0895148536474284 rxn_smarts="[O:1]=[C:2]([O:3][C:4]([C:5]#[C:6][H:10])([H:8])[H:9])[H:7]>>[O:1]=[C:2]([O:3][C:4]([C:6](=[C:5])[H:10])([H:8])[H:9])[H:7]"
O       -2.14394492       0.96276818      -0.48490304
C       -1.97431620      -0.11009972       0.01236335
O       -0.79970401      -0.58767732       0.41981884
C        0.36756815       0.19659492       0.20049012
C        1.48802186      -1.22868346       0.05159699
C        2.21664351      -0.24271859      -0.09521974
H       -2.76978934      -0.80080714       0.32027771
H        0.26414386       0.87927879      -0.64831512
H        0.39740084       0.88313692       1.04875987
H        2.95397626       0.04820741      -0.82486898
10
Frame=12 idx=005715 GeodesicLength=1.1557968912610133 rxn_smarts="[O:1]=[C:2]([O:3][C:4]([C:5]#[C:6][H:10])([H:8])[H:9])[H:7]>>[O:1]=[C:2]([O:3][C:4]([C:6](=[C:5])[H:10])([H:8])[H:9])[H:7]"
O       -2.17475153       0.99436843      -0.38409501
C       -1.98729644      -0.10303661       0.04901809
O       -0.79764509      -0.59934442       0.38477662
C        0.35973101       0.19664824       0.14456226
C        1.48730443      -1.23371714      -0.03464493
C        2.22660238      -0.24575409      -0.05042177
H       -2.77024682      -0.81090659       0.34996459
H        0.24197877       0.84299518      -0.73057862
H        0.37503783       0.91444836       0.96775162
H        3.03928547       0.04429865      -0.69633285
10
Frame=13 idx=005715 GeodesicLength=1.2206823183690212 rxn_smarts="[O:1]=[C:2]([O:3][C:4]([C:5]#[C:6][H:10])([H:8])[H:9])[H:7]>>[O:1]=[C:2]([O:3][C:4]([C:6](=[C:5])[H:10])([H:8])[H:9])[H:7]"
O       -2.19750136       1.01951443      -0.28647046
C       -1.99525870      -0.09724754       0.08629984
O       -0.79379339      -0.60835703       0.35134241
C        0.35212097       0.20061991       0.08930595
C        1.48986369      -1.23144311      -0.12336340
C        2.22957381      -0.25101630      -0.00890063
H       -2.76659903      -0.82205966       0.37683699
H        0.21740823       0.81161775      -0.80867948
H        0.35451485       0.94667312       0.88794875
H        3.10967092       0.03169845      -0.56431997
10
Frame=14 idx=005715 GeodesicLength=1.284796314897143 rxn_smarts="[O:1]=[C:2]([O:3][C:4]([C:5]#[C:6][H:10])([H:8])[H:9])[H:7]>>[O:1]=[C:2]([O:3][C:4]([C:6](=[C:5])[H:10])([H:8])[H:9])[H:7]"
O       -2.21364666       1.03908642      -0.18992864
C       -1.99831321      -0.09277555       0.12543046
O       -0.78768903      -0.61467856       0.31939574
C        0.34453755       0.20884258       0.03362548
C        1.49593012      -1.22103450      -0.21323919
C        2.22621144      -0.25766780       0.02945656
H       -2.75857283      -0.83538814       0.39984016
H        0.18971288       0.78469251      -0.88431303
H        0.33544373       0.98073584       0.80807367
H        3.16638601       0.00818720      -0.42834122
10
Frame=15 idx=005715 GeodesicLength=1.3482621992860984 rxn_smarts="[O:1]=[C:2]([O:3][C:4]([C:5]#[C:6][H:10])([H:8])[H:9])[H:7]>>[O:1]=[C:2]([O:3][C:4]([C:6](=[C:5])[H:10])([H:8])[H:9])[H:7]"
O       -2.22312515       1.05362848      -0.09510902
C       -1.99637870      -0.09012238       0.16429232
O       -0.77942898      -0.61970996       0.28591694
C        0.33702808       0.22018288      -0.02338461
C        1.50673286      -1.20294146      -0.30327939
C        2.21721049      -0.26580149       0.06582761
H       -2.74646864      -0.84818376       0.42417143
H        0.15977428       0.76169032      -0.95821251
H        0.31688266       1.01488543       0.72823691
H        3.20777310      -0.02362807      -0.28845968
10
Frame=16 idx=005715 GeodesicLength=1.4112943491222336 rxn_smarts="[O:1]=[C:2]([O:3][C:4]([C:5]#[C:6][H:10])([H:8])[H:9])[H:7]>>[O:1]=[C:2]([O:3][C:4]([C:6](=[C:5])[H:10])([H:8])[H:9])[H:7]"
O       -2.22592415       1.06395573      -0.00034607
C       -1.98919385      -0.08864909       0.20517981
O       -0.76888798      -0.62281467       0.25323023
C        0.32952313       0.23466423      -0.08119832
C        1.52244467      -1.17730611      -0.38955999
C        2.20308843      -0.27410688       0.09966620
H       -2.73048945      -0.86215444       0.44411618
H        0.12712368       0.74080792      -1.03080244
H        0.29901874       1.05037346       0.64797662
H        3.23329679      -0.06477015      -0.14826222
