18
Frame=0 idx=002969 GeodesicLength=0.0 rxn_smarts="[C:1]([C:2]([C:3]1([C:4]([H:12])([H:13])[H:14])[C:5]([H:15])([H:16])[C:6]1([H:17])[H:18])([H:10])[H:11])([H:7])([H:8])[H:9]>>[C:1](=[C:2]([H:10])[H:11])([H:7])[H:8].[C:3]([C:4]([H:12])([H:13])[H:14])(=[C:5]([H:15])[H:16])[C:6]([H:9])([H:17])[H:18]"
C        1.79196154      -0.77825280      -0.33762547
C        0.97715140      -0.56816891       0.82252696
C       -0.49661939       0.15590018       0.21373526
C       -0.22743074       1.65014568       0.12365455
C       -1.73525452      -0.19318511       0.75811940
C       -0.59833766      -0.49535768      -1.14314005
H        2.06837245      -1.78412882      -0.63075182
H        2.49251371      -0.00899045      -0.64368477
H        0.66659985      -0.58950120      -1.31607711
H        0.67339337      -1.47701763       1.33558895
H        1.33003710       0.17626426       1.53107202
H       -0.17904486       2.09506269       1.11913181
H       -1.01860771       2.15265159      -0.43701847
H        0.71975205       1.84535516      -0.38320632
H       -2.02929902      -1.23374065       0.81839637
H       -2.40705861       0.53160297       1.20820367
H       -1.13940167       0.06656803      -1.90452268
H       -0.88872732      -1.54520732      -1.13440228
18
Frame=1 idx=002969 GeodesicLength=0.11346274244094284 rxn_smarts="[C:1]([C:2]([C:3]1([C:4]([H:12])([H:13])[H:14])[C:5]([H:15])([H:16])[C:6]1([H:17])[H:18])([H:10])[H:11])([H:7])([H:8])[H:9]>>[C:1](=[C:2]([H:10])[H:11])([H:7])[H:8].[C:3]([C:4]([H:12])([H:13])[H:14])(=[C:5]([H:15])[H:16])[C:6]([H:9])([H:17])[H:18]"
C        1.80519760      -0.77612037      -0.33603875
C        0.98826946      -0.58643173       0.82487042
C       -0.49998458       0.16333811       0.21394583
C       -0.23052610       1.65616819       0.11500935
C       -1.74137943      -0.18922319       0.74972163
C       -0.62041187      -0.49403639      -1.13708948
H        2.09120862      -1.77711784      -0.63777953
H        2.51427520      -0.00307804      -0.61236290
H        0.66807334      -0.58103902      -1.32221670
H        0.69135526      -1.50476137       1.32543477
H        1.32530760       0.15012456       1.54899896
H       -0.18039104       2.10639616       1.10795329
H       -1.02005499       2.15901803      -0.44783963
H        0.71383240       1.84835624      -0.39832669
H       -2.02833188      -1.22982031       0.83587583
H       -2.40975023       0.53729895       1.20185510
H       -1.16021992       0.06576293      -1.90081417
H       -0.90646946      -1.54483491      -1.13119733
18
Frame=2 idx=002969 GeodesicLength=0.22688363885702167 rxn_smarts="[C:1]([C:2]([C:3]1([C:4]([H:12])([H:13])[H:14])[C:5]([H:15])([H:16])[C:6]1([H:17])[H:18])([H:10])[H:11])([H:7])([H:8])[H:9]>>[C:1](=[C:2]([H:10])[H:11])([H:7])[H:8].[C:3]([C:4]([H:12])([H:13])[H:14])(=[C:5]([H:15])[H:16])[C:6]([H:9])([H:17])[H:18]"
C        1.81893770      -0.77337722      -0.33420996
C        0.99935068      -0.60542847       0.82693618
C       -0.50355322       0.17086130       0.21395355
C       -0.23375909       1.66221079       0.10585508
C       -1.74743963      -0.18502182       0.74187934
C       -0.64292060      -0.49278847      -1.13086255
H        2.11514468      -1.76903428      -0.64492820
H        2.53624379       0.00295421      -0.57939846
H        0.66985222      -0.57245111      -1.32843029
H        0.70973226      -1.53357208       1.31406254
H        1.31963760       0.12248335       1.56707697
H       -0.18148536       2.11791119       1.09613883
H       -1.02178625       2.16529241      -0.45905293
H        0.70762671       1.85120130      -0.41418222
H       -2.02757711      -1.22493021       0.85377483
H       -2.41211917       0.54340841       1.19614144
H       -1.18128589       0.06480432      -1.89709428
H       -0.92459931      -1.54452363      -1.12765988
18
Frame=3 idx=002969 GeodesicLength=0.340273102130941 rxn_smarts="[C:1]([C:2]([C:3]1([C:4]([H:12])([H:13])[H:14])[C:5]([H:15])([H:16])[C:6]1([H:17])[H:18])([H:10])[H:11])([H:7])([H:8])[H:9]>>[C:1](=[C:2]([H:10])[H:11])([H:7])[H:8].[C:3]([C:4]([H:12])([H:13])[H:14])(=[C:5]([H:15])[H:16])[C:6]([H:9])([H:17])[H:18]"
C        1.83320227      -0.76998988      -0.33208925
C        1.01039919      -0.62519279       0.82869995
C       -0.50732327       0.17848462       0.21374528
C       -0.23712844       1.66828006       0.09616960
C       -1.75342532      -0.18056506       0.73462013
C       -0.66588746      -0.49160770      -1.12444648
H        2.14020741      -1.75980335      -0.65217057
H        2.55836406       0.00906727      -0.54472045
H        0.67196742      -0.56373601      -1.33471474
H        0.72856384      -1.56345716       1.30139804
H        1.31297005       0.09324104       1.58526160
H       -0.18230984       2.12960966       1.08365968
H       -1.02380829       2.17148058      -0.47067194
H        0.70112715       1.85388335      -0.43080154
H       -2.02697919      -1.21907707       0.87212777
H       -2.41417048       0.54995538       1.19104528
H       -1.20262399       0.06369286      -1.89335015
H       -0.94314511      -1.54426580      -1.12376222
18
Frame=4 idx=002969 GeodesicLength=0.45364609677711465 rxn_smarts="[C:1]([C:2]([C:3]1([C:4]([H:12])([H:13])[H:14])[C:5]([H:15])([H:16])[C:6]1([H:17])[H:18])([H:10])[H:11])([H:7])([H:8])[H:9]>>[C:1](=[C:2]([H:10])[H:11])([H:7])[H:8].[C:3]([C:4]([H:12])([H:13])[H:14])(=[C:5]([H:15])[H:16])[C:6]([H:9])([H:17])[H:18]"
C        1.84801083      -0.76592547      -0.32961335
C        1.02141873      -0.64576323       0.83013277
C       -0.51129295       0.18622304       0.21330675
C       -0.24063349       1.67438220       0.08592694
C       -1.75932521      -0.17583446       0.72797114
C       -0.68933868      -0.49048816      -1.11782620
H        2.16642617      -1.74933735      -0.65946240
H        2.58056085       0.01522530      -0.50826058
H        0.67445746      -0.55488895      -1.34106410
H        0.74789417      -1.59442426       1.28735421
H        1.30524160       0.06227766       1.60349674
H       -0.18284494       2.14149538       1.07048254
H       -1.02612895       2.17758741      -0.48271329
H        0.69432572       1.85639347      -0.44821603
H       -2.02647871      -1.21226266       0.89097091
H       -2.41590088       0.55696698       1.18655842
H       -1.22425628       0.06242776      -1.88957008
H       -0.96213545      -1.54405465      -1.11947438
18
Frame=5 idx=002969 GeodesicLength=0.5670197352920302 rxn_smarts="[C:1]([C:2]([C:3]1([C:4]([H:12])([H:13])[H:14])[C:5]([H:15])([H:16])[C:6]1([H:17])[H:18])([H:10])[H:11])([H:7])([H:8])[H:9]>>[C:1](=[C:2]([H:10])[H:11])([H:7])[H:8].[C:3]([C:4]([H:12])([H:13])[H:14])(=[C:5]([H:15])[H:16])[C:6]([H:9])([H:17])[H:18]"
C        1.86338419      -0.76114838      -0.32671197
C        1.03241602      -0.66717087       0.83120481
C       -0.51546065       0.19409248       0.21262261
C       -0.24427549       1.68052473       0.07510027
C       -1.76513062      -0.17081369       0.72195798
C       -0.71330239      -0.48942123      -1.11098507
H        2.19383016      -1.73754777      -0.66676605
H        2.60276230       0.02136743      -0.46994532
H        0.67736816      -0.54590013      -1.34747175
H        0.76776878      -1.62647495       1.27185049
H        1.29637962       0.02947172       1.62170922
H       -0.18307409       2.15357191       1.05657171
H       -1.02875744       2.18361907      -0.49519631
H        0.68721141       1.85872494      -0.46645666
H       -2.02601286      -1.20448689       0.91034025
H       -2.41730394       0.56446656       1.18268181
H       -1.24620952       0.06100833      -1.88574044
H       -0.98159364      -1.54388325      -1.11476557
18
Frame=6 idx=002969 GeodesicLength=0.6804027109121371 rxn_smarts="[C:1]([C:2]([C:3]1([C:4]([H:12])([H:13])[H:14])[C:5]([H:15])([H:16])[C:6]1([H:17])[H:18])([H:10])[H:11])([H:7])([H:8])[H:9]>>[C:1](=[C:2]([H:10])[H:11])([H:7])[H:8].[C:3]([C:4]([H:12])([H:13])[H:14])(=[C:5]([H:15])[H:16])[C:6]([H:9])([H:17])[H:18]"
C        1.87934159      -0.75562714      -0.32330178
C        1.04339564      -0.68945820       0.83187818
C       -0.51982185       0.20210719       0.21167659
C       -0.24805621       1.68671205       0.06366072
C       -1.77083016      -0.16548275       0.71660418
C       -0.73780595      -0.48839805      -1.10390522
H        2.22245173      -1.72433977      -0.67400958
H        2.62486743       0.02744754      -0.42970316
H        0.68075131      -0.53676120      -1.35393158
H        0.78823684      -1.65959819       1.25478319
H        1.28632439      -0.00531541       1.63981058
H       -0.18298246       2.16584203       1.04188870
H       -1.03170336       2.18957803      -0.50814166
H        0.67977424       1.86086666      -0.48555464
H       -2.02551569      -1.19574433       0.93027112
H       -2.41836618       0.57248061       1.17942131
H       -1.26851150       0.05943456      -1.88184504
H       -1.00154983      -1.54374361      -1.10960193
18
Frame=7 idx=002969 GeodesicLength=0.7938095321430948 rxn_smarts="[C:1]([C:2]([C:3]1([C:4]([H:12])([H:13])[H:14])[C:5]([H:15])([H:16])[C:6]1([H:17])[H:18])([H:10])[H:11])([H:7])([H:8])[H:9]>>[C:1](=[C:2]([H:10])[H:11])([H:7])[H:8].[C:3]([C:4]([H:12])([H:13])[H:14])(=[C:5]([H:15])[H:16])[C:6]([H:9])([H:17])[H:18]"
C        1.89590231      -0.74933301      -0.31929530
C        1.05436584      -0.71266381       0.83211587
C       -0.52437515       0.21028121       0.21045209
C       -0.25197880       1.69294878       0.05157848
C       -1.77641105      -0.15982145       0.71193367
C       -0.76288097      -0.48740693      -1.09656405
H        2.25232094      -1.70962311      -0.68111779
H        2.64677884       0.03341448      -0.38746625
H        0.68466062      -0.52746031      -1.36043889
H        0.80934825      -1.69377903       1.23605575
H        1.27501337      -0.04222574       1.65769827
H       -0.18256014       2.17830737       1.02639211
H       -1.03497774       2.19546699      -0.52157147
H        0.67200163       1.86280599      -0.50554068
H       -2.02492072      -1.18602549       0.95079263
H       -2.41906924       0.58103460       1.17678985
H       -1.29119149       0.05770493      -1.87786633
H       -1.02202648      -1.54362548      -1.10394795
18
Frame=8 idx=002969 GeodesicLength=0.9072489287787876 rxn_smarts="[C:1]([C:2]([C:3]1([C:4]([H:12])([H:13])[H:14])[C:5]([H:15])([H:16])[C:6]1([H:17])[H:18])([H:10])[H:11])([H:7])([H:8])[H:9]>>[C:1](=[C:2]([H:10])[H:11])([H:7])[H:8].[C:3]([C:4]([H:12])([H:13])[H:14])(=[C:5]([H:15])[H:16])[C:6]([H:9])([H:17])[H:18]"
C        1.91308173      -0.74223839      -0.31458264
C        1.06532846      -0.73683799       0.83186553
C       -0.52911653       0.21862898       0.20893126
C       -0.25604944       1.69923811       0.03881742
C       -1.78185038      -0.15380609       0.70797349
C       -0.78856047      -0.48643431      -1.08893666
H        2.28348086      -1.69328232      -0.68798667
H        2.66837654       0.03921463      -0.34314359
H        0.68916308      -0.51798703      -1.36698676
H        0.83115052      -1.72900300       1.21554407
H        1.26237757      -0.08142237       1.67523110
H       -0.18179376       2.19096874       1.01002983
H       -1.03859360       2.20128795      -0.53551437
H        0.66387630       1.86452822      -0.52645111
H       -2.02414455      -1.17531688       0.97194127
H       -2.41937814       0.59015754       1.17480651
H       -1.31428934       0.05581950      -1.87377920
H       -1.04305885      -1.54351527      -1.09775950
18
Frame=9 idx=002969 GeodesicLength=1.0207828912439978 rxn_smarts="[C:1]([C:2]([C:3]1([C:4]([H:12])([H:13])[H:14])[C:5]([H:15])([H:16])[C:6]1([H:17])[H:18])([H:10])[H:11])([H:7])([H:8])[H:9]>>[C:1](=[C:2]([H:10])[H:11])([H:7])[H:8].[C:3]([C:4]([H:12])([H:13])[H:14])(=[C:5]([H:15])[H:16])[C:6]([H:9])([H:17])[H:18]"
C        1.93084918      -0.73432122      -0.30892028
C        1.07628885      -0.76212959       0.83100807
C       -0.53402463       0.22713340       0.20709603
C       -0.26024139       1.70554488       0.02531463
C       -1.78709540      -0.14738194       0.70477623
C       -0.81491335      -0.48549245      -1.08098884
H        2.31598249      -1.67512654      -0.69436869
H        2.68935490       0.04504909      -0.29656775
H        0.69441271      -0.50828472      -1.37355299
H        0.85356546      -1.76527309       1.19296968
H        1.24841938      -0.12313623       1.69210044
H       -0.18062297       2.20381604       0.99271431
H       -1.04253389       2.20700679      -0.55000841
H        0.65541358       1.86595224      -0.54836246
H       -2.02310769      -1.16361185       0.99377215
H       -2.41917600       0.59992314       1.17356342
H       -1.33783385       0.05375162      -1.86957128
H       -1.06473738      -1.54341956      -1.09097426
18
Frame=10 idx=002969 GeodesicLength=1.1343443659438588 rxn_smarts="[C:1]([C:2]([C:3]1([C:4]([H:12])([H:13])[H:14])[C:5]([H:15])([H:16])[C:6]1([H:17])[H:18])([H:10])[H:11])([H:7])([H:8])[H:9]>>[C:1](=[C:2]([H:10])[H:11])([H:7])[H:8].[C:3]([C:4]([H:12])([H:13])[H:14])(=[C:5]([H:15])[H:16])[C:6]([H:9])([H:17])[H:18]"
C        1.94923302      -0.72555228      -0.30229287
C        1.08726765      -0.78848669       0.82951782
C       -0.53911016       0.23583675       0.20491833
C       -0.26459131       1.71190667       0.01104592
C       -1.79216245      -0.14055549       0.70234962
C       -0.84194827      -0.48454189      -1.07270391
H        2.34985883      -1.65509982      -0.70024139
H        2.70975615       0.05058504      -0.24767939
H        0.70040220      -0.49836364      -1.38014373
H        0.87679060      -1.80252216       1.16831427
H        1.23300260      -0.16749626       1.70827243
H       -0.17908781       2.21687278       0.97441370
H       -1.04684299       2.21265066      -0.56508827
H        0.64657094       1.86711868      -0.57128163
H       -2.02171294      -1.15088312       1.01631856
H       -2.41849065       0.61031740       1.17305252
H       -1.36188757       0.05152026      -1.86520607
H       -1.08704784      -1.54330688      -1.08356591
18
Frame=11 idx=002969 GeodesicLength=1.2479182618009628 rxn_smarts="[C:1]([C:2]([C:3]1([C:4]([H:12])([H:13])[H:14])[C:5]([H:15])([H:16])[C:6]1([H:17])[H:18])([H:10])[H:11])([H:7])([H:8])[H:9]>>[C:1](=[C:2]([H:10])[H:11])([H:7])[H:8].[C:3]([C:4]([H:12])([H:13])[H:14])(=[C:5]([H:15])[H:16])[C:6]([H:9])([H:17])[H:18]"
C        1.96822748      -0.71591261      -0.29457408
C        1.09828558      -0.81595170       0.82732874
C       -0.54436426       0.24474882       0.20237536
C       -0.26910203       1.71831985      -0.00403398
C       -1.79703090      -0.13329903       0.70072326
C       -0.86970305      -0.48356781      -1.06404847
H        2.38514926      -1.63307854      -0.70546984
H        2.72945701       0.05577745      -0.19638278
H        0.70720215      -0.48820743      -1.38675801
H        0.90087627      -1.84072713       1.14143536
H        1.21603885      -0.21467689       1.72357880
H       -0.17717855       2.23014398       0.95506117
H       -1.05152986       2.21821152      -0.58079468
H        0.63733486       1.86799820      -0.59525004
H       -2.01987127      -1.13710605       1.03961798
H       -2.41726917       0.62137239       1.17332194
H       -1.38650168       0.04911779      -1.86064865
H       -1.11002069      -1.54316280      -1.07548205
18
Frame=12 idx=002969 GeodesicLength=1.3615051348278784 rxn_smarts="[C:1]([C:2]([C:3]1([C:4]([H:12])([H:13])[H:14])[C:5]([H:15])([H:16])[C:6]1([H:17])[H:18])([H:10])[H:11])([H:7])([H:8])[H:9]>>[C:1](=[C:2]([H:10])[H:11])([H:7])[H:8].[C:3]([C:4]([H:12])([H:13])[H:14])(=[C:5]([H:15])[H:16])[C:6]([H:9])([H:17])[H:18]"
C        1.98781887      -0.70538368      -0.28560731
C        1.10935718      -0.84458872       0.82435340
C       -0.54978278       0.25387839       0.19944104
C       -0.27378018       1.72477751      -0.01997932
C       -1.80167620      -0.12557755       0.69993121
C       -0.89822537      -0.48255916      -1.05498309
H        2.42190045      -1.60890967      -0.70987890
H        2.74830481       0.06056541      -0.14254505
H        0.71489978      -0.47778460      -1.39339015
H        0.92589707      -1.87984235       1.11214160
H        1.19744205      -0.26488915       1.73780128
H       -0.17488753       2.24363408       0.93457705
H       -1.05660658       2.22367735      -0.59717655
H        0.62769028       1.86855463      -0.62031676
H       -2.01747299      -1.12224086       1.06372455
H       -2.41544364       0.63313404       1.17442632
H       -1.41173569       0.04653207      -1.85585939
H       -1.13369952      -1.54297774      -1.06665994
18
Frame=13 idx=002969 GeodesicLength=1.475095017122873 rxn_smarts="[C:1]([C:2]([C:3]1([C:4]([H:12])([H:13])[H:14])[C:5]([H:15])([H:16])[C:6]1([H:17])[H:18])([H:10])[H:11])([H:7])([H:8])[H:9]>>[C:1](=[C:2]([H:10])[H:11])([H:7])[H:8].[C:3]([C:4]([H:12])([H:13])[H:14])(=[C:5]([H:15])[H:16])[C:6]([H:9])([H:17])[H:18]"
C        2.00798834      -0.69395007      -0.27523673
C        1.12051037      -0.87444848       0.82049054
C       -0.55535658       0.26323229       0.19608670
C       -0.27863419       1.73126923      -0.03684714
C       -1.80606293      -0.11735863       0.70001282
C       -0.92756399      -0.48149700      -1.04546346
H        2.46014662      -1.58245812      -0.71327927
H        2.76614746       0.06487471      -0.08603237
H        0.72358495      -0.46705689      -1.40004315
H        0.95192620      -1.91981596       1.08025235
H        1.17710947      -0.31832591       1.75071273
H       -0.17220900       2.25734501       0.91287658
H       -1.06208938       2.22903051      -0.61428532
H        0.61762061       1.86874944      -0.64653016
H       -2.01440060      -1.10624979       1.08868100
H       -2.41293622       0.64564038       1.17642628
H       -1.43766001       0.04375142      -1.85079030
H       -1.15812111      -1.54273212      -1.05703109
18
Frame=14 idx=002969 GeodesicLength=1.5886765422409561 rxn_smarts="[C:1]([C:2]([C:3]1([C:4]([H:12])([H:13])[H:14])[C:5]([H:15])([H:16])[C:6]1([H:17])[H:18])([H:10])[H:11])([H:7])([H:8])[H:9]>>[C:1](=[C:2]([H:10])[H:11])([H:7])[H:8].[C:3]([C:4]([H:12])([H:13])[H:14])(=[C:5]([H:15])[H:16])[C:6]([H:9])([H:17])[H:18]"
C        2.02869522      -0.68159911      -0.26327316
C        1.13176872      -0.90558799       0.81562423
C       -0.56108038       0.27282131       0.19228372
C       -0.28367685       1.73778644      -0.05470382
C       -1.81014526      -0.10860429       0.70101585
C       -0.95777513      -0.48036301      -1.03543529
H        2.49993172      -1.55354209      -0.71542230
H        2.78279309       0.06858835      -0.02664227
H        0.73335836      -0.45598642      -1.40671390
H        0.97904645      -1.96057440       1.04552692
H        1.15498912      -0.37521648       1.76198499
H       -0.16914215       2.27128356       0.88985802
H       -1.06799922       2.23425109      -0.63218516
H        0.60710020       1.86853805      -0.67395077
H       -2.01052046      -1.08908961       1.11454258
H       -2.40965242       0.65894146       1.17938235
H       -1.46436235       0.04076434      -1.84538022
H       -1.18332866      -1.54241121      -1.04651179
18
Frame=15 idx=002969 GeodesicLength=1.702231683075321 rxn_smarts="[C:1]([C:2]([C:3]1([C:4]([H:12])([H:13])[H:14])[C:5]([H:15])([H:16])[C:6]1([H:17])[H:18])([H:10])[H:11])([H:7])([H:8])[H:9]>>[C:1](=[C:2]([H:10])[H:11])([H:7])[H:8].[C:3]([C:4]([H:12])([H:13])[H:14])(=[C:5]([H:15])[H:16])[C:6]([H:9])([H:17])[H:18]"
C        2.04989055      -0.66831868      -0.24950579
C        1.14316939      -0.93805684       0.80961921
C       -0.56694479       0.28265485       0.18799873
C       -0.28892280       1.74431753      -0.07362127
C       -1.81387499      -0.09927733       0.70299445
C       -0.98891590      -0.47913625      -1.02483704
H        2.54127511      -1.52199002      -0.71601669
H        2.79802994       0.07155878       0.03581207
H        0.74433095      -0.44452002      -1.41339622
H        1.00736418      -2.00200926       1.00771366
H        1.13101704      -0.43579577       1.77125127
H       -0.16569374       2.28545905       0.86541365
H       -1.07435694       2.23931340      -0.65094846
H        0.59610791       1.86787314      -0.70263562
H       -2.00568912      -1.07071758       1.14136032
H       -2.40549027       0.67308589       1.18336580
H       -1.49193443       0.03755390      -1.83956017
H       -1.20936212      -1.54199479      -1.03500790
18
Frame=16 idx=002969 GeodesicLength=1.8157418271103503 rxn_smarts="[C:1]([C:2]([C:3]1([C:4]([H:12])([H:13])[H:14])[C:5]([H:15])([H:16])[C:6]1([H:17])[H:18])([H:10])[H:11])([H:7])([H:8])[H:9]>>[C:1](=[C:2]([H:10])[H:11])([H:7])[H:8].[C:3]([C:4]([H:12])([H:13])[H:14])(=[C:5]([H:15])[H:16])[C:6]([H:9])([H:17])[H:18]"
C        2.07150159      -0.65408909      -0.23368883
C        1.15475580      -0.97190879       0.80229863
C       -0.57293825       0.29275006       0.18319340
C       -0.29438367       1.75085985      -0.09369316
C       -1.81719958      -0.08933786       0.70602750
C       -1.02105585      -0.47780315      -1.01360294
H        2.58420880      -1.48757031      -0.71469834
H        2.81159659       0.07357581       0.10160560
H        0.75662425      -0.43259551      -1.42007831
H        1.03701358      -2.04399203       0.96648911
H        1.10513336      -0.50035060       1.77804612
H       -0.16186032       2.29990437       0.83941438
H       -1.08118450       2.24419164      -0.67067209
H        0.58462780       1.86671176      -0.73267223
H       -1.99974262      -1.05108707       1.16922873
H       -2.40033088       0.68813380       1.18847290
H       -1.52048870       0.03408904      -1.83326116
H       -1.23627739      -1.54148192      -1.02240931
