13
Frame=0 idx=010406 GeodesicLength=0.0 rxn_smarts="[C:1]([c:2]1[c:3]([H:11])[n:4]([H:12])[c:5]([O:6][H:13])[n:7]1)([H:8])([H:9])[H:10]>>[C:1]([C:2]1=[N:7][C:5](=[O:6])[N:4]([H:12])[C:3]1([H:11])[H:13])([H:8])([H:9])[H:10]"
C        1.91233888       0.49403597       0.12004080
C        0.46787667       0.28024423      -0.15127700
C       -0.27312273      -0.92759428       0.12969383
N       -1.38804049      -0.80171068      -0.79103917
C       -1.51712680       0.55144921      -0.54212256
O       -2.27422582       0.77173443       0.46249382
N       -0.32336461       1.22169730      -0.61414210
H        2.13666277       1.55799726       0.15557628
H        2.50861493       0.03136733      -0.66979446
H        2.19509932       0.02798538       1.06507918
H        0.21473779      -1.88828712       0.25123482
H       -2.22677194      -1.28356937      -0.49842854
H       -1.43267803      -0.03534960       1.08268511
13
Frame=1 idx=010406 GeodesicLength=0.06255066314761414 rxn_smarts="[C:1]([c:2]1[c:3]([H:11])[n:4]([H:12])[c:5]([O:6][H:13])[n:7]1)([H:8])([H:9])[H:10]>>[C:1]([C:2]1=[N:7][C:5](=[O:6])[N:4]([H:12])[C:3]1([H:11])[H:13])([H:8])([H:9])[H:10]"
C        1.91519069       0.49250075       0.11773480
C        0.47043485       0.27710303      -0.14976146
C       -0.27383630      -0.92575246       0.14344037
N       -1.38322816      -0.80285958      -0.78254610
C       -1.52100824       0.55166607      -0.54742977
O       -2.28809520       0.78198932       0.44794370
N       -0.32311147       1.21596252      -0.61727640
H        2.13533477       1.55645557       0.17534772
H        2.50870757       0.05000185      -0.68560280
H        2.20882744       0.00865829       1.05042085
H        0.21309419      -1.88799378       0.25760323
H       -2.22271775      -1.29437148      -0.51069633
H       -1.43959240      -0.02336011       1.10082218
13
Frame=2 idx=010406 GeodesicLength=0.1250608824984808 rxn_smarts="[C:1]([c:2]1[c:3]([H:11])[n:4]([H:12])[c:5]([O:6][H:13])[n:7]1)([H:8])([H:9])[H:10]>>[C:1]([C:2]1=[N:7][C:5](=[O:6])[N:4]([H:12])[C:3]1([H:11])[H:13])([H:8])([H:9])[H:10]"
C        1.91801209       0.49090852       0.11538476
C        0.47302153       0.27385537      -0.14851363
C       -0.27455910      -0.92381171       0.15710183
N       -1.37862861      -0.80391612      -0.77383601
C       -1.52493065       0.55184459      -0.55275561
O       -2.30185990       0.79213968       0.43323305
N       -0.32293260       1.21021046      -0.62028185
H        2.13402009       1.55435553       0.19536025
H        2.50867281       0.06910333      -0.70106538
H        2.22244300      -0.01068469       1.03512847
H        0.21125831      -1.88759768       0.26427435
H       -2.21821896      -1.30540272      -0.52328042
H       -1.44629800      -0.01100456       1.11925019
13
Frame=3 idx=010406 GeodesicLength=0.18754136881962807 rxn_smarts="[C:1]([c:2]1[c:3]([H:11])[n:4]([H:12])[c:5]([O:6][H:13])[n:7]1)([H:8])([H:9])[H:10]>>[C:1]([C:2]1=[N:7][C:5](=[O:6])[N:4]([H:12])[C:3]1([H:11])[H:13])([H:8])([H:9])[H:10]"
C        1.92079840       0.48925759       0.11298981
C        0.47563446       0.27049097      -0.14755016
C       -0.27528884      -0.92177266       0.17067113
N       -1.37425821      -0.80487735      -0.76490057
C       -1.52890025       0.55198478      -0.55809382
O       -2.31552122       0.80219143       0.41837153
N       -0.32283463       1.20444002      -0.62315965
H        2.13271246       1.55168129       0.21558281
H        2.50851955       0.08864906      -0.71614331
H        2.23591845      -0.03000531       1.01921763
H        0.20923637      -1.88710661       0.27122129
H       -2.21325323      -1.31665987      -0.53619981
H       -1.45276329       0.00172665       1.13799313
13
Frame=4 idx=010406 GeodesicLength=0.25001710200786575 rxn_smarts="[C:1]([c:2]1[c:3]([H:11])[n:4]([H:12])[c:5]([O:6][H:13])[n:7]1)([H:8])([H:9])[H:10]>>[C:1]([C:2]1=[N:7][C:5](=[O:6])[N:4]([H:12])[C:3]1([H:11])[H:13])([H:8])([H:9])[H:10]"
C        1.92354739       0.48754461       0.11054430
C        0.47826914       0.26700361      -0.14687292
C       -0.27602585      -0.91963074       0.18415952
N       -1.37012733      -0.80574481      -0.75572426
C       -1.53292145       0.55208401      -0.56344344
O       -2.32909601       0.81215304       0.40334215
N       -0.32282376       1.19865159      -0.62590717
H        2.13140328       1.54840173       0.23602052
H        2.50824092       0.10864581      -0.73082438
H        2.24925227      -0.04929672       1.00266476
H        0.20703003      -1.88652181       0.27845057
H       -2.20778261      -1.32814735      -0.54948539
H       -1.45896603       0.01485704       1.15707573
13
Frame=5 idx=010406 GeodesicLength=0.31248863616818395 rxn_smarts="[C:1]([c:2]1[c:3]([H:11])[n:4]([H:12])[c:5]([O:6][H:13])[n:7]1)([H:8])([H:9])[H:10]>>[C:1]([C:2]1=[N:7][C:5](=[O:6])[N:4]([H:12])[C:3]1([H:11])[H:13])([H:8])([H:9])[H:10]"
C        1.92625292       0.48576759       0.10804825
C        0.48092023       0.26338532      -0.14648658
C       -0.27676896      -0.91738773       0.19756447
N       -1.36625042      -0.80651516      -0.74629941
C       -1.53700153       0.55214343      -0.56879507
O       -2.34259206       0.82202864       0.38815643
N       -0.32290792       1.19284543      -0.62851930
H        2.13009315       1.54451903       0.25662493
H        2.50784542       0.12905031      -0.74507891
H        2.26241858      -0.06852009       0.98550194
H        0.20464695      -1.88585009       0.28592921
H       -2.20177845      -1.33986091      -0.56316659
H       -1.46487791       0.02839424       1.17652063
13
Frame=6 idx=010406 GeodesicLength=0.374983093524046 rxn_smarts="[C:1]([c:2]1[c:3]([H:11])[n:4]([H:12])[c:5]([O:6][H:13])[n:7]1)([H:8])([H:9])[H:10]>>[C:1]([C:2]1=[N:7][C:5](=[O:6])[N:4]([H:12])[C:3]1([H:11])[H:13])([H:8])([H:9])[H:10]"
C        1.92891095       0.48392042       0.10549658
C        0.48357974       0.25963102      -0.14638642
C       -0.27752127      -0.91503558       0.21090954
N       -1.36263948      -0.80719238      -0.73660081
C       -1.54114560       0.55215759      -0.57415205
O       -2.35603333       0.83182633       0.37278385
N       -0.32309414       1.18702130      -0.63099241
H        2.12878178       1.53998137       0.27741414
H        2.50731354       0.14989759      -0.75890204
H        2.27542719      -0.08768353       0.96767728
H        0.20208343      -1.88508811       0.29368677
H       -2.19518210      -1.35180644      -0.57729005
H       -1.47048074       0.04237041       1.19635561
13
Frame=7 idx=010406 GeodesicLength=0.43748374053507944 rxn_smarts="[C:1]([c:2]1[c:3]([H:11])[n:4]([H:12])[c:5]([O:6][H:13])[n:7]1)([H:8])([H:9])[H:10]>>[C:1]([C:2]1=[N:7][C:5](=[O:6])[N:4]([H:12])[C:3]1([H:11])[H:13])([H:8])([H:9])[H:10]"
C        1.93151450       0.48199774       0.10288621
C        0.48623898       0.25573326      -0.14657017
C       -0.27828418      -0.91257329       0.22420257
N       -1.35931053      -0.80777426      -0.72661185
C       -1.54536227       0.55212632      -0.57950406
O       -2.36942989       0.84154913       0.35723450
N       -0.32339185       1.18117778      -0.63332015
H        2.12747363       1.53478384       0.29834484
H        2.50664308       0.17115701      -0.77227154
H        2.28826077      -0.10676102       0.94920636
H        0.19934191      -1.88423804       0.30171006
H       -2.18794057      -1.36398253      -0.59191034
H       -1.47575360       0.05680408       1.21660358
13
Frame=8 idx=010406 GeodesicLength=0.500003932678138 rxn_smarts="[C:1]([c:2]1[c:3]([H:11])[n:4]([H:12])[c:5]([O:6][H:13])[n:7]1)([H:8])([H:9])[H:10]>>[C:1]([C:2]1=[N:7][C:5](=[O:6])[N:4]([H:12])[C:3]1([H:11])[H:13])([H:8])([H:9])[H:10]"
C        1.93405589       0.47999335       0.10020873
C        0.48888638       0.25168487      -0.14703852
C       -0.27906110      -0.90999308       0.23746500
N       -1.35628175      -0.80826532      -0.71630319
C       -1.54966013       0.55204307      -0.58485203
O       -2.38280384       0.85120466       0.34148686
N       -0.32381128       1.17531180      -0.63550311
H        2.12616785       1.52887673       0.31942848
H        2.50581937       0.19285505      -0.78517022
H        2.30091857      -0.12575634       0.93004275
H        0.19641929      -1.88329693       0.31002319
H       -2.17998205      -1.37639020      -0.60707989
H       -1.48066719       0.07173233       1.23729196
13
Frame=9 idx=010406 GeodesicLength=0.562419499545618 rxn_smarts="[C:1]([c:2]1[c:3]([H:11])[n:4]([H:12])[c:5]([O:6][H:13])[n:7]1)([H:8])([H:9])[H:10]>>[C:1]([C:2]1=[N:7][C:5](=[O:6])[N:4]([H:12])[C:3]1([H:11])[H:13])([H:8])([H:9])[H:10]"
C        1.93652442       0.47789750       0.09746196
C        0.49150373       0.24749067      -0.14774971
C       -0.27986191      -0.90729897       0.25071990
N       -1.35355591      -0.80865460      -0.70566051
C       -1.55405384       0.55190901      -0.59016492
O       -2.39617118       0.86076179       0.32559609
N       -0.32436731       1.16942996      -0.63750060
H        2.12489639       1.52229351       0.34052596
H        2.50481954       0.21488495      -0.79758491
H        2.31337557      -0.14462588       0.91023997
H        0.19331816      -1.88226063       0.31862585
H       -2.17119315      -1.38899033      -0.62293350
H       -1.48523450       0.08716302       1.25842442
13
Frame=10 idx=010406 GeodesicLength=0.6248589163054002 rxn_smarts="[C:1]([c:2]1[c:3]([H:11])[n:4]([H:12])[c:5]([O:6][H:13])[n:7]1)([H:8])([H:9])[H:10]>>[C:1]([C:2]1=[N:7][C:5](=[O:6])[N:4]([H:12])[C:3]1([H:11])[H:13])([H:8])([H:9])[H:10]"
C        1.93891473       0.47570281       0.09463214
C        0.49408267       0.24313714      -0.14872145
C       -0.28068698      -0.90447461       0.26399159
N       -1.35116818      -0.80895469      -0.69463298
C       -1.55854874       0.55171539      -0.59545503
O       -2.40956365       0.87025902       0.30948790
N       -0.32506949       1.16352442      -0.63932797
H        2.12363855       1.51495102       0.36172237
H        2.50362462       0.23732316      -0.80951585
H        2.32564291      -0.16339598       0.88970827
H        0.19002848      -1.88112629       0.32755777
H       -2.16148847      -1.40180415      -0.63950580
H       -1.48940644       0.10314276       1.28005905
13
Frame=11 idx=010406 GeodesicLength=0.6873022233268214 rxn_smarts="[C:1]([c:2]1[c:3]([H:11])[n:4]([H:12])[c:5]([O:6][H:13])[n:7]1)([H:8])([H:9])[H:10]>>[C:1]([C:2]1=[N:7][C:5](=[O:6])[N:4]([H:12])[C:3]1([H:11])[H:13])([H:8])([H:9])[H:10]"
C        1.94121711       0.47339934       0.09170785
C        0.49660816       0.23861886      -0.14994211
C       -0.28154017      -0.90151368       0.27729602
N       -1.34914159      -0.80916258      -0.68318870
C       -1.56315660       0.55145885      -0.60070877
O       -2.42299913       0.87969552       0.29316457
N       -0.32593073       1.15759380      -0.64097239
H        2.12239410       1.50684023       0.38297870
H        2.50221252       0.26012469      -0.82095869
H        2.33770339      -0.18204726       0.86845644
H        0.18654726      -1.87988943       0.33682551
H       -2.15075596      -1.41481708      -0.65688569
H       -1.49315837       0.11969875       1.30222726
13
Frame=12 idx=010406 GeodesicLength=0.7497662619555604 rxn_smarts="[C:1]([c:2]1[c:3]([H:11])[n:4]([H:12])[c:5]([O:6][H:13])[n:7]1)([H:8])([H:9])[H:10]>>[C:1]([C:2]1=[N:7][C:5](=[O:6])[N:4]([H:12])[C:3]1([H:11])[H:13])([H:8])([H:9])[H:10]"
C        1.94341979       0.47097563       0.08867964
C        0.49906214       0.23393234      -0.15139610
C       -0.28243032      -0.89840616       0.29067039
N       -1.34750287      -0.80928155      -0.67127696
C       -1.56789034       0.55113137      -0.60591606
O       -2.43651224       0.88907530       0.27659909
N       -0.32696790       1.15163649      -0.64241830
H        2.12117406       1.49791935       0.40427757
H        2.50054325       0.28328612      -0.83191672
H        2.34954797      -0.20058757       0.84644047
H        0.18286616      -1.87854092       0.34647213
H       -2.13884312      -1.42801050      -0.67518662
H       -1.49646657       0.13687010       1.32497147
13
Frame=13 idx=010406 GeodesicLength=0.8122254221679446 rxn_smarts="[C:1]([c:2]1[c:3]([H:11])[n:4]([H:12])[c:5]([O:6][H:13])[n:7]1)([H:8])([H:9])[H:10]>>[C:1]([C:2]1=[N:7][C:5](=[O:6])[N:4]([H:12])[C:3]1([H:11])[H:13])([H:8])([H:9])[H:10]"
C        1.94550845       0.46841908       0.08553403
C        0.50142063       0.22907489      -0.15305684
C       -0.28336652      -0.89514443       0.30413915
N       -1.34628354      -0.80930390      -0.65885421
C       -1.57276934       0.55073073      -0.61104933
O       -2.45013165       0.89839179       0.25980034
N       -0.32820346       1.14565303      -0.64363626
H        2.11999006       1.48819270       0.42554042
H        2.49858687       0.30671974      -0.84239421
H        2.36115675      -0.21898852       0.82368616
H        0.17897891      -1.87707352       0.35650969
H       -2.12557825      -1.44135282      -0.69455108
H       -1.49930893       0.15468122       1.34833215
13
Frame=14 idx=010406 GeodesicLength=0.874668949065368 rxn_smarts="[C:1]([c:2]1[c:3]([H:11])[n:4]([H:12])[c:5]([O:6][H:13])[n:7]1)([H:8])([H:9])[H:10]>>[C:1]([C:2]1=[N:7][C:5](=[O:6])[N:4]([H:12])[C:3]1([H:11])[H:13])([H:8])([H:9])[H:10]"
C        1.94746382       0.46570935       0.08225067
C        0.50365670       0.22403775      -0.15491102
C       -0.28436272      -0.89171118       0.31775476
N       -1.34552519      -0.80924175      -0.64584601
C       -1.57781330       0.55024128      -0.61609622
O       -2.46389307       0.90764889       0.24274670
N       -0.32965994       1.13963399      -0.64462031
H        2.11885027       1.47759136       0.44677192
H        2.49628982       0.33044637      -0.85239390
H        2.37251336      -0.23727674       0.80010847
H        0.17486832      -1.87547242       0.36701416
H       -2.11072822      -1.45480844      -0.71513031
H       -1.50165984       0.17320152       1.37235110
13
Frame=15 idx=010406 GeodesicLength=0.9370798280172193 rxn_smarts="[C:1]([c:2]1[c:3]([H:11])[n:4]([H:12])[c:5]([O:6][H:13])[n:7]1)([H:8])([H:9])[H:10]>>[C:1]([C:2]1=[N:7][C:5](=[O:6])[N:4]([H:12])[C:3]1([H:11])[H:13])([H:8])([H:9])[H:10]"
C        1.94926297       0.46282252       0.07880744
C        0.50573470       0.21881752      -0.15692208
C       -0.28543875      -0.88809397       0.33156918
N       -1.34527437      -0.80909521      -0.63217898
C       -1.58304987       0.54965427      -0.62102319
O       -2.47784225       0.91683956       0.22543860
N       -0.33137057       1.13357645      -0.64533487
H        2.11777796       1.46609378       0.46789042
H        2.49359546       0.35439480      -0.86193107
H        2.38359355      -0.25544740       0.77569488
H        0.17051731      -1.87372347       0.37804271
H       -2.09400853      -1.46831488      -0.73713273
H       -1.50349761       0.19247605       1.39707969
13
Frame=16 idx=010406 GeodesicLength=0.9994506542821762 rxn_smarts="[C:1]([c:2]1[c:3]([H:11])[n:4]([H:12])[c:5]([O:6][H:13])[n:7]1)([H:8])([H:9])[H:10]>>[C:1]([C:2]1=[N:7][C:5](=[O:6])[N:4]([H:12])[C:3]1([H:11])[H:13])([H:8])([H:9])[H:10]"
C        1.95088093       0.45972584       0.07516847
C        0.50761158       0.21341372      -0.15903875
C       -0.28662666      -0.88427051       0.34566892
N       -1.34558673      -0.80887697      -0.61775009
C       -1.58850940       0.54895183      -0.62580004
O       -2.49204161       0.92595633       0.20785631
N       -0.33337267       1.12747679      -0.64574011
H        2.11680731       1.45363456       0.48884804
H        2.49042372       0.37853895      -0.87104181
H        2.39438096      -0.27353275       0.75035178
H        0.16589284      -1.87180583       0.38971652
H       -2.07503214      -1.48178913      -0.76081726
H       -1.50482814       0.21257718       1.42257802
