14
Frame=0 idx=004954 GeodesicLength=0.0 rxn_smarts="[O:1]=[C:2]1[C:3]([H:7])([H:8])[C:4]([H:9])([H:10])[C:5]([H:11])([H:12])[C:6]1([H:13])[H:14]>>[O:1]1[C@:2]2([H:7])[C@@:3]1([H:8])[C:4]([H:9])([H:10])[C:5]([H:11])([H:12])[C:6]2([H:13])[H:14]"
O       -0.87688573       2.28284959      -0.34498864
C       -0.47011767       1.20964129       0.26363551
C       -1.28657854       0.04197512      -0.02568221
C       -0.50689202      -1.14227269      -0.37019946
C        0.88552186      -0.81977152       0.20679276
C        0.99800367       0.68236400      -0.01800683
H       -0.49598870       1.19736437       1.41192625
H       -2.36456133       0.13378569      -0.11243743
H       -0.97154743      -2.08925545      -0.08757644
H       -0.43504122      -1.15166925      -1.47130394
H        1.67461128      -1.39058201      -0.28057802
H        0.90914056      -1.05805292       1.27273562
H        1.72251883       1.18534921       0.61702971
H        1.21781644       0.91827454      -1.06134692
14
Frame=1 idx=004954 GeodesicLength=0.09222768349697211 rxn_smarts="[O:1]=[C:2]1[C:3]([H:7])([H:8])[C:4]([H:9])([H:10])[C:5]([H:11])([H:12])[C:6]1([H:13])[H:14]>>[O:1]1[C@:2]2([H:7])[C@@:3]1([H:8])[C:4]([H:9])([H:10])[C:5]([H:11])([H:12])[C:6]2([H:13])[H:14]"
O       -0.88763487       2.25466739      -0.39182692
C       -0.45412222       1.21678895       0.25505645
C       -1.28554558       0.05596355      -0.01788944
C       -0.51087105      -1.13488272      -0.36442619
C        0.88960313      -0.81889913       0.19408084
C        1.00839031       0.68588781      -0.00840911
H       -0.54459761       1.17956477       1.41266754
H       -2.36452151       0.14239850      -0.09642591
H       -0.97491939      -2.07555670      -0.06043223
H       -0.45370420      -1.16020347      -1.46541698
H        1.66930620      -1.38297630      -0.31586925
H        0.93310142      -1.07450912       1.25534247
H        1.72139727       1.17953867       0.64717886
H        1.25411810       0.93221779      -1.04363014
14
Frame=2 idx=004954 GeodesicLength=0.1845183948555365 rxn_smarts="[O:1]=[C:2]1[C:3]([H:7])([H:8])[C:4]([H:9])([H:10])[C:5]([H:11])([H:12])[C:6]1([H:13])[H:14]>>[O:1]1[C@:2]2([H:7])[C@@:3]1([H:8])[C:4]([H:9])([H:10])[C:5]([H:11])([H:12])[C:6]2([H:13])[H:14]"
O       -0.89619900       2.22482010      -0.43739037
C       -0.43889449       1.22381196       0.24783929
C       -1.28467253       0.06986031      -0.01048783
C       -0.51487249      -1.12771638      -0.35819609
C        0.89352516      -0.81771093       0.18106597
C        1.01820231       0.68948896       0.00144198
H       -0.59229830       1.16295205       1.41166609
H       -2.36448789       0.15115962      -0.08242411
H       -0.97764218      -2.06170494      -0.03228598
H       -0.47285057      -1.16961782      -1.45865208
H        1.66342083      -1.37409224      -0.35185626
H        0.95740926      -1.09112479       1.23681630
H        1.71966464       1.17312359       0.67719484
H        1.28969526       0.94675051      -1.02473174
14
Frame=3 idx=004954 GeodesicLength=0.2769230966696626 rxn_smarts="[O:1]=[C:2]1[C:3]([H:7])([H:8])[C:4]([H:9])([H:10])[C:5]([H:11])([H:12])[C:6]1([H:13])[H:14]>>[O:1]1[C@:2]2([H:7])[C@@:3]1([H:8])[C:4]([H:9])([H:10])[C:5]([H:11])([H:12])[C:6]2([H:13])[H:14]"
O       -0.90260757       2.19360866      -0.48139937
C       -0.42443439       1.23068821       0.24169838
C       -1.28399151       0.08360498      -0.00350664
C       -0.51889318      -1.12083076      -0.35147365
C        0.89728629      -0.81621382       0.16771811
C        1.02744528       0.69313695       0.01151787
H       -0.63900566       1.14759062       1.40909615
H       -2.36448055       0.16006455      -0.07061510
H       -0.97967210      -2.04771373      -0.00304881
H       -0.49248451      -1.18005402      -1.45092509
H        1.65691424      -1.36390265      -0.38856468
H        0.98210203      -1.10787136       1.21707242
H        1.71724953       1.16608587       0.70709974
H        1.32457209       0.96180650      -1.00466933
14
Frame=4 idx=004954 GeodesicLength=0.36944998167337006 rxn_smarts="[O:1]=[C:2]1[C:3]([H:7])([H:8])[C:4]([H:9])([H:10])[C:5]([H:11])([H:12])[C:6]1([H:13])[H:14]>>[O:1]1[C@:2]2([H:7])[C@@:3]1([H:8])[C:4]([H:9])([H:10])[C:5]([H:11])([H:12])[C:6]2([H:13])[H:14]"
O       -0.90691942       2.16131806      -0.52370318
C       -0.41071289       1.23739528       0.23637358
C       -1.28352574       0.09715814       0.00302047
C       -0.52292704      -1.11426684      -0.34422951
C        0.90089032      -0.81441841       0.15399555
C        1.03614827       0.69679894       0.02180406
H       -0.68470307       1.13351114       1.40511094
H       -2.36451691       0.16909303      -0.06109439
H       -0.98096291      -2.03355321       0.02737902
H       -0.51261467      -1.19164292      -1.44214727
H        1.64972521      -1.35237488      -0.42605221
H        1.00723038      -1.12473512       1.19600666
H        1.71408157       1.15838963       0.73695433
H        1.35880689       0.97732714      -0.98341804
14
Frame=5 idx=004954 GeodesicLength=0.4620535539509793 rxn_smarts="[O:1]=[C:2]1[C:3]([H:7])([H:8])[C:4]([H:9])([H:10])[C:5]([H:11])([H:12])[C:6]1([H:13])[H:14]>>[O:1]1[C@:2]2([H:7])[C@@:3]1([H:8])[C:4]([H:9])([H:10])[C:5]([H:11])([H:12])[C:6]2([H:13])[H:14]"
O       -0.90922796       2.12818343      -0.56424246
C       -0.39768355       1.24391279       0.23166024
C       -1.28327251       0.11050505       0.00904990
C       -0.52696119      -1.10804742      -0.33644170
C        0.90434278      -0.81233870       0.13986221
C        1.04435666       0.70044251       0.03230200
H       -0.72941640       1.12070656       1.39984235
H       -2.36463628       0.17823473      -0.05388491
H       -0.98147320      -2.01917595       0.05906469
H       -0.53323245      -1.20448689      -1.43222655
H        1.64178930      -1.33948098      -0.46436094
H        1.03283113      -1.14170998       1.17351570
H        1.71012635       1.15000278       0.76681611
H        1.39245732       0.99325207      -0.96095665
14
Frame=6 idx=004954 GeodesicLength=0.5547362407668415 rxn_smarts="[O:1]=[C:2]1[C:3]([H:7])([H:8])[C:4]([H:9])([H:10])[C:5]([H:11])([H:12])[C:6]1([H:13])[H:14]>>[O:1]1[C@:2]2([H:7])[C@@:3]1([H:8])[C:4]([H:9])([H:10])[C:5]([H:11])([H:12])[C:6]2([H:13])[H:14]"
O       -0.90961911       2.09442400      -0.60299286
C       -0.38527897       1.25023691       0.22735536
C       -1.28323628       0.12364828       0.01453835
C       -0.53098339      -1.10218343      -0.32807368
C        0.90764663      -0.80998180       0.12527404
C        1.05211411       0.70403425       0.04301604
H       -0.77323128       1.10913940       1.39338792
H       -2.36483011       0.18747239      -0.04898990
H       -0.98113413      -2.00450340       0.09209116
H       -0.55433937      -1.21869392      -1.42104050
H        1.63301412      -1.32517810      -0.50354344
H        1.05895740      -1.15879036       1.14944959
H        1.70532569       1.14086037       0.79674930
H        1.42559468       1.00951540      -0.93722137
14
Frame=7 idx=004954 GeodesicLength=0.6474192860998791 rxn_smarts="[O:1]=[C:2]1[C:3]([H:7])([H:8])[C:4]([H:9])([H:10])[C:5]([H:11])([H:12])[C:6]1([H:13])[H:14]>>[O:1]1[C@:2]2([H:7])[C@@:3]1([H:8])[C:4]([H:9])([H:10])[C:5]([H:11])([H:12])[C:6]2([H:13])[H:14]"
O       -0.90819015       2.06021533      -0.63996465
C       -0.37344031       1.25635761       0.22332525
C       -1.28340563       0.13659773       0.01943744
C       -0.53497525      -1.09667668      -0.31909872
C        0.91080352      -0.80735600       0.11019386
C        1.05946392       0.70754141       0.05395921
H       -0.81623480       1.09876036       1.38582654
H       -2.36507661       0.19679075      -0.04640820
H       -0.97988163      -1.98943702       0.12652569
H       -0.57591728      -1.23434668      -1.40846574
H        1.62330673      -1.30942114      -0.54363032
H        1.08563371      -1.17596991       1.12366764
H        1.69965518       1.13089792       0.82679350
H        1.45825861       1.02604633      -0.91216150
14
Frame=8 idx=004954 GeodesicLength=0.740050470008944 rxn_smarts="[O:1]=[C:2]1[C:3]([H:7])([H:8])[C:4]([H:9])([H:10])[C:5]([H:11])([H:12])[C:6]1([H:13])[H:14]>>[O:1]1[C@:2]2([H:7])[C@@:3]1([H:8])[C:4]([H:9])([H:10])[C:5]([H:11])([H:12])[C:6]2([H:13])[H:14]"
O       -0.90502506       2.02571805      -0.67520204
C       -0.36208682       1.26227233       0.21945338
C       -1.28375558       0.14937246       0.02369030
C       -0.53891387      -1.09151687      -0.30947961
C        0.91381278      -0.80446744       0.09458147
C        1.06644594       0.71092121       0.06514898
H       -0.85855278       1.08951854       1.37719674
H       -2.36536977       0.20616274      -0.04610517
H       -0.97763182      -1.97386254       0.16242510
H       -0.59794140      -1.25153033      -1.39434174
H        1.61254891      -1.29213889      -0.58466199
H        1.11289047      -1.19324376       1.09600026
H        1.69307860       1.12002689       0.85699343
H        1.49050041       1.04276761      -0.88569910
14
Frame=9 idx=004954 GeodesicLength=0.8329050439469596 rxn_smarts="[O:1]=[C:2]1[C:3]([H:7])([H:8])[C:4]([H:9])([H:10])[C:5]([H:11])([H:12])[C:6]1([H:13])[H:14]>>[O:1]1[C@:2]2([H:7])[C@@:3]1([H:8])[C:4]([H:9])([H:10])[C:5]([H:11])([H:12])[C:6]2([H:13])[H:14]"
O       -0.90045617       1.99077427      -0.70885116
C       -0.35115598       1.26801907       0.21576029
C       -1.28422104       0.16206257       0.02725510
C       -0.54280269      -1.08663750      -0.29914144
C        0.91667809      -0.80130808       0.07841360
C        1.07311867       0.71418599       0.07659760
H       -0.90020322       1.08110454       1.36769132
H       -2.36549609       0.21566649      -0.04827574
H       -0.97438466      -1.95765350       0.19975601
H       -0.62040941      -1.27015336      -1.37847064
H        1.60061769      -1.27334346      -0.62655741
H        1.14066310      -1.21056625       1.06634829
H        1.68575624       1.10824285       0.88732645
H        1.52229547       1.05960638      -0.85785226
14
Frame=10 idx=004954 GeodesicLength=0.9257112062976385 rxn_smarts="[O:1]=[C:2]1[C:3]([H:7])([H:8])[C:4]([H:9])([H:10])[C:5]([H:11])([H:12])[C:6]1([H:13])[H:14]>>[O:1]1[C@:2]2([H:7])[C@@:3]1([H:8])[C:4]([H:9])([H:10])[C:5]([H:11])([H:12])[C:6]2([H:13])[H:14]"
O       -0.89431385       1.95583589      -0.74083407
C       -0.34055233       1.27356219       0.21206360
C       -1.28481349       0.17462368       0.03008622
C       -0.54657764      -1.08206928      -0.28809636
C        0.91939036      -0.79789198       0.06164731
C        1.07950637       0.71723954       0.08831516
H       -0.94145986       1.07364732       1.35716504
H       -2.36557491       0.22514515      -0.05268829
H       -0.96995116      -1.94066818       0.23864035
H       -0.64322500      -1.29038926      -1.36072020
H        1.58737949      -1.25288913      -0.66939399
H        1.16899715      -1.22792847       1.03449881
H        1.67747968       1.09536785       0.91783178
H        1.55371520       1.07641468      -0.82851535
14
Frame=11 idx=004954 GeodesicLength=1.0184933466022597 rxn_smarts="[O:1]=[C:2]1[C:3]([H:7])([H:8])[C:4]([H:9])([H:10])[C:5]([H:11])([H:12])[C:6]1([H:13])[H:14]>>[O:1]1[C@:2]2([H:7])[C@@:3]1([H:8])[C:4]([H:9])([H:10])[C:5]([H:11])([H:12])[C:6]2([H:13])[H:14]"
O       -0.88668154       1.92098516      -0.77121071
C       -0.33020086       1.27890158       0.20834901
C       -1.28549064       0.18708188       0.03213859
C       -0.55020363      -1.07777952      -0.27632105
C        0.92194008      -0.79422156       0.04427668
C        1.08564033       0.72003765       0.10031345
H       -0.98244961       1.06701800       1.34565144
H       -2.36556468       0.23457115      -0.05932998
H       -0.96425178      -1.92277143       0.27907980
H       -0.66631701      -1.31222102      -1.34094502
H        1.57272762      -1.23072843      -0.71313928
H        1.19784254      -1.24528245       1.00034382
H        1.66825999       1.08134114       0.94847655
H        1.58474920       1.09306784      -0.79768330
14
Frame=12 idx=004954 GeodesicLength=1.1112937803600713 rxn_smarts="[O:1]=[C:2]1[C:3]([H:7])([H:8])[C:4]([H:9])([H:10])[C:5]([H:11])([H:12])[C:6]1([H:13])[H:14]>>[O:1]1[C@:2]2([H:7])[C@@:3]1([H:8])[C:4]([H:9])([H:10])[C:5]([H:11])([H:12])[C:6]2([H:13])[H:14]"
O       -0.87763099       1.88630730      -0.80003036
C       -0.32002503       1.28403580       0.20460965
C       -1.28621795       0.19945454       0.03339757
C       -0.55363652      -1.07373403      -0.26380244
C        0.92431638      -0.79029988       0.02628976
C        1.09155431       0.72252893       0.11258146
H       -1.02329941       1.06109225       1.33315296
H       -2.36538514       0.24388575      -0.06817827
H       -0.95716889      -1.90379993       0.32104716
H       -0.68959266      -1.33559532      -1.31898795
H        1.55651425      -1.20680176      -0.75770841
H        1.22711827      -1.26255850       0.96377274
H        1.65807947       1.06607341       0.97921210
H        1.61537390       1.10941145      -0.76535598
14
Frame=13 idx=004954 GeodesicLength=1.2041114525954546 rxn_smarts="[O:1]=[C:2]1[C:3]([H:7])([H:8])[C:4]([H:9])([H:10])[C:5]([H:11])([H:12])[C:6]1([H:13])[H:14]>>[O:1]1[C@:2]2([H:7])[C@@:3]1([H:8])[C:4]([H:9])([H:10])[C:5]([H:11])([H:12])[C:6]2([H:13])[H:14]"
O       -0.86724115       1.85187720      -0.82729671
C       -0.30995891       1.28895919       0.20086697
C       -1.28695041       0.21175017       0.03382737
C       -0.55683071      -1.06989243      -0.25052703
C        0.92649718      -0.78612810       0.00769510
C        1.09726501       0.72465371       0.12510999
H       -1.06411223       1.05576398       1.31965791
H       -2.36497458       0.25302206      -0.07924534
H       -0.94858412      -1.88358333       0.36449458
H       -0.71291925      -1.36045362      -1.29468211
H        1.53858457      -1.18103832      -0.80298660
H        1.25671982      -1.27966665       0.92467150
H        1.64696374       1.04946705       1.00994560
H        1.64554105       1.12526908      -0.73153123
14
Frame=14 idx=004954 GeodesicLength=1.2970025029940064 rxn_smarts="[O:1]=[C:2]1[C:3]([H:7])([H:8])[C:4]([H:9])([H:10])[C:5]([H:11])([H:12])[C:6]1([H:13])[H:14]>>[O:1]1[C@:2]2([H:7])[C@@:3]1([H:8])[C:4]([H:9])([H:10])[C:5]([H:11])([H:12])[C:6]2([H:13])[H:14]"
O       -0.85565037       1.81779528      -0.85296899
C       -0.29994108       1.29367391       0.19716780
C       -1.28765940       0.22397964       0.03347366
C       -0.55974317      -1.06620443      -0.23654569
C        0.92846193      -0.78171749      -0.01143108
C        1.10280227       0.72637825       0.13783768
H       -1.10496446       1.05087321       1.30519182
H       -2.36426118       0.26190702      -0.09242220
H       -0.93843314      -1.86208412       0.40913672
H       -0.73611710      -1.38658251      -1.26798763
H        1.51890884      -1.15352558      -0.84866352
H        1.28640610      -1.29647343       0.88314067
H        1.63502168       1.03154608       1.04048190
H        1.67516908       1.14043417      -0.69641115
14
Frame=15 idx=004954 GeodesicLength=1.3899885290710519 rxn_smarts="[O:1]=[C:2]1[C:3]([H:7])([H:8])[C:4]([H:9])([H:10])[C:5]([H:11])([H:12])[C:6]1([H:13])[H:14]>>[O:1]1[C@:2]2([H:7])[C@@:3]1([H:8])[C:4]([H:9])([H:10])[C:5]([H:11])([H:12])[C:6]2([H:13])[H:14]"
O       -0.84302075       1.78415908      -0.87698138
C       -0.28992501       1.29817900       0.19357026
C       -1.28830849       0.23614078       0.03238208
C       -0.56233298      -1.06261655      -0.22191879
C        0.93018641      -0.77708471      -0.03099759
C        1.10819162       0.72766808       0.15069121
H       -1.14590202       1.04627624       1.28976675
H       -2.36319251       0.27045122      -0.10758971
H       -0.92667086      -1.83926789       0.45466074
H       -0.75898097      -1.41374224      -1.23891000
H        1.49747303      -1.12437342      -0.89438108
H        1.31591417      -1.31283300       0.83930765
H        1.62239538       1.01234562       1.07060933
H        1.70417297       1.15469779      -0.66020948
14
Frame=16 idx=004954 GeodesicLength=1.4831191810506672 rxn_smarts="[O:1]=[C:2]1[C:3]([H:7])([H:8])[C:4]([H:9])([H:10])[C:5]([H:11])([H:12])[C:6]1([H:13])[H:14]>>[O:1]1[C@:2]2([H:7])[C@@:3]1([H:8])[C:4]([H:9])([H:10])[C:5]([H:11])([H:12])[C:6]2([H:13])[H:14]"
O       -0.82955036       1.75108099      -0.89926325
C       -0.27987257       1.30247457       0.19013872
C       -1.28887577       0.24823183       0.03062199
C       -0.56456470      -1.05907446      -0.20673437
C        0.93164418      -0.77225062      -0.05089707
C        1.11346075       0.72850052       0.16357991
H       -1.18695590       1.04181863       1.27341386
H       -2.36172151       0.27855917      -0.12460300
H       -0.91327429      -1.81513487       0.50070206
H       -0.78128914      -1.44164510      -1.20751383
H        1.47431184      -1.09375422      -0.93972770
H        1.34495211      -1.32859565       0.79337405
H        1.60925689       0.99193704       1.10010028
H        1.73247848       1.16785217      -0.62319166
