10
Frame=0 idx=002354 GeodesicLength=0.0 rxn_smarts="[O:1]([C@@:2]1([H:8])[C:3]([H:9])([H:10])[O:4][C:5]1=[O:6])[H:7]>>[O:1]1[C@@:2]2([H:8])[C:3]([H:9])([H:10])[O:4][C@@:5]12[O:6][H:7]"
O       -1.36771550      -1.07573407       0.19140626
C       -0.60785234      -0.21502503      -0.43952923
C       -0.11698444       1.23145908       0.11088552
O        1.30086173       0.68923137       0.17572076
C        0.78579767      -0.47771530      -0.02687478
O        1.12741142      -1.58206583       0.47756021
H        0.18519863      -2.00566157       0.45807950
H       -0.73368105      -0.08840017      -1.53372214
H       -0.42894340       1.42750410       1.13213405
H       -0.14409272       2.09640742      -0.54566016
10
Frame=1 idx=002354 GeodesicLength=0.10396239352777516 rxn_smarts="[O:1]([C@@:2]1([H:8])[C:3]([H:9])([H:10])[O:4][C:5]1=[O:6])[H:7]>>[O:1]1[C@@:2]2([H:8])[C:3]([H:9])([H:10])[O:4][C@@:5]12[O:6][H:7]"
O       -1.33859362      -1.07413397       0.21326479
C       -0.60483745      -0.20282062      -0.44581428
C       -0.11780193       1.23427835       0.11035026
O        1.29365449       0.68979905       0.19759462
C        0.78437165      -0.48073548      -0.02700472
O        1.13618557      -1.59254486       0.45478795
H        0.16951315      -2.01470162       0.46054467
H       -0.74045607      -0.09333737      -1.53876954
H       -0.44725239       1.43730440       1.12495121
H       -0.13478340       2.09689212      -0.54990498
10
Frame=2 idx=002354 GeodesicLength=0.20790596234508946 rxn_smarts="[O:1]([C@@:2]1([H:8])[C:3]([H:9])([H:10])[O:4][C:5]1=[O:6])[H:7]>>[O:1]1[C@@:2]2([H:8])[C:3]([H:9])([H:10])[O:4][C@@:5]12[O:6][H:7]"
O       -1.30961327      -1.07197252       0.23425500
C       -0.60175107      -0.19093465      -0.45188669
C       -0.11856493       1.23695248       0.10989881
O        1.28611563       0.69011806       0.21941320
C        0.78313491      -0.48380089      -0.02744872
O        1.14498988      -1.60226830       0.43237975
H        0.15406942      -2.02388485       0.46303394
H       -0.74771928      -0.09835165      -1.54321284
H       -0.46542344       1.44694164       1.11747525
H       -0.12523785       2.09720066      -0.55390770
10
Frame=3 idx=002354 GeodesicLength=0.3118993757491555 rxn_smarts="[O:1]([C@@:2]1([H:8])[C:3]([H:9])([H:10])[O:4][C:5]1=[O:6])[H:7]>>[O:1]1[C@@:2]2([H:8])[C:3]([H:9])([H:10])[O:4][C@@:5]12[O:6][H:7]"
O       -1.28075362      -1.06933058       0.25441752
C       -0.59857647      -0.17934296      -0.45777601
C       -0.11927587       1.23949318       0.10953319
O        1.27827043       0.69018840       0.24118242
C        0.78211662      -0.48689449      -0.02822383
O        1.15389647      -1.61128022       0.41027402
H        0.13873643      -2.03317532       0.46562628
H       -0.75546012      -0.10341832      -1.54708181
H       -0.48349949       1.45641690       1.10972693
H       -0.11545439       2.09734341      -0.55767871
10
Frame=4 idx=002354 GeodesicLength=0.4157873649788628 rxn_smarts="[O:1]([C@@:2]1([H:8])[C:3]([H:9])([H:10])[O:4][C:5]1=[O:6])[H:7]>>[O:1]1[C@@:2]2([H:8])[C:3]([H:9])([H:10])[O:4][C@@:5]12[O:6][H:7]"
O       -1.25202910      -1.06627689       0.27371688
C       -0.59529074      -0.16802643      -0.46352247
C       -0.11992564       1.24188862       0.10925765
O        1.27012860       0.68999894       0.26267500
C        0.78131783      -0.49002108      -0.02932545
O        1.16291012      -1.61949253       0.38881501
H        0.12342101      -2.04255810       0.46817556
H       -0.76366511      -0.10852152      -1.55039328
H       -0.50133809       1.46563279       1.10174176
H       -0.10552888       2.09737620      -0.56114066
10
Frame=5 idx=002354 GeodesicLength=0.5197587589675201 rxn_smarts="[O:1]([C@@:2]1([H:8])[C:3]([H:9])([H:10])[O:4][C:5]1=[O:6])[H:7]>>[O:1]1[C@@:2]2([H:8])[C:3]([H:9])([H:10])[O:4][C@@:5]12[O:6][H:7]"
O       -1.22343677      -1.06289125       0.29208589
C       -0.59187529      -0.15695994      -0.46918149
C       -0.12051354       1.24414031       0.10908355
O        1.26174246       0.68961221       0.28391177
C        0.78076649      -0.49315139      -0.03078710
O        1.17212392      -1.62699523       0.36777542
H        0.10796454      -2.05195497       0.47102083
H       -0.77232390      -0.11363334      -1.55318466
H       -0.51898000       1.47454581       1.09353830
H       -0.09546791       2.09728780      -0.56426250
10
Frame=6 idx=002354 GeodesicLength=0.6235434703874829 rxn_smarts="[O:1]([C@@:2]1([H:8])[C:3]([H:9])([H:10])[O:4][C:5]1=[O:6])[H:7]>>[O:1]1[C@@:2]2([H:8])[C:3]([H:9])([H:10])[O:4][C@@:5]12[O:6][H:7]"
O       -1.19501142      -1.05924814       0.30959942
C       -0.58832574      -0.14614865      -0.47476105
C       -0.12103715       1.24628872       0.10901839
O        1.25314320       0.68901131       0.30484635
C        0.78049337      -0.49627301      -0.03256485
O        1.18156996      -1.63379116       0.34729068
H        0.09231485      -2.06137364       0.47394482
H       -0.78145944      -0.11885034      -1.55548200
H       -0.53641989       1.48323101       1.08513907
H       -0.08526773       2.09715390      -0.56703084
10
Frame=7 idx=002354 GeodesicLength=0.7275767797529858 rxn_smarts="[O:1]([C@@:2]1([H:8])[C:3]([H:9])([H:10])[O:4][C:5]1=[O:6])[H:7]>>[O:1]1[C@@:2]2([H:8])[C:3]([H:9])([H:10])[O:4][C@@:5]12[O:6][H:7]"
O       -1.16659940      -1.05531151       0.32628420
C       -0.58459709      -0.13553101      -0.48029204
C       -0.12150891       1.24825740       0.10902785
O        1.24424060       0.68820708       0.32553076
C        0.78041224      -0.49937244      -0.03463215
O        1.19132954      -1.63994077       0.32704853
H        0.07632013      -2.07070719       0.47727820
H       -0.79094481      -0.12396612      -1.55723354
H       -0.55369612       1.49152495       1.07648586
H       -0.07495618       2.09683962      -0.56949766
10
Frame=8 idx=002354 GeodesicLength=0.831549740113191 rxn_smarts="[O:1]([C@@:2]1([H:8])[C:3]([H:9])([H:10])[O:4][C:5]1=[O:6])[H:7]>>[O:1]1[C@@:2]2([H:8])[C:3]([H:9])([H:10])[O:4][C@@:5]12[O:6][H:7]"
O       -1.13835655      -1.05120264       0.34208724
C       -0.58069400      -0.12512857      -0.48582157
C       -0.12192602       1.25011554       0.10914736
O        1.23518284       0.68723653       0.34580349
C        0.78060199      -0.50244625      -0.03698128
O        1.20143390      -1.64544298       0.30723385
H        0.05991225      -2.07999422       0.48094544
H       -0.80080586      -0.12913457      -1.55851778
H       -0.57075854       1.49949022       1.06767182
H       -0.06459000       2.09650693      -0.57156856
10
Frame=9 idx=002354 GeodesicLength=0.9355178487224474 rxn_smarts="[O:1]([C@@:2]1([H:8])[C:3]([H:9])([H:10])[O:4][C:5]1=[O:6])[H:7]>>[O:1]1[C@@:2]2([H:8])[C:3]([H:9])([H:10])[O:4][C@@:5]12[O:6][H:7]"
O       -1.11025097      -1.04694041       0.35699447
C       -0.57658834      -0.11491666      -0.49138912
C       -0.12229244       1.25183759       0.10937573
O        1.22598058       0.68611636       0.36558916
C        0.78104236      -0.50548733      -0.03958588
O        1.21192319      -1.65030599       0.28782075
H        0.04297582      -2.08917179       0.48504626
H       -0.81098369      -0.13431707      -1.55935053
H       -0.58757575       1.50704202       1.05872314
H       -0.05423076       2.09614328      -0.57322398
10
Frame=10 idx=002354 GeodesicLength=1.0394885811008154 rxn_smarts="[O:1]([C@@:2]1([H:8])[C:3]([H:9])([H:10])[O:4][C:5]1=[O:6])[H:7]>>[O:1]1[C@@:2]2([H:8])[C:3]([H:9])([H:10])[O:4][C@@:5]12[O:6][H:7]"
O       -1.08228708      -1.04255614       0.37099140
C       -0.57225979      -0.10488109      -0.49703358
C       -0.12261378       1.25341831       0.10971613
O        1.21667880       0.68487603       0.38480266
C        0.78173007      -0.50849565      -0.04241389
O        1.22284402      -1.65454411       0.26880986
H        0.02539943      -2.09820929       0.48964405
H       -0.82142795      -0.13950853      -1.55975812
H       -0.60411828       1.51412993       1.04967962
H       -0.04394544       2.09577055      -0.57443813
10
Frame=11 idx=002354 GeodesicLength=1.143470406601826 rxn_smarts="[O:1]([C@@:2]1([H:8])[C:3]([H:9])([H:10])[O:4][C:5]1=[O:6])[H:7]>>[O:1]1[C@@:2]2([H:8])[C:3]([H:9])([H:10])[O:4][C@@:5]12[O:6][H:7]"
O       -1.05447085      -1.03807938       0.38407103
C       -0.56768806      -0.09501017      -0.50279170
C       -0.12289693       1.25485428       0.11017005
O        1.20732862       0.68354753       0.40337527
C        0.78266384      -0.51147420      -0.04543341
O        1.23424875      -1.65817662       0.25018396
H        0.00706922      -2.10707852       0.49480252
H       -0.83208859      -0.14470581      -1.55976426
H       -0.62036850       1.52070930       1.04057963
H       -0.03379749       2.09541359      -0.57519308
10
Frame=12 idx=002354 GeodesicLength=1.2474860945968205 rxn_smarts="[O:1]([C@@:2]1([H:8])[C:3]([H:9])([H:10])[O:4][C:5]1=[O:6])[H:7]>>[O:1]1[C@@:2]2([H:8])[C:3]([H:9])([H:10])[O:4][C@@:5]12[O:6][H:7]"
O       -1.02682002      -1.03355006       0.39623078
C       -0.56286206      -0.08529978      -0.50870346
C       -0.12315200       1.25616358       0.11073640
O        1.19799666       0.68217406       0.42127515
C        0.78385385      -0.51443930      -0.04861526
O        1.24621754      -1.66126309       0.23188947
H       -0.01212908      -2.11577391       0.50060306
H       -0.84292618      -0.14990852      -1.55938751
H       -0.63633554       1.52676679       1.03145091
H       -0.02384318       2.09513023      -0.57547954
10
Frame=13 idx=002354 GeodesicLength=1.3514996417975917 rxn_smarts="[O:1]([C@@:2]1([H:8])[C:3]([H:9])([H:10])[O:4][C:5]1=[O:6])[H:7]>>[O:1]1[C@@:2]2([H:8])[C:3]([H:9])([H:10])[O:4][C@@:5]12[O:6][H:7]"
O       -0.99931723      -1.02897255       0.40750578
C       -0.55770889      -0.07572054      -0.51476715
C       -0.12337537       1.25726541       0.11141635
O        1.18867527       0.68073358       0.43841280
C        0.78525086      -0.51734748      -0.05195252
O        1.25870009      -1.66364002       0.21385341
H       -0.03232927      -2.12418201       0.50707836
H       -0.85378607      -0.15513845      -1.55859762
H       -0.65198378       1.53218415       1.02233634
H       -0.01412562       2.09481791      -0.57528574
10
Frame=14 idx=002354 GeodesicLength=1.4555285812711454 rxn_smarts="[O:1]([C@@:2]1([H:8])[C:3]([H:9])([H:10])[O:4][C:5]1=[O:6])[H:7]>>[O:1]1[C@@:2]2([H:8])[C:3]([H:9])([H:10])[O:4][C@@:5]12[O:6][H:7]"
O       -0.97197942      -1.02439509       0.41784042
C       -0.55225100      -0.06628371      -0.52104840
C       -0.12358359       1.25821844       0.11221101
O        1.17948336       0.67931237       0.45474308
C        0.78690853      -0.52025484      -0.05540251
O        1.27185612      -1.66546110       0.19613898
H       -0.05366656      -2.13234186       0.51429109
H       -0.86472412      -0.16038152      -1.55746423
H       -0.66730186       1.53697117       1.01328299
H       -0.00474145       2.09461613      -0.57459243
10
Frame=15 idx=002354 GeodesicLength=1.5595604115185062 rxn_smarts="[O:1]([C@@:2]1([H:8])[C:3]([H:9])([H:10])[O:4][C:5]1=[O:6])[H:7]>>[O:1]1[C@@:2]2([H:8])[C:3]([H:9])([H:10])[O:4][C@@:5]12[O:6][H:7]"
O       -0.94479557      -1.01984139       0.42725510
C       -0.54645109      -0.05698140      -0.52756741
C       -0.12378359       1.25899682       0.11311777
O        1.17045914       0.67792862       0.47022398
C        0.78882041      -0.52316147      -0.05895090
O        1.28572834      -1.66668876       0.17868822
H       -0.07629010      -2.14019167       0.52228823
H       -0.87565757      -0.16564483      -1.55598803
H       -0.68228165       1.54107158       1.00433001
H        0.00425166       2.09451251      -0.57339696
10
Frame=16 idx=002354 GeodesicLength=1.6635913761074885 rxn_smarts="[O:1]([C@@:2]1([H:8])[C:3]([H:9])([H:10])[O:4][C:5]1=[O:6])[H:7]>>[O:1]1[C@@:2]2([H:8])[C:3]([H:9])([H:10])[O:4][C@@:5]12[O:6][H:7]"
O       -0.91775207      -1.01534091       0.43577484
C       -0.54028251      -0.04781237      -0.53434100
C       -0.12398420       1.25958389       0.11413162
O        1.16164458       0.67660520       0.48483694
C        0.79099029      -0.52607380      -0.06258261
O        1.30038835      -1.66730045       0.16143638
H       -0.10036173      -2.14768022       0.53111170
H       -0.88652134      -0.17093367      -1.55417168
H       -0.69692420       1.54444334       0.99550864
H        0.01280284       2.09450898      -0.57170482
