17
Frame=0 idx=010654 GeodesicLength=0.0 rxn_smarts="[C:1]([C@@:2]1([H:11])[O:3][C@@:4]2([H:12])[C:5]([H:13])([H:14])[C:6]([H:15])([H:16])[C@@:7]12[H:17])([H:8])([H:9])[H:10]>>[C:1]([C@@:2]1([H:11])[O:3][C@:4]([C:5]([H:13])([H:14])[H:15])([H:12])[C@:7]1([C:6][H:16])[H:17])([H:8])([H:9])[H:10]"
C        1.94488796       0.85978130      -0.13213587
C        1.18091501      -0.41953573       0.07621399
O        0.41944703      -0.42754278       1.30690134
C       -0.74489921      -0.90182248       0.63137299
C       -1.88361055       0.11590738       0.64095793
C       -0.95691177       0.32726759      -1.34784605
C       -0.08562107      -0.74956736      -0.74424078
H        1.28553735       1.72829019      -0.11222887
H        2.68643884       0.98309547       0.65885877
H        2.46824209       0.83661697      -1.09087778
H        1.87197564      -1.27145749       0.07209828
H       -1.03374025      -1.89888954       0.97297157
H       -1.68020111       0.96612127       1.28619299
H       -2.87511827      -0.29669278       0.83353529
H       -2.06658940       0.44125016      -0.48875177
H       -0.53308748       1.32741489      -1.16897370
H        0.00233526      -1.62023711      -1.39404828
17
Frame=1 idx=010654 GeodesicLength=0.06045912902809934 rxn_smarts="[C:1]([C@@:2]1([H:11])[O:3][C@@:4]2([H:12])[C:5]([H:13])([H:14])[C:6]([H:15])([H:16])[C@@:7]12[H:17])([H:8])([H:9])[H:10]>>[C:1]([C@@:2]1([H:11])[O:3][C@:4]([C:5]([H:13])([H:14])[H:15])([H:12])[C@:7]1([C:6][H:16])[H:17])([H:8])([H:9])[H:10]"
C        1.94982670       0.85792789      -0.13043131
C        1.18223273      -0.41941973       0.07702790
O        0.41912276      -0.42518796       1.30645507
C       -0.74465893      -0.89968908       0.63088112
C       -1.88434624       0.11627894       0.63589292
C       -0.95699086       0.33344151      -1.33608153
C       -0.08286702      -0.74600093      -0.74655660
H        1.29267526       1.72809329      -0.11137635
H        2.69053103       0.97926350       0.66166697
H        2.47451407       0.83328761      -1.08839146
H        1.87115774      -1.27310687       0.07393385
H       -1.03112320      -1.89920610       0.96709486
H       -1.67871747       0.97782099       1.26557249
H       -2.86734604      -0.30061133       0.86009182
H       -2.10198348       0.41899980      -0.50860203
H       -0.53413333       1.33395019      -1.15958835
H        0.00210628      -1.61584171      -1.39758938
17
Frame=2 idx=010654 GeodesicLength=0.12091158155765369 rxn_smarts="[C:1]([C@@:2]1([H:11])[O:3][C@@:4]2([H:12])[C:5]([H:13])([H:14])[C:6]([H:15])([H:16])[C@@:7]12[H:17])([H:8])([H:9])[H:10]>>[C:1]([C@@:2]1([H:11])[O:3][C@:4]([C:5]([H:13])([H:14])[H:15])([H:12])[C@:7]1([C:6][H:16])[H:17])([H:8])([H:9])[H:10]"
C        1.95460287       0.85612815      -0.12881751
C        1.18348643      -0.41928297       0.07783065
O        0.41888263      -0.42285431       1.30608831
C       -0.74440022      -0.89759307       0.63061020
C       -1.88515207       0.11659620       0.63090887
C       -0.95757096       0.33947435      -1.32396321
C       -0.08024411      -0.74236769      -0.74877680
H        1.29958750       1.72789424      -0.11062266
H        2.69448894       0.97556433       0.66433867
H        2.48057916       0.83001094      -1.08601557
H        1.87028746      -1.27471235       0.07563265
H       -1.02852380      -1.89951766       0.96140389
H       -1.67778097       0.98863731       1.24578664
H       -2.85935457      -0.30365865       0.88514387
H       -2.13559265       0.39682074      -0.52771337
H       -0.53496939       1.34021824      -1.15077774
H        0.00167377      -1.61135780      -1.40105690
17
Frame=3 idx=010654 GeodesicLength=0.1813291217316925 rxn_smarts="[C:1]([C@@:2]1([H:11])[O:3][C@@:4]2([H:12])[C:5]([H:13])([H:14])[C:6]([H:15])([H:16])[C@@:7]12[H:17])([H:8])([H:9])[H:10]>>[C:1]([C@@:2]1([H:11])[O:3][C@:4]([C:5]([H:13])([H:14])[H:15])([H:12])[C@:7]1([C:6][H:16])[H:17])([H:8])([H:9])[H:10]"
C        1.95922970       0.85437672      -0.12729174
C        1.18467747      -0.41912535       0.07861983
O        0.41872233      -0.42053795       1.30579494
C       -0.74412679      -0.89552621       0.63054720
C       -1.88602274       0.11685682       0.62604700
C       -0.95858129       0.34536286      -1.31154779
C       -0.07775048      -0.73866900      -0.75090531
H        1.30629325       1.72769252      -0.10996530
H        2.69832495       0.97198464       0.66687887
H        2.48645218       0.82677924      -1.08374662
H        1.86936412      -1.27627659       0.07720098
H       -1.02593249      -1.89981981       0.95588647
H       -1.67733236       0.99865125       1.22683090
H       -2.85120894      -0.30596334       0.90877471
H       -2.16754248       0.37478322      -0.54618984
H       -0.53561724       1.34622714      -1.14249374
H        0.00105078      -1.60679615      -1.40444056
17
Frame=4 idx=010654 GeodesicLength=0.2416754712106624 rxn_smarts="[C:1]([C@@:2]1([H:11])[O:3][C@@:4]2([H:12])[C:5]([H:13])([H:14])[C:6]([H:15])([H:16])[C@@:7]12[H:17])([H:8])([H:9])[H:10]>>[C:1]([C@@:2]1([H:11])[O:3][C@:4]([C:5]([H:13])([H:14])[H:15])([H:12])[C@:7]1([C:6][H:16])[H:17])([H:8])([H:9])[H:10]"
C        1.96371940       0.85266907      -0.12585062
C        1.18580866      -0.41894758       0.07939380
O        0.41863806      -0.41823708       1.30556932
C       -0.74384148      -0.89348153       0.63067861
C       -1.88695033       0.11706351       0.62133521
C       -0.95995579       0.35110578      -1.29888721
C       -0.07538184      -0.73490828      -0.75294719
H        1.31280961       1.72748777      -0.10940145
H        2.70205007       0.96851352       0.66929381
H        2.49214714       0.82358637      -1.08158045
H        1.86838911      -1.27780233       0.07864589
H       -1.02334465      -1.90010817       0.95053086
H       -1.67731910       1.00793312       1.20869129
H       -2.84295948      -0.30763001       0.93107326
H       -2.19795798       0.35293691      -0.56412374
H       -0.53610251       1.35198781      -1.13468795
H        0.00025109      -1.60216888      -1.40773344
17
Frame=5 idx=010654 GeodesicLength=0.3018684484001794 rxn_smarts="[C:1]([C@@:2]1([H:11])[O:3][C@@:4]2([H:12])[C:5]([H:13])([H:14])[C:6]([H:15])([H:16])[C@@:7]12[H:17])([H:8])([H:9])[H:10]>>[C:1]([C@@:2]1([H:11])[O:3][C@:4]([C:5]([H:13])([H:14])[H:15])([H:12])[C@:7]1([C:6][H:16])[H:17])([H:8])([H:9])[H:10]"
C        1.96807947       0.85100237      -0.12449213
C        1.18688213      -0.41875100       0.08015087
O        0.41862764      -0.41595286       1.30540694
C       -0.74354676      -0.89145428       0.63099404
C       -1.88792652       0.11721945       0.61679619
C       -0.96164123       0.35669776      -1.28602435
C       -0.07313526      -0.73109079      -0.75490587
H        1.31914615       1.72727964      -0.10892904
H        2.70567157       0.96514408       0.67158743
H        2.49767263       0.82042946      -1.07951455
H        1.86736474      -1.27929162       0.07997219
H       -1.02075738      -1.90037946       0.94532848
H       -1.67769243       1.01654637       1.19135857
H       -2.83466024      -0.30875513       0.95211372
H       -2.22691849       0.33134019      -0.58159504
H       -0.53645215       1.35750489      -1.12731991
H       -0.00071386      -1.59748906      -1.41092755
17
Frame=6 idx=010654 GeodesicLength=0.36197349121062516 rxn_smarts="[C:1]([C@@:2]1([H:11])[O:3][C@@:4]2([H:12])[C:5]([H:13])([H:14])[C:6]([H:15])([H:16])[C@@:7]12[H:17])([H:8])([H:9])[H:10]>>[C:1]([C@@:2]1([H:11])[O:3][C@:4]([C:5]([H:13])([H:14])[H:15])([H:12])[C@:7]1([C:6][H:16])[H:17])([H:8])([H:9])[H:10]"
C        1.97231990       0.84937269      -0.12320995
C        1.18790319      -0.41853831       0.08089022
O        0.41869022      -0.41369054       1.30530332
C       -0.74324334      -0.88944055       0.63148043
C       -1.88893707       0.11733434       0.61244733
C       -0.96357859       0.36214017      -1.27299953
C       -0.07100264      -0.72722212      -0.75678623
H        1.32531564       1.72706615      -0.10853951
H        2.70919795       0.96186657       0.67376828
H        2.50303991       0.81730643      -1.07754221
H        1.86629652      -1.28074744       0.08118442
H       -1.01817090      -1.90062987       0.94026687
H       -1.67839795       1.02456215       1.17479753
H       -2.82633577      -0.30941093       0.97200066
H       -2.25456790       0.31000747      -0.59870893
H       -0.53670017       1.36279143      -1.12033233
H       -0.00182900      -1.59276764      -1.41402036
17
Frame=7 idx=010654 GeodesicLength=0.4220050764372003 rxn_smarts="[C:1]([C@@:2]1([H:11])[O:3][C@@:4]2([H:12])[C:5]([H:13])([H:14])[C:6]([H:15])([H:16])[C@@:7]12[H:17])([H:8])([H:9])[H:10]>>[C:1]([C@@:2]1([H:11])[O:3][C@:4]([C:5]([H:13])([H:14])[H:15])([H:12])[C@:7]1([C:6][H:16])[H:17])([H:8])([H:9])[H:10]"
C        1.97644706       0.84777776      -0.12199832
C        1.18887619      -0.41831258       0.08161104
O        0.41882480      -0.41145722       1.30525431
C       -0.74293210      -0.88743879       0.63212569
C       -1.88996953       0.11741625       0.60829880
C       -0.96572154       0.36743228      -1.25984640
C       -0.06897681      -0.72330958      -0.75859303
H        1.33132527       1.72684613      -0.10822443
H        2.71263463       0.95867445       0.67584419
H        2.50825673       0.81421814      -1.07565713
H        1.86519034      -1.28217226       0.08228633
H       -1.01558705      -1.90085782       0.93533437
H       -1.67938613       1.03204401       1.15897698
H       -2.81801034      -0.30965562       0.99083191
H       -2.28101271       0.28895418      -0.61555490
H       -0.53687827       1.36785702      -1.11367919
H       -0.00308054      -1.58801636      -1.41701022
17
Frame=8 idx=010654 GeodesicLength=0.4819608517297447 rxn_smarts="[C:1]([C@@:2]1([H:11])[O:3][C@@:4]2([H:12])[C:5]([H:13])([H:14])[C:6]([H:15])([H:16])[C@@:7]12[H:17])([H:8])([H:9])[H:10]>>[C:1]([C@@:2]1([H:11])[O:3][C@:4]([C:5]([H:13])([H:14])[H:15])([H:12])[C@:7]1([C:6][H:16])[H:17])([H:8])([H:9])[H:10]"
C        1.98046634       0.84621555      -0.12085208
C        1.18980509      -0.41807648       0.08231252
O        0.41903079      -0.40925957       1.30525640
C       -0.74261371      -0.88544755       0.63291955
C       -1.89101176       0.11747389       0.60435833
C       -0.96803121       0.37257405      -1.24659256
C       -0.06705150      -0.71935905      -0.76033025
H        1.33718075       1.72661850      -0.10797632
H        2.71598620       0.95556223       0.67782202
H        2.51332966       0.81116582      -1.07385378
H        1.86405141      -1.28356830       0.08328043
H       -1.01300809      -1.90106190       0.93052094
H       -1.68061451       1.03904795       1.14386430
H       -2.80970787      -0.30954144       1.00869950
H       -2.30634111       0.26819181      -0.63221196
H       -0.53701341       1.37270900      -1.10732092
H       -0.00445707      -1.58324450      -1.41989612
17
Frame=9 idx=010654 GeodesicLength=0.5419835325002005 rxn_smarts="[C:1]([C@@:2]1([H:11])[O:3][C@@:4]2([H:12])[C:5]([H:13])([H:14])[C:6]([H:15])([H:16])[C@@:7]12[H:17])([H:8])([H:9])[H:10]>>[C:1]([C@@:2]1([H:11])[O:3][C@:4]([C:5]([H:13])([H:14])[H:15])([H:12])[C@:7]1([C:6][H:16])[H:17])([H:8])([H:9])[H:10]"
C        1.98438420       0.84468563      -0.11975084
C        1.19069876      -0.41783598       0.08299528
O        0.41930424      -0.40711886       1.30530123
C       -0.74228888      -0.88346994       0.63383433
C       -1.89204426       0.11752204       0.60060713
C       -0.97045395       0.37757498      -1.23327561
C       -0.06520690      -0.71538246      -0.76201242
H        1.34288620       1.72638160      -0.10776934
H        2.71925321       0.95252221       0.67972960
H        2.51827208       0.80816079      -1.07210847
H        1.86289254      -1.28493829       0.08417122
H       -1.01044964      -1.90124415       0.92579355
H       -1.68201871       1.04563943       1.12936435
H       -2.80137839      -0.30904385       1.02575606
H       -2.33078548       0.24764736      -0.64872581
H       -0.53713258       1.37736383      -1.10121792
H       -0.00593245      -1.57846435      -1.42269235
17
Frame=10 idx=010654 GeodesicLength=0.601949731405823 rxn_smarts="[C:1]([C@@:2]1([H:11])[O:3][C@@:4]2([H:12])[C:5]([H:13])([H:14])[C:6]([H:15])([H:16])[C@@:7]12[H:17])([H:8])([H:9])[H:10]>>[C:1]([C@@:2]1([H:11])[O:3][C@:4]([C:5]([H:13])([H:14])[H:15])([H:12])[C@:7]1([C:6][H:16])[H:17])([H:8])([H:9])[H:10]"
C        1.98820162       0.84318561      -0.11870560
C        1.19155515      -0.41759063       0.08365778
O        0.41965005      -0.40502872       1.30539276
C       -0.74195740      -0.88150173       0.63488284
C       -1.89306342       0.11756531       0.59707671
C       -0.97298237       0.38242513      -1.21989917
C       -0.06345242      -0.71137893      -0.76363044
H        1.34844482       1.72613507      -0.10761305
H        2.72244246       0.94955276       0.68155029
H        2.52307804       0.80519626      -1.07043607
H        1.86171056      -1.28628348       0.08495686
H       -1.00790312      -1.90139951       0.92117074
H       -1.68358213       1.05185283       1.11551485
H       -2.79309846      -0.30826786       1.04199721
H       -2.35427089       0.22739606      -0.66519250
H       -0.53725770       1.38182221      -1.09534065
H       -0.00751480      -1.57368037      -1.42538256
17
Frame=11 idx=010654 GeodesicLength=0.6618830873732889 rxn_smarts="[C:1]([C@@:2]1([H:11])[O:3][C@@:4]2([H:12])[C:5]([H:13])([H:14])[C:6]([H:15])([H:16])[C@@:7]12[H:17])([H:8])([H:9])[H:10]>>[C:1]([C@@:2]1([H:11])[O:3][C@:4]([C:5]([H:13])([H:14])[H:15])([H:12])[C@:7]1([C:6][H:16])[H:17])([H:8])([H:9])[H:10]"
C        1.99192053       0.84171469      -0.11771164
C        1.19237720      -0.41734344       0.08429995
O        0.42006879      -0.40299778       1.30552975
C       -0.74161962      -0.87954359       0.63605898
C       -1.89405882       0.11761294       0.59377154
C       -0.97559098       0.38712465      -1.20647855
C       -0.06178336      -0.70735462      -0.76518634
H        1.35385772       1.72587785      -0.10749907
H        2.72555605       0.94665048       0.68328948
H        2.52774918       0.80227581      -1.06883244
H        1.86051072      -1.28760557       0.08563810
H       -1.00537282      -1.90152751       0.91664612
H       -1.68526565       1.05773542       1.10228676
H       -2.78487759      -0.30725116       1.05750408
H       -2.37686438       0.20744147      -0.68168941
H       -0.53741075       1.38609053      -1.08966078
H       -0.00919621      -1.56890016      -1.42796653
17
Frame=12 idx=010654 GeodesicLength=0.7217968739146954 rxn_smarts="[C:1]([C@@:2]1([H:11])[O:3][C@@:4]2([H:12])[C:5]([H:13])([H:14])[C:6]([H:15])([H:16])[C@@:7]12[H:17])([H:8])([H:9])[H:10]>>[C:1]([C@@:2]1([H:11])[O:3][C@:4]([C:5]([H:13])([H:14])[H:15])([H:12])[C@:7]1([C:6][H:16])[H:17])([H:8])([H:9])[H:10]"
C        1.99554333       0.84027214      -0.11676394
C        1.19316781      -0.41709699       0.08492170
O        0.42056093      -0.40103406       1.30571072
C       -0.74127548      -0.87759647       0.63735667
C       -1.89502115       0.11767293       0.59069423
C       -0.97825889       0.39167603      -1.19302513
C       -0.06019528      -0.70331396      -0.76668255
H        1.35912684       1.72560939      -0.10741815
H        2.72859663       0.94381153       0.68495265
H        2.53228731       0.79940325      -1.06729323
H        1.85929733      -1.28890630       0.08621505
H       -1.00286335      -1.90162843       0.91221306
H       -1.68703921       1.06332432       1.08965111
H       -2.77671236      -0.30600797       1.07234419
H       -2.39863473       0.18776704      -0.69827832
H       -0.53760952       1.39017667      -1.08415248
H       -0.01097022      -1.56412912      -1.43044558
17
Frame=13 idx=010654 GeodesicLength=0.7817045246344801 rxn_smarts="[C:1]([C@@:2]1([H:11])[O:3][C@@:4]2([H:12])[C:5]([H:13])([H:14])[C:6]([H:15])([H:16])[C@@:7]12[H:17])([H:8])([H:9])[H:10]>>[C:1]([C@@:2]1([H:11])[O:3][C@:4]([C:5]([H:13])([H:14])[H:15])([H:12])[C@:7]1([C:6][H:16])[H:17])([H:8])([H:9])[H:10]"
C        1.99907113       0.83885748      -0.11585919
C        1.19392938      -0.41685380       0.08552326
O        0.42112780      -0.39914486       1.30593550
C       -0.74092494      -0.87566088       0.63877281
C       -1.89594066       0.11775445       0.58784959
C       -0.98096934       0.39608010      -1.17954748
C       -0.05868497      -0.69926211      -0.76811959
H        1.36425252       1.72532891      -0.10736225
H        2.73156684       0.94103280       0.68654245
H        2.53669189       0.79658255      -1.06581659
H        1.85807447      -1.29018714       0.08668793
H       -1.00037865      -1.90170159       0.90786808
H       -1.68887193       1.06865661       1.07758379
H       -2.76860917      -0.30456901       1.08658252
H       -2.41963184       0.16837378      -0.71502735
H       -0.53787065       1.39408633      -1.07879482
H       -0.01283186      -1.55937363      -1.43281867
17
Frame=14 idx=010654 GeodesicLength=0.8416150471591364 rxn_smarts="[C:1]([C@@:2]1([H:11])[O:3][C@@:4]2([H:12])[C:5]([H:13])([H:14])[C:6]([H:15])([H:16])[C@@:7]12[H:17])([H:8])([H:9])[H:10]>>[C:1]([C@@:2]1([H:11])[O:3][C@:4]([C:5]([H:13])([H:14])[H:15])([H:12])[C@:7]1([C:6][H:16])[H:17])([H:8])([H:9])[H:10]"
C        2.00250511       0.83747038      -0.11499276
C        1.19466411      -0.41661617       0.08610460
O        0.42177016      -0.39733815       1.30620337
C       -0.74056763      -0.87373895       0.64030317
C       -1.89680956       0.11786420       0.58523884
C       -0.98370863       0.40033925      -1.16605202
C       -0.05724902      -0.69520285      -0.76949897
H        1.36923510       1.72503620      -0.10732185
H        2.73446878       0.93831108       0.68806333
H        2.54096283       0.79381825      -1.06439899
H        1.85684609      -1.29144949       0.08705596
H       -0.99792315      -1.90174840       0.90360587
H       -1.69073714       1.07376375       1.06605870
H       -2.76056366      -0.30294118       1.10028104
H       -2.43991024       0.14924265      -0.73199295
H       -0.53820676       1.39782667      -1.07356971
H       -0.01477638      -1.55463725      -1.43508761
17
Frame=15 idx=010654 GeodesicLength=0.9015316358976437 rxn_smarts="[C:1]([C@@:2]1([H:11])[O:3][C@@:4]2([H:12])[C:5]([H:13])([H:14])[C:6]([H:15])([H:16])[C@@:7]12[H:17])([H:8])([H:9])[H:10]>>[C:1]([C@@:2]1([H:11])[O:3][C@:4]([C:5]([H:13])([H:14])[H:15])([H:12])[C@:7]1([C:6][H:16])[H:17])([H:8])([H:9])[H:10]"
C        2.00584574       0.83611079      -0.11416109
C        1.19537395      -0.41638628       0.08666591
O        0.42248887      -0.39562127       1.30651409
C       -0.74020333      -0.87183230       0.64194470
C       -1.89762018       0.11800956       0.58286416
C       -0.98646634       0.40445565      -1.15254298
C       -0.05588454      -0.69114056      -0.77082146
H        1.37407410       1.72473098      -0.10728839
H        2.73730429       0.93564379       0.68951824
H        2.54509894       0.79111517      -1.06303838
H        1.85561589      -1.29269449       0.08731873
H       -0.99550133      -1.90176947       0.89942271
H       -1.69260965       1.07867388       1.05505363
H       -2.75257367      -0.30113642       1.11349535
H       -2.45951450       0.13036216      -0.74922919
H       -0.53862831       1.40140327      -1.06846309
H       -0.01679992      -1.54992447      -1.43725295
17
Frame=16 idx=010654 GeodesicLength=0.9614634326564526 rxn_smarts="[C:1]([C@@:2]1([H:11])[O:3][C@@:4]2([H:12])[C:5]([H:13])([H:14])[C:6]([H:15])([H:16])[C@@:7]12[H:17])([H:8])([H:9])[H:10]>>[C:1]([C@@:2]1([H:11])[O:3][C@:4]([C:5]([H:13])([H:14])[H:15])([H:12])[C@:7]1([C:6][H:16])[H:17])([H:8])([H:9])[H:10]"
C        2.00909334       0.83477877      -0.11336077
C        1.19606054      -0.41616628       0.08720736
O        0.42328549      -0.39400175       1.30686797
C       -0.73983157      -0.86994279       0.64369576
C       -1.89836490       0.11819756       0.58072938
C       -0.98923373       0.40843164      -1.13902234
C       -0.05458965      -0.68707863      -0.77208728
H        1.37876891       1.72441322      -0.10725277
H        2.74007568       0.93302807       0.69090948
H        2.54909802       0.78847845      -1.06173327
H        1.85438712      -1.29392333       0.08747483
H       -0.99311753      -1.90176579       0.89531580
H       -1.69446585       1.08341357       1.04454731
H       -2.74463540      -0.29916257       1.12627542
H       -2.47848612       0.11171646      -0.76678958
H       -0.53914433       1.40482224      -1.06346223
H       -0.01890003      -1.54523885      -1.43931508
