18
Frame=0 idx=003808 GeodesicLength=0.0 rxn_smarts="[C:1]([C@@:2]1([H:10])[C@:3]([C:4]([H:12])([H:13])[H:14])([H:11])[C@:5]1([C:6]([H:16])([H:17])[H:18])[H:15])([H:7])([H:8])[H:9]>>[C:1]([C@@:2]([C:3]([C:4]([H:12])([H:13])[H:14])([H:11])[H:15])([C:5][C:6]([H:16])([H:17])[H:18])[H:10])([H:7])([H:8])[H:9]"
C       -0.88194047      -1.38108056       0.59044296
C        0.06599504      -1.00356813      -0.53415028
C       -0.08629375       0.38346718      -1.17400762
C       -1.02641336       1.39195741      -0.55652465
C        1.40904885      -0.40781845      -0.31060785
C        1.61995908       0.23438815       1.03502858
H       -1.88085602      -1.58762842       0.19930036
H       -0.98035906      -0.61304680       1.35629772
H       -0.52926622      -2.29146710       1.07895834
H        0.07201014      -1.78667142      -1.29155584
H       -0.17320505       0.30133160      -2.25550069
H       -0.99648989       2.33006991      -1.11187828
H       -0.77341732       1.61407631       0.48027696
H       -2.05428037       1.02334124      -0.57224300
H        1.03993047       0.74705849      -1.15236305
H        0.75080506       0.61159811       1.58715452
H        2.38188118       1.01322589       0.99558319
H        2.04289163      -0.57923349       1.63578857
18
Frame=1 idx=003808 GeodesicLength=0.06504929949797832 rxn_smarts="[C:1]([C@@:2]1([H:10])[C@:3]([C:4]([H:12])([H:13])[H:14])([H:11])[C@:5]1([C:6]([H:16])([H:17])[H:18])[H:15])([H:7])([H:8])[H:9]>>[C:1]([C@@:2]([C:3]([C:4]([H:12])([H:13])[H:14])([H:11])[H:15])([C:5][C:6]([H:16])([H:17])[H:18])[H:10])([H:7])([H:8])[H:9]"
C       -0.88395452      -1.38066953       0.59018601
C        0.06423825      -0.99683943      -0.53121413
C       -0.09300567       0.38429595      -1.17887895
C       -1.02840763       1.39758916      -0.56161905
C        1.40268376      -0.39308058      -0.30656603
C        1.62493676       0.22803154       1.04503780
H       -1.87880779      -1.59648629       0.19378229
H       -0.99370116      -0.61171790       1.35366576
H       -0.52370462      -2.28459822       1.08510430
H        0.09234163      -1.78517999      -1.28339315
H       -0.19969543       0.29093715      -2.25785180
H       -0.99823286       2.33453235      -1.11913478
H       -0.77307125       1.62221494       0.47406708
H       -2.05802489       1.03361105      -0.57349395
H        1.04945878       0.74467483      -1.17971414
H        0.75729087       0.59056621       1.60881022
H        2.38062961       1.01324199       1.01084825
H        2.05902614      -0.59112322       1.63036424
18
Frame=2 idx=003808 GeodesicLength=0.130126010272205 rxn_smarts="[C:1]([C@@:2]1([H:10])[C@:3]([C:4]([H:12])([H:13])[H:14])([H:11])[C@:5]1([C:6]([H:16])([H:17])[H:18])[H:15])([H:7])([H:8])[H:9]>>[C:1]([C@@:2]([C:3]([C:4]([H:12])([H:13])[H:14])([H:11])[H:15])([C:5][C:6]([H:16])([H:17])[H:18])[H:10])([H:7])([H:8])[H:9]"
C       -0.88591800      -1.38016335       0.58992921
C        0.06257113      -0.98993987      -0.52820042
C       -0.09994727       0.38512264      -1.18386356
C       -1.03047125       1.40334991      -0.56687372
C        1.39606408      -0.37749524      -0.30232739
C        1.62993073       0.22149864       1.05525296
H       -1.87652581      -1.60539302       0.18821434
H       -1.00714589      -0.61034105       1.35088602
H       -0.51813032      -2.27745240       1.09132806
H        0.11300712      -1.78317432      -1.27483203
H       -0.22643923       0.28037875      -2.25981122
H       -0.99993349       2.33904701      -1.12666079
H       -0.77275823       1.63055055       0.46766277
H       -2.06182310       1.04406899      -0.57479968
H        1.05892965       0.74124547      -1.20779051
H        0.76397839       0.56849060       1.63087462
H        2.37898950       1.01335821       1.02681763
H        2.07562198      -0.60315152       1.62419371
18
Frame=3 idx=003808 GeodesicLength=0.19523981073292287 rxn_smarts="[C:1]([C@@:2]1([H:10])[C@:3]([C:4]([H:12])([H:13])[H:14])([H:11])[C@:5]1([C:6]([H:16])([H:17])[H:18])[H:15])([H:7])([H:8])[H:9]>>[C:1]([C@@:2]([C:3]([C:4]([H:12])([H:13])[H:14])([H:11])[H:15])([C:5][C:6]([H:16])([H:17])[H:18])[H:10])([H:7])([H:8])[H:9]"
C       -0.88782396      -1.37954819       0.58967949
C        0.06099899      -0.98284603      -0.52509869
C       -0.10712604       0.38595687      -1.18895761
C       -1.03263502       1.40924148      -0.57231025
C        1.38916211      -0.36100122      -0.29786824
C        1.63495630       0.21477460       1.06567056
H       -1.87399669      -1.61433173       0.18260628
H       -1.02067732      -0.60890940       1.34796538
H       -0.51254365      -2.27001944       1.09762722
H        0.13401812      -1.78060365      -1.26584791
H       -0.25341114       0.26966236      -2.26136814
H       -1.00162395       2.34360843      -1.13448785
H       -0.77252123       1.63909611       0.46104278
H       -2.06569861       1.05470272      -0.57619086
H        1.06834042       0.73669390      -1.23654330
H        0.77091431       0.54531541       1.65332674
H        2.37698786       1.01352238       1.04355720
H        2.09267951      -0.61531459       1.61719719
18
Frame=4 idx=003808 GeodesicLength=0.2604013278975253 rxn_smarts="[C:1]([C@@:2]1([H:10])[C@:3]([C:4]([H:12])([H:13])[H:14])([H:11])[C@:5]1([C:6]([H:16])([H:17])[H:18])[H:15])([H:7])([H:8])[H:9]>>[C:1]([C@@:2]([C:3]([C:4]([H:12])([H:13])[H:14])([H:11])[H:15])([C:5][C:6]([H:16])([H:17])[H:18])[H:10])([H:7])([H:8])[H:9]"
C       -0.88966355      -1.37880761       0.58944567
C        0.05952724      -0.97553199      -0.52189870
C       -0.11454938       0.38681098      -1.19415603
C       -1.03493744       1.41526437      -0.57795360
C        1.38194761      -0.34353276      -0.29316477
C        1.64003373       0.20783872       1.07628158
H       -1.87120475      -1.62328347       0.17697061
H       -1.03427689      -0.60741384       1.34491349
H       -0.50694476      -2.26228747       1.10399850
H        0.15538412      -1.77741079      -1.25641314
H       -0.28057847       0.25879566      -2.26251397
H       -1.00334565       2.34820935      -1.14265136
H       -0.77241500       1.64786524       0.45418325
H       -2.06968167       1.06549363      -0.57770578
H        1.07769253       0.73094399      -1.26590004
H        0.77815180       0.52099090       1.67613592
H        2.37466841       1.01366083       1.06113795
H        2.11019212      -0.62760575       1.60929041
18
Frame=5 idx=003808 GeodesicLength=0.32561024648723025 rxn_smarts="[C:1]([C@@:2]1([H:10])[C@:3]([C:4]([H:12])([H:13])[H:14])([H:11])[C@:5]1([C:6]([H:16])([H:17])[H:18])[H:15])([H:7])([H:8])[H:9]>>[C:1]([C@@:2]([C:3]([C:4]([H:12])([H:13])[H:14])([H:11])[H:15])([C:5][C:6]([H:16])([H:17])[H:18])[H:10])([H:7])([H:8])[H:9]"
C       -0.89143182      -1.37792350       0.58923979
C        0.05815739      -0.96796864      -0.51858499
C       -0.12222013       0.38769983      -1.19944973
C       -1.03742351       1.42141739      -0.58383054
C        1.37438499      -0.32502691      -0.28818588
C        1.64518720       0.20066917       1.08707169
H       -1.86814022      -1.63222223       0.17132055
H       -1.04792548      -0.60584415       1.34174515
H       -0.50134086      -2.25424724       1.11043865
H        0.17711998      -1.77354063      -1.24650065
H       -0.30788667       0.24779501      -2.26324068
H       -1.00514683       2.35284163      -1.15118691
H       -0.77250668       1.65687067       0.44705983
H       -2.07380798       1.07641755      -0.57939228
H        1.08699004       0.72391753      -1.29576404
H        0.78575372       0.49546115       1.69926626
H        2.37208103       1.01370327       1.07961472
H        2.12815582      -0.64001991       1.60037908
18
Frame=6 idx=003808 GeodesicLength=0.39088789546627084 rxn_smarts="[C:1]([C@@:2]1([H:10])[C@:3]([C:4]([H:12])([H:13])[H:14])([H:11])[C@:5]1([C:6]([H:16])([H:17])[H:18])[H:15])([H:7])([H:8])[H:9]>>[C:1]([C@@:2]([C:3]([C:4]([H:12])([H:13])[H:14])([H:11])[H:15])([C:5][C:6]([H:16])([H:17])[H:18])[H:10])([H:7])([H:8])[H:9]"
C       -0.89312262      -1.37687516       0.58907344
C        0.05689146      -0.96012509      -0.51514422
C       -0.13014046       0.38863974      -1.20482937
C       -1.04014452       1.42769755      -0.58997239
C        1.36643694      -0.30541918      -0.28289686
C        1.65044503       0.19323920       1.09802123
H       -1.86479002      -1.64112043       0.16567207
H       -1.06160184      -0.60418886       1.33847656
H       -0.49573627      -2.24588911       1.11694355
H        0.19923016      -1.76892434      -1.23607487
H       -0.33528189       0.23667032      -2.26354427
H       -1.00708423       2.35749410      -1.16013636
H       -0.77287433       1.66612689       0.43964404
H       -2.07811918       1.08744416      -0.58130627
H        1.09625077       0.71555182      -1.32600743
H        0.79379159       0.46866772       1.72267113
H        2.36929180       1.01355001       1.09904336
H        2.14655762      -0.65253935       1.59036668
18
Frame=7 idx=003808 GeodesicLength=0.45622843695199167 rxn_smarts="[C:1]([C@@:2]1([H:10])[C@:3]([C:4]([H:12])([H:13])[H:14])([H:11])[C@:5]1([C:6]([H:16])([H:17])[H:18])[H:15])([H:7])([H:8])[H:9]>>[C:1]([C@@:2]([C:3]([C:4]([H:12])([H:13])[H:14])([H:11])[H:15])([C:5][C:6]([H:16])([H:17])[H:18])[H:10])([H:7])([H:8])[H:9]"
C       -0.89473546      -1.37563892       0.58896415
C        0.05572544      -0.95196639      -0.51155468
C       -0.13830589       0.38964994      -1.21028112
C       -1.04316028       1.43409839      -0.59641352
C        1.35806208      -0.28465340      -0.27725715
C        1.65584087       0.18552156       1.10910114
H       -1.86115318      -1.64993847       0.16004541
H       -1.07528257      -0.60243204       1.33513394
H       -0.49014434      -2.23720492       1.12351300
H        0.22172614      -1.76351010      -1.22511056
H       -0.36267578       0.22544923      -2.26342218
H       -1.00922527       2.36215344      -1.16954227
H       -0.77361332       1.67564659       0.43190584
H       -2.08266397       1.09853385      -0.58351729
H        1.10549042       0.70579212      -1.35647082
H        0.80234626       0.44054734       1.74629510
H        2.36637473       1.01310024       1.11946633
H        2.16539412      -0.66514845       1.57914469
18
Frame=8 idx=003808 GeodesicLength=0.5216491556850122 rxn_smarts="[C:1]([C@@:2]1([H:10])[C@:3]([C:4]([H:12])([H:13])[H:14])([H:11])[C@:5]1([C:6]([H:16])([H:17])[H:18])[H:15])([H:7])([H:8])[H:9]>>[C:1]([C@@:2]([C:3]([C:4]([H:12])([H:13])[H:14])([H:11])[H:15])([C:5][C:6]([H:16])([H:17])[H:18])[H:10])([H:7])([H:8])[H:9]"
C       -0.89627107      -1.37418909       0.58893023
C        0.05465375      -0.94345544      -0.50779427
C       -0.14671006       0.39075165      -1.21578894
C       -1.04653732       1.44061245      -0.60319202
C        1.34921424      -0.26267371      -0.27121707
C        1.66141314       0.17748317       1.12027231
H       -1.85722813      -1.65863331       0.15446255
H       -1.08894382      -0.60055749       1.33174635
H       -0.48458362      -2.22819053       1.13014137
H        0.24460894      -1.75723299      -1.21357262
H       -0.38997488       0.21414924      -2.26287660
H       -1.01164338       2.36680461      -1.17945124
H       -0.77483309       1.68544430       0.42381369
H       -2.08749849       1.10964170      -0.58610502
H        1.11474916       0.69459355      -1.38695067
H        0.81150855       0.41102909       1.77007358
H        2.36341768       1.01223826       1.14091425
H        2.18465841      -0.67781547       1.56659411
18
Frame=9 idx=003808 GeodesicLength=0.586981841344233 rxn_smarts="[C:1]([C@@:2]1([H:10])[C@:3]([C:4]([H:12])([H:13])[H:14])([H:11])[C@:5]1([C:6]([H:16])([H:17])[H:18])[H:15])([H:7])([H:8])[H:9]>>[C:1]([C@@:2]([C:3]([C:4]([H:12])([H:13])[H:14])([H:11])[H:15])([C:5][C:6]([H:16])([H:17])[H:18])[H:10])([H:7])([H:8])[H:9]"
C       -0.89775881      -1.37247839       0.58901017
C        0.05365413      -0.93454399      -0.50380745
C       -0.15527794       0.39198495      -1.22131375
C       -1.05034018       1.44720721      -0.61036263
C        1.33983326      -0.23947648      -0.26469386
C        1.66722146       0.16907124       1.13147607
H       -1.85306398      -1.66708480       0.14895626
H       -1.10254592      -0.59852616       1.32838221
H       -0.47913003      -2.21886015       1.13682015
H        0.26788381      -1.75008570      -1.20146861
H       -0.41700916       0.20283240      -2.26188793
H       -1.01442427       2.37141193      -1.18991814
H       -0.77668960       1.69551739       0.41532199
H       -2.09266733       1.12067756      -0.58921178
H        1.12398834       0.68202108      -1.41723650
H        0.82143511       0.37992024       1.79394755
H        2.36043925       1.01085487       1.16335231
H        2.20445186      -0.69044319       1.55263394
18
Frame=10 idx=003808 GeodesicLength=0.6523960885914805 rxn_smarts="[C:1]([C@@:2]1([H:10])[C@:3]([C:4]([H:12])([H:13])[H:14])([H:11])[C@:5]1([C:6]([H:16])([H:17])[H:18])[H:15])([H:7])([H:8])[H:9]>>[C:1]([C@@:2]([C:3]([C:4]([H:12])([H:13])[H:14])([H:11])[H:15])([C:5][C:6]([H:16])([H:17])[H:18])[H:10])([H:7])([H:8])[H:9]"
C       -0.89919242      -1.37049304       0.58921201
C        0.05272380      -0.92521239      -0.49959593
C       -0.16404586       0.39335491      -1.22684887
C       -1.05464655       1.45388543      -0.61795359
C        1.32987051      -0.21499114      -0.25764656
C        1.67329243       0.16026515       1.14265736
H       -1.84864394      -1.67528959       0.14354282
H       -1.11608204      -0.59633351       1.32505329
H       -0.47377887      -2.20919972       1.14355453
H        0.29154430      -1.74195149      -1.18869121
H       -0.44369985       0.19149709      -2.26049470
H       -1.01763828       2.37596945      -1.20098174
H       -0.77928734       1.70588342       0.40641163
H       -2.09824619       1.13161415      -0.59289417
H        1.13335916       0.66797894      -1.44701353
H        0.83218811       0.34722606       1.81780286
H        2.35758095       1.00883584       1.18682514
H        2.22470208      -0.70303954       1.53706067
18
Frame=11 idx=003808 GeodesicLength=0.7178949014888851 rxn_smarts="[C:1]([C@@:2]1([H:10])[C@:3]([C:4]([H:12])([H:13])[H:14])([H:11])[C@:5]1([C:6]([H:16])([H:17])[H:18])[H:15])([H:7])([H:8])[H:9]>>[C:1]([C@@:2]([C:3]([C:4]([H:12])([H:13])[H:14])([H:11])[H:15])([C:5][C:6]([H:16])([H:17])[H:18])[H:10])([H:7])([H:8])[H:9]"
C       -0.90059714      -1.36820294       0.58956484
C        0.05184034      -0.91543104      -0.49512435
C       -0.17297890       0.39488328      -1.23236072
C       -1.05952872       1.46062553      -0.62600575
C        1.31926428      -0.18921245      -0.24999252
C        1.67967402       0.15103033       1.15374340
H       -1.84400198      -1.68317334       0.13824883
H       -1.12953582      -0.59395764       1.32180962
H       -0.46859070      -2.19922098       1.15034266
H        0.31557463      -1.73277647      -1.17518254
H       -0.46988762       0.18017627      -2.25871606
H       -1.02136210       2.38045191      -1.21268439
H       -0.78277471       1.71654353       0.39705534
H       -2.10429818       1.14238251      -0.59726964
H        1.14295596       0.65248953      -1.47595099
H        0.84389082       0.31284508       1.84153886
H        2.35491320       1.00608962       1.21129343
H        2.24544261      -0.71554274       1.51968997
18
Frame=12 idx=003808 GeodesicLength=0.7834848564948593 rxn_smarts="[C:1]([C@@:2]1([H:10])[C@:3]([C:4]([H:12])([H:13])[H:14])([H:11])[C@:5]1([C:6]([H:16])([H:17])[H:18])[H:15])([H:7])([H:8])[H:9]>>[C:1]([C@@:2]([C:3]([C:4]([H:12])([H:13])[H:14])([H:11])[H:15])([C:5][C:6]([H:16])([H:17])[H:18])[H:10])([H:7])([H:8])[H:9]"
C       -0.90200398      -1.36557976       0.59009938
C        0.05097467      -0.90517710      -0.49035787
C       -0.18203803       0.39658919      -1.23781376
C       -1.06505467       1.46740368      -0.63455656
C        1.30795544      -0.16215922      -0.24165366
C        1.68641483       0.14133782       1.16464979
H       -1.83918412      -1.69065614       0.13310580
H       -1.14288916      -0.59137726       1.31870773
H       -0.46363143      -2.18894447       1.15718232
H        0.33993413      -1.72252239      -1.16089729
H       -0.49540465       0.16890384      -2.25658103
H       -1.02566537       2.38483320      -1.22506205
H       -0.78729704       1.72749527       0.38723031
H       -2.11088456       1.15291194      -0.60245548
H        1.15289912       0.63559972      -1.50368137
H        0.85666948       0.27666898       1.86503047
H        2.35249085       1.00253154       1.23669767
H        2.26671451      -0.72785884       1.50035559
18
Frame=13 idx=003808 GeodesicLength=0.8491554892940844 rxn_smarts="[C:1]([C@@:2]1([H:10])[C@:3]([C:4]([H:12])([H:13])[H:14])([H:11])[C@:5]1([C:6]([H:16])([H:17])[H:18])[H:15])([H:7])([H:8])[H:9]>>[C:1]([C@@:2]([C:3]([C:4]([H:12])([H:13])[H:14])([H:11])[H:15])([C:5][C:6]([H:16])([H:17])[H:18])[H:10])([H:7])([H:8])[H:9]"
C       -0.90345652      -1.36259412       0.59085159
C        0.05008995      -0.89443352      -0.48525544
C       -0.19116921       0.39848938      -1.24316577
C       -1.07128961       1.47419022      -0.64364270
C        1.29587806      -0.13387443      -0.23253218
C        1.69356379       0.13116244       1.17526996
H       -1.83425452      -1.69764533       0.12814611
H       -1.15612870      -0.58856778       1.31581296
H       -0.45898906      -2.17839946       1.16407288
H        0.36458524      -1.71115745      -1.14577735
H       -0.52006053       0.15771901      -2.25412171
H       -1.03061340       2.38908404      -1.23814558
H       -0.79301025       1.73873055       0.37691699
H       -2.11806516       1.16312515      -0.60858025
H        1.16332394       0.61738568      -1.52980514
H        0.87066643       0.23856476       1.88813609
H        2.35035983       0.99808548       1.26295101
H        2.28856973      -0.73986462       1.47886855
18
Frame=14 idx=003808 GeodesicLength=0.9149197359166172 rxn_smarts="[C:1]([C@@:2]1([H:10])[C@:3]([C:4]([H:12])([H:13])[H:14])([H:11])[C@:5]1([C:6]([H:16])([H:17])[H:18])[H:15])([H:7])([H:8])[H:9]>>[C:1]([C@@:2]([C:3]([C:4]([H:12])([H:13])[H:14])([H:11])[H:15])([C:5][C:6]([H:16])([H:17])[H:18])[H:10])([H:7])([H:8])[H:9]"
C       -0.90499556      -1.35922104       0.59185592
C        0.04914524      -0.88319701      -0.47978799
C       -0.20032377       0.40059449      -1.24837706
C       -1.07828479       1.48095267      -0.65329400
C        1.28298097      -0.10442576      -0.22255150
C        1.70116634       0.12048121       1.18548958
H       -1.82928178      -1.70405239       0.12341105
H       -1.16923531      -0.58550600       1.31319131
H       -0.45474283      -2.16762081       1.17101269
H        0.38944051      -1.69866764      -1.12978320
H       -0.54368279       0.14665327      -2.25138150
H       -1.03625660       2.39317251      -1.25195872
H       -0.80005052       1.75023646       0.36610045
H       -2.12589037       1.17294700      -0.61575867
H        1.17439100       0.59796414      -1.55391552
H        0.88601445       0.19841663       1.91067946
H        2.34855292       0.99268192       1.28997255
H        2.31105290      -0.75140964       1.45509516
18
Frame=15 idx=003808 GeodesicLength=0.9807749514140677 rxn_smarts="[C:1]([C@@:2]1([H:10])[C@:3]([C:4]([H:12])([H:13])[H:14])([H:11])[C@:5]1([C:6]([H:16])([H:17])[H:18])[H:15])([H:7])([H:8])[H:9]>>[C:1]([C@@:2]([C:3]([C:4]([H:12])([H:13])[H:14])([H:11])[H:15])([C:5][C:6]([H:16])([H:17])[H:18])[H:10])([H:7])([H:8])[H:9]"
C       -0.90667645      -1.35543975       0.59314989
C        0.04809150      -0.87147504      -0.47391982
C       -0.20943707       0.40291069      -1.25340046
C       -1.08607788       1.48765553      -0.66353167
C        1.26920944      -0.07391667      -0.21161897
C        1.70926246       0.10928334       1.19518311
H       -1.82435609      -1.70978121       0.11894040
H       -1.18219874      -0.58217039       1.31091520
H       -0.45099390      -2.15665628       1.17800229
H        0.41441448      -1.68505984      -1.11287378
H       -0.56608608       0.13574198      -2.24840531
H       -1.04262540       2.39706735      -1.26650985
H       -0.80854480       1.76199216       0.35477646
H       -2.13439883       1.18230489      -0.62410426
H        1.18627278       0.57747546      -1.57559669
H        0.90285836       0.15608716       1.93245586
H        2.34706826       0.98627676       1.31764376
H        2.33421797      -0.76229613       1.42889383
18
Frame=16 idx=003808 GeodesicLength=1.0467399921108356 rxn_smarts="[C:1]([C@@:2]1([H:10])[C@:3]([C:4]([H:12])([H:13])[H:14])([H:11])[C@:5]1([C:6]([H:16])([H:17])[H:18])[H:15])([H:7])([H:8])[H:9]>>[C:1]([C@@:2]([C:3]([C:4]([H:12])([H:13])[H:14])([H:11])[H:15])([C:5][C:6]([H:16])([H:17])[H:18])[H:10])([H:7])([H:8])[H:9]"
C       -0.90856486      -1.35123483       0.59477422
C        0.04687341      -0.85929150      -0.46761517
C       -0.21844153       0.40543524      -1.25818692
C       -1.09468486       1.49426241      -0.67436980
C        1.25451088      -0.04248102      -0.19964156
C        1.71788097       0.09757961       1.20421705
H       -1.81958566      -1.71473314       0.11477920
H       -1.19501533      -0.57854108       1.30906225
H       -0.44785718      -2.14556745       1.18504566
H        0.43940100      -1.67036270      -1.09501177
H       -0.58709669       0.12501574      -2.24524241
H       -1.04972050       2.40073818      -1.28179890
H       -0.81859778       1.77397078       0.34294846
H       -2.14361186       1.19113827      -0.63372217
H        1.19916003       0.55607831      -1.59444307
H        0.92134683       0.11140118       1.95322920
H        2.34586159       0.97885762       1.34585841
H        2.35814153      -0.77226561       1.40011731
