11
Frame=0 idx=004709 GeodesicLength=0.0 rxn_smarts="[C:1]([C:2](=[O:3])[C:4]([O:5][H:11])([H:9])[H:10])([H:6])([H:7])[H:8]>>[C:1]([C@:2]1([O:3][H:11])[C:4]([H:9])([H:10])[O:5]1)([H:6])([H:7])[H:8]"
C       -1.43131742      -0.12571692       0.08212421
C       -0.02294841       0.28770949       0.19997956
O        0.30711777       1.01955429       1.20526390
C        1.08806663      -0.18505272      -0.65578741
O        1.77844787      -0.71159747       0.40167597
H       -2.05829825       0.33304971       0.84287615
H       -1.44865911      -1.21297308       0.20161871
H       -1.79977033       0.08819985      -0.92282991
H        1.58176053       0.63952068      -1.20987639
H        0.71704493      -0.91203187      -1.39834870
H        1.28855574       0.77933801       1.25330396
11
Frame=1 idx=004709 GeodesicLength=0.07878998350742003 rxn_smarts="[C:1]([C:2](=[O:3])[C:4]([O:5][H:11])([H:9])[H:10])([H:6])([H:7])[H:8]>>[C:1]([C@:2]1([O:3][H:11])[C:4]([H:9])([H:10])[O:5]1)([H:6])([H:7])[H:8]"
C       -1.43069560      -0.12692723       0.08083094
C       -0.02109011       0.28495778       0.19967584
O        0.30534612       1.04637501       1.18523483
C        1.08816410      -0.19350597      -0.65505740
O        1.77078920      -0.68955083       0.42487159
H       -2.04941535       0.28598275       0.87423668
H       -1.45047792      -1.21854969       0.14298980
H       -1.81535471       0.14581415      -0.90340552
H        1.57723048       0.62360123      -1.22170791
H        0.72869174      -0.94269237      -1.37969380
H        1.29681205       0.78449517       1.25202496
11
Frame=2 idx=004709 GeodesicLength=0.15758510135038073 rxn_smarts="[C:1]([C:2](=[O:3])[C:4]([O:5][H:11])([H:9])[H:10])([H:6])([H:7])[H:8]>>[C:1]([C@:2]1([O:3][H:11])[C:4]([H:9])([H:10])[O:5]1)([H:6])([H:7])[H:8]"
C       -1.43013438      -0.12814214       0.07926301
C       -0.01929665       0.28232327       0.19935911
O        0.30311771       1.07236845       1.16482183
C        1.08825562      -0.20227944      -0.65400279
O        1.76290356      -0.66746874       0.44735207
H       -2.03908822       0.23710089       0.90333854
H       -1.45325755      -1.22110176       0.08312507
H       -1.83094833       0.20252446      -0.88027657
H        1.57284419       0.60704554      -1.23315919
H        0.74062605      -0.97306880      -1.36020379
H        1.30497801       0.79069827       1.25038271
11
Frame=3 idx=004709 GeodesicLength=0.23633524107713683 rxn_smarts="[C:1]([C:2](=[O:3])[C:4]([O:5][H:11])([H:9])[H:10])([H:6])([H:7])[H:8]>>[C:1]([C@:2]1([O:3][H:11])[C:4]([H:9])([H:10])[O:5]1)([H:6])([H:7])[H:8]"
C       -1.42960102      -0.12940809       0.07740180
C       -0.01758188       0.27996120       0.19889844
O        0.30045246       1.09742333       1.14414395
C        1.08833426      -0.21118501      -0.65273115
O        1.75464145      -0.64556132       0.46895959
H       -2.02741445       0.18720946       0.92959456
H       -1.45683713      -1.22055414       0.02306517
H       -1.84657456       0.25732101      -0.85367458
H        1.56875187       0.59012313      -1.24407138
H        0.75274286      -1.00276133      -1.34016325
H        1.31308614       0.79743177       1.24857684
11
Frame=4 idx=004709 GeodesicLength=0.31510119581577134 rxn_smarts="[C:1]([C:2](=[O:3])[C:4]([O:5][H:11])([H:9])[H:10])([H:6])([H:7])[H:8]>>[C:1]([C@:2]1([O:3][H:11])[C:4]([H:9])([H:10])[O:5]1)([H:6])([H:7])[H:8]"
C       -1.42912017      -0.13066951       0.07527607
C       -0.01593176       0.27774317       0.19847601
O        0.29729591       1.12158426       1.12334721
C        1.08836366      -0.22038232      -0.65111884
O        1.74617902      -0.62362518       0.48987542
H       -2.01454789       0.13585136       0.95314626
H       -1.46129438      -1.21678703      -0.03793949
H       -1.86202571       0.31071096      -0.82347590
H        1.56467103       0.57260678      -1.25463710
H        0.76503514      -1.03218673      -1.31920659
H        1.32137514       0.80515423       1.24625696
11
Frame=5 idx=004709 GeodesicLength=0.39394761505706133 rxn_smarts="[C:1]([C:2](=[O:3])[C:4]([O:5][H:11])([H:9])[H:10])([H:6])([H:7])[H:8]>>[C:1]([C@:2]1([O:3][H:11])[C:4]([H:9])([H:10])[O:5]1)([H:6])([H:7])[H:8]"
C       -1.42866415      -0.13178394       0.07281404
C       -0.01441569       0.27634538       0.19750248
O        0.29366775       1.14533269       1.10206707
C        1.08837238      -0.22983029      -0.64921020
O        1.73686514      -0.60202120       0.51033392
H       -2.00008597       0.08263237       0.97419708
H       -1.46609921      -1.20955510      -0.09965667
H       -1.87801714       0.36224709      -0.78952999
H        1.56136279       0.55427607      -1.26464619
H        0.77735704      -1.06114899      -1.29748422
H        1.32965707       0.81350591       1.24361269
11
Frame=6 idx=004709 GeodesicLength=0.47282801029129035 rxn_smarts="[C:1]([C:2](=[O:3])[C:4]([O:5][H:11])([H:9])[H:10])([H:6])([H:7])[H:8]>>[C:1]([C@:2]1([O:3][H:11])[C:4]([H:9])([H:10])[O:5]1)([H:6])([H:7])[H:8]"
C       -1.42823913      -0.13290791       0.07002933
C       -0.01297844       0.27525806       0.19641412
O        0.28955821       1.16831564       1.08068724
C        1.08833420      -0.23950907      -0.64697749
O        1.72720975      -0.58049165       0.53016023
H       -1.98443467       0.02827129       0.99211979
H       -1.47164098      -1.19890655      -0.16177398
H       -1.89394301       0.41170162      -0.75205316
H        1.55823382       0.53538562      -1.27422214
H        0.78967270      -1.08970528      -1.27487024
H        1.33822755       0.82258822       1.24048629
11
Frame=7 idx=004709 GeodesicLength=0.5518371634215538 rxn_smarts="[C:1]([C:2](=[O:3])[C:4]([O:5][H:11])([H:9])[H:10])([H:6])([H:7])[H:8]>>[C:1]([C@:2]1([O:3][H:11])[C:4]([H:9])([H:10])[O:5]1)([H:6])([H:7])[H:8]"
C       -1.42782958      -0.13378696       0.06689412
C       -0.01169915       0.27530230       0.19449840
O        0.28503388       1.19117684       1.05870208
C        1.08826776      -0.24943230      -0.64444531
O        1.71643720      -0.55940884       0.54967532
H       -1.96700325      -0.02797436       1.00726414
H       -1.47731024      -1.18449159      -0.22431074
H       -1.91066566       0.45874636      -0.71075244
H        1.55615941       0.51555870      -1.28317910
H        0.80179152      -1.11776951      -1.25143659
H        1.34681812       0.83207935       1.23709012
11
Frame=8 idx=004709 GeodesicLength=0.6308821285943425 rxn_smarts="[C:1]([C:2](=[O:3])[C:4]([O:5][H:11])([H:9])[H:10])([H:6])([H:7])[H:8]>>[C:1]([C@:2]1([O:3][H:11])[C:4]([H:9])([H:10])[O:5]1)([H:6])([H:7])[H:8]"
C       -1.42743390      -0.13463008       0.06346326
C       -0.01049658       0.27569389       0.19249922
O        0.28007585       1.21340566       1.03669225
C        1.08809188      -0.25960896      -0.64153419
O        1.70531471      -0.53835001       0.56862271
H       -1.94849948      -0.08524334       1.01889719
H       -1.48359203      -1.16635202      -0.28709709
H       -1.92715375       0.50317635      -0.66599977
H        1.55416023       0.49510038      -1.29170450
H        0.81364986      -1.14546837      -1.22696082
H        1.35588322       0.84227650       1.23312174
11
Frame=9 idx=004709 GeodesicLength=0.7100896055559313 rxn_smarts="[C:1]([C:2](=[O:3])[C:4]([O:5][H:11])([H:9])[H:10])([H:6])([H:7])[H:8]>>[C:1]([C@:2]1([O:3][H:11])[C:4]([H:9])([H:10])[O:5]1)([H:6])([H:7])[H:8]"
C       -1.42706505      -0.13519274       0.05971393
C       -0.00943171       0.27717188       0.18975626
O        0.27479807       1.23559639       1.01416609
C        1.08782483      -0.27005887      -0.63825505
O        1.69316689      -0.51762974       0.58731844
H       -1.92832926      -0.14425400       1.02722295
H       -1.49000038      -1.14412036      -0.35006091
H       -1.94423903       0.54467072      -0.61751987
H        1.55304006       0.47365850      -1.29964117
H        0.82502165      -1.17273444      -1.20147559
H        1.36521394       0.85289266       1.22877491
11
Frame=10 idx=004709 GeodesicLength=0.7894875935194545 rxn_smarts="[C:1]([C:2](=[O:3])[C:4]([O:5][H:11])([H:9])[H:10])([H:6])([H:7])[H:8]>>[C:1]([C@:2]1([O:3][H:11])[C:4]([H:9])([H:10])[O:5]1)([H:6])([H:7])[H:8]"
C       -1.42668665      -0.13551525       0.05554751
C       -0.00851828       0.27984650       0.18601742
O        0.26919033       1.25797774       0.99079835
C        1.08751724      -0.28080564      -0.63459336
O        1.67985532      -0.49723751       0.60584664
H       -1.90605624      -0.20496197       1.03198608
H       -1.49664167      -1.11769058      -0.41305459
H       -1.96213854       0.58303668      -0.56493227
H        1.55304567       0.45113853      -1.30687798
H        0.83580497      -1.19957569      -1.17492353
H        1.37462785       0.86378718       1.22418574
11
Frame=11 idx=004709 GeodesicLength=0.868869631968141 rxn_smarts="[C:1]([C:2](=[O:3])[C:4]([O:5][H:11])([H:9])[H:10])([H:6])([H:7])[H:8]>>[C:1]([C@:2]1([O:3][H:11])[C:4]([H:9])([H:10])[O:5]1)([H:6])([H:7])[H:8]"
C       -1.42631918      -0.13575844       0.05112655
C       -0.00766417       0.28288529       0.18227127
O        0.26335121       1.27983268       0.96753066
C        1.08698165      -0.29166537      -0.63058748
O        1.66620764      -0.47691892       0.62370338
H       -1.88318763      -0.26567909       1.03247517
H       -1.50355731      -1.08755045      -0.47485808
H       -1.97934566       0.61744196      -0.50975348
H        1.55298378       0.42821436      -1.31360162
H        0.84581030      -1.22573447      -1.14750797
H        1.38473938       0.87493245       1.21920159
11
Frame=12 idx=004709 GeodesicLength=0.9485055299543984 rxn_smarts="[C:1]([C:2](=[O:3])[C:4]([O:5][H:11])([H:9])[H:10])([H:6])([H:7])[H:8]>>[C:1]([C@:2]1([O:3][H:11])[C:4]([H:9])([H:10])[O:5]1)([H:6])([H:7])[H:8]"
C       -1.42594747      -0.13560651       0.04634895
C       -0.00696468       0.28732686       0.17735544
O        0.25733569       1.30220047       0.94318527
C        1.08631877      -0.30285766      -0.62614647
O        1.65119507      -0.45689674       0.64151188
H       -1.85801744      -0.32808277       1.02896897
H       -1.51051176      -1.05285218      -0.53631435
H       -1.99736588       0.64802245      -0.45047092
H        1.55415920       0.40400910      -1.31956458
H        0.85484744      -1.25147881      -1.11893231
H        1.39495106       0.88621580       1.21405811
11
Frame=13 idx=004709 GeodesicLength=1.0282799964308362 rxn_smarts="[C:1]([C:2](=[O:3])[C:4]([O:5][H:11])([H:9])[H:10])([H:6])([H:7])[H:8]>>[C:1]([C@:2]1([O:3][H:11])[C:4]([H:9])([H:10])[O:5]1)([H:6])([H:7])[H:8]"
C       -1.42558637      -0.13535664       0.04128407
C       -0.00633129       0.29210213       0.17240799
O        0.25104120       1.32440357       0.91848487
C        1.08540587      -0.31437120      -0.62113975
O        1.63588631      -0.43660387       0.65889958
H       -1.83196918      -0.39117966       1.02071708
H       -1.51783960      -1.01365275      -0.59709756
H       -2.01463011       0.67454849      -0.38787811
H        1.55522449       0.37892397      -1.32502082
H        0.86292191      -1.27688172      -1.08893899
H        1.40587678       0.89806769       1.20828166
11
Frame=14 idx=004709 GeodesicLength=1.108278407145313 rxn_smarts="[C:1]([C:2](=[O:3])[C:4]([O:5][H:11])([H:9])[H:10])([H:6])([H:7])[H:8]>>[C:1]([C@:2]1([O:3][H:11])[C:4]([H:9])([H:10])[O:5]1)([H:6])([H:7])[H:8]"
C       -1.42525943      -0.13479402       0.03595284
C       -0.00578911       0.29767564       0.16698824
O        0.24463310       1.34683645       0.89303121
C        1.08420560      -0.32618200      -0.61559323
O        1.61985738      -0.41624339       0.67599476
H       -1.80456788      -0.45502141       1.00757612
H       -1.52523549      -0.96983955      -0.65664100
H       -2.03161739       0.69646276      -0.32199782
H        1.55664219       0.35279672      -1.32982051
H        0.86978587      -1.30182662      -1.05764614
H        1.41734516       0.91013542       1.20215553
11
Frame=15 idx=004709 GeodesicLength=1.188429642728609 rxn_smarts="[C:1]([C:2](=[O:3])[C:4]([O:5][H:11])([H:9])[H:10])([H:6])([H:7])[H:8]>>[C:1]([C@:2]1([O:3][H:11])[C:4]([H:9])([H:10])[O:5]1)([H:6])([H:7])[H:8]"
C       -1.42496690      -0.13403644       0.03032745
C       -0.00532223       0.30373964       0.16134126
O        0.23809946       1.36932822       0.86689582
C        1.08269698      -0.33816400      -0.60957961
O        1.60337132      -0.39574136       0.69257605
H       -1.77633877      -0.51856037       0.98936691
H       -1.53279409      -0.92200897      -0.71401777
H       -2.04766342       0.71339991      -0.25352401
H        1.55815248       0.32596225      -1.33395079
H        0.87541433      -1.32610679      -1.02529542
H        1.42935084       0.92218791       1.19586011
11
Frame=16 idx=004709 GeodesicLength=1.2686516631322187 rxn_smarts="[C:1]([C:2](=[O:3])[C:4]([O:5][H:11])([H:9])[H:10])([H:6])([H:7])[H:8]>>[C:1]([C@:2]1([O:3][H:11])[C:4]([H:9])([H:10])[O:5]1)([H:6])([H:7])[H:8]"
C       -1.42474641      -0.13309429       0.02453099
C       -0.00491097       0.30997841       0.15588901
O        0.23146430       1.39163250       0.84037898
C        1.08079319      -0.35018844      -0.60314798
O        1.58676552      -0.37505994       0.70842917
H       -1.74809329      -0.58088087       0.96613553
H       -1.54028712      -0.87076968      -0.76838732
H       -2.06219704       0.72508781      -0.18363479
H        1.55928660       0.29876714      -1.33748925
H        0.87982448      -1.34953876      -0.99212756
H        1.44210074       0.93406611       1.18942323
