12
Frame=0 idx=010074 GeodesicLength=0.0 rxn_smarts="[N:1]([C:2](=[O:3])[C:4]([O:5][C:6](=[O:7])[H:12])([H:10])[H:11])([H:8])[H:9]>>[N:1]([C@@:2]1([O:3][C:6](=[O:7])[H:12])[C:4]([H:10])([H:11])[O:5]1)([H:8])[H:9]"
N       -1.48719531      -0.81079005       0.71440314
C       -0.53768539      -0.20162911       0.02871067
O        0.13427346      -0.95941330      -0.80708971
C       -0.14360645       1.19690795       0.21446131
O        1.01500139       0.71838442       0.78426981
C        1.50975199      -0.47786791      -0.97529571
O        1.79676987       0.14943907      -1.93068218
H       -2.09258236      -0.27988044       1.31240422
H       -1.49969767      -1.81499226       0.77121444
H       -0.03065049       1.76932972      -0.71776470
H       -0.81360902       1.74092525       0.89576511
H        2.14922997      -1.03041338      -0.29039644
12
Frame=1 idx=010074 GeodesicLength=0.1256555787777864 rxn_smarts="[N:1]([C:2](=[O:3])[C:4]([O:5][C:6](=[O:7])[H:12])([H:10])[H:11])([H:8])[H:9]>>[N:1]([C@@:2]1([O:3][C:6](=[O:7])[H:12])[C:4]([H:10])([H:11])[O:5]1)([H:8])[H:9]"
N       -1.46034569      -0.82439775       0.73711684
C       -0.56422211      -0.18042804       0.00704369
O        0.07857550      -0.92159834      -0.86528164
C       -0.16318462       1.21723039       0.18933129
O        0.98605486       0.72195027       0.77090557
C        1.51403439      -0.47608550      -0.94761082
O        1.86006683       0.12133842      -1.90375668
H       -1.98158369      -0.33582437       1.44122192
H       -1.52921652      -1.82681728       0.69310457
H       -0.02415856       1.78606391      -0.74075828
H       -0.83201453       1.76860702       0.86392881
H        2.11599414      -1.05003873      -0.24524528
12
Frame=2 idx=010074 GeodesicLength=0.25130650373367625 rxn_smarts="[N:1]([C:2](=[O:3])[C:4]([O:5][C:6](=[O:7])[H:12])([H:10])[H:11])([H:8])[H:9]>>[N:1]([C@@:2]1([O:3][C:6](=[O:7])[H:12])[C:4]([H:10])([H:11])[O:5]1)([H:8])[H:9]"
N       -1.43152637      -0.83914811       0.75570111
C       -0.58845246      -0.16073424      -0.01095015
O        0.02674915      -0.88465266      -0.91651073
C       -0.18291497       1.23680077       0.16658790
O        0.95930280       0.72787854       0.75724459
C        1.51701685      -0.47446085      -0.91885719
O        1.91384070       0.08728381      -1.87787861
H       -1.85680880      -0.39917726       1.55050181
H       -1.57254663      -1.82543070       0.61989675
H       -0.02072444       1.80151169      -0.76134427
H       -0.85082498       1.79295437       0.83615188
H        2.08688915      -1.06282536      -0.20054309
12
Frame=3 idx=010074 GeodesicLength=0.37750505394939593 rxn_smarts="[N:1]([C:2](=[O:3])[C:4]([O:5][C:6](=[O:7])[H:12])([H:10])[H:11])([H:8])[H:9]>>[N:1]([C@@:2]1([O:3][C:6](=[O:7])[H:12])[C:4]([H:10])([H:11])[O:5]1)([H:8])[H:9]"
N       -1.40245528      -0.85439252       0.76923782
C       -0.61153792      -0.14154114      -0.02675272
O       -0.02329343      -0.84777446      -0.96338170
C       -0.20235623       1.25613121       0.14623999
O        0.93407904       0.73449430       0.74396969
C        1.51863883      -0.47328522      -0.88954959
O        1.95993783       0.04870907      -1.85265271
H       -1.72573109      -0.46967447       1.63742167
H       -1.61960880      -1.81326928       0.55881451
H       -0.01860314       1.81689809      -0.77923844
H       -0.86943284       1.81521603       0.81227362
H        2.06036303      -1.07151161      -0.15638213
12
Frame=4 idx=010074 GeodesicLength=0.503849966984028 rxn_smarts="[N:1]([C:2](=[O:3])[C:4]([O:5][C:6](=[O:7])[H:12])([H:10])[H:11])([H:8])[H:9]>>[N:1]([C@@:2]1([O:3][C:6](=[O:7])[H:12])[C:4]([H:10])([H:11])[O:5]1)([H:8])[H:9]"
N       -1.37360656      -0.86988571       0.77800372
C       -0.63408681      -0.12256443      -0.04104926
O       -0.07297818      -0.81028042      -1.00746730
C       -0.22070652       1.27489388       0.12891183
O        0.91029943       0.73964186       0.73181869
C        1.51870911      -0.47236928      -0.86058955
O        1.99831865       0.00667961      -1.82871713
H       -1.60012943      -0.54009104       1.69794771
H       -1.65920162      -1.79729736       0.51516117
H       -0.01631176       1.83281738      -0.79311021
H       -0.88621059       1.83580608       0.79307937
H        2.03590428      -1.07735057      -0.11398904
12
Frame=5 idx=010074 GeodesicLength=0.6304783577547981 rxn_smarts="[N:1]([C:2](=[O:3])[C:4]([O:5][C:6](=[O:7])[H:12])([H:10])[H:11])([H:8])[H:9]>>[N:1]([C@@:2]1([O:3][C:6](=[O:7])[H:12])[C:4]([H:10])([H:11])[O:5]1)([H:8])[H:9]"
N       -1.34520031      -0.88520583       0.78313497
C       -0.65553187      -0.10395454      -0.05314052
O       -0.12217742      -0.77254618      -1.04820156
C       -0.23826690       1.29343274       0.11355195
O        0.88794303       0.74484087       0.72037572
C        1.51814208      -0.47159303      -0.83123444
O        2.03000012      -0.03910808      -1.80579940
H       -1.47609745      -0.61295315       1.73979192
H       -1.69687011      -1.77741648       0.48158719
H       -0.01463610       1.84854179      -0.80489868
H       -0.90181223       1.85574516       0.77661520
H        2.01450715      -1.07978327      -0.07178235
12
Frame=6 idx=010074 GeodesicLength=0.75728674484835 rxn_smarts="[N:1]([C:2](=[O:3])[C:4]([O:5][C:6](=[O:7])[H:12])([H:10])[H:11])([H:8])[H:9]>>[N:1]([C@@:2]1([O:3][C:6](=[O:7])[H:12])[C:4]([H:10])([H:11])[O:5]1)([H:8])[H:9]"
N       -1.31780921      -0.90019307       0.78474754
C       -0.67642558      -0.08566890      -0.06378948
O       -0.17159251      -0.73448684      -1.08645153
C       -0.25486871       1.31153430       0.10017738
O        0.86654474       0.74903336       0.71007658
C        1.51709086      -0.47074315      -0.80169881
O        2.05516295      -0.08801067      -1.78396522
H       -1.35690033      -0.68396908       1.76374014
H       -1.72883449      -1.75772875       0.45844217
H       -0.01262478       1.86440915      -0.81410490
H       -0.91583828       1.87516264       0.76284897
H        1.99609533      -1.07933897      -0.03002283
12
Frame=7 idx=010074 GeodesicLength=0.8842202021476778 rxn_smarts="[N:1]([C:2](=[O:3])[C:4]([O:5][C:6](=[O:7])[H:12])([H:10])[H:11])([H:8])[H:9]>>[N:1]([C@@:2]1([O:3][C:6](=[O:7])[H:12])[C:4]([H:10])([H:11])[O:5]1)([H:8])[H:9]"
N       -1.29064224      -0.91495457       0.78423088
C       -0.69587237      -0.06798317      -0.07202871
O       -0.22103951      -0.69649527      -1.12143916
C       -0.27064335       1.32933524       0.08805532
O        0.84646672       0.75359201       0.70041107
C        1.51642116      -0.46969200      -0.77155618
O        2.07441905      -0.14025463      -1.76306498
H       -1.23989407      -0.75794430       1.77388165
H       -1.76104329      -1.73458268       0.44134503
H       -0.01134014       1.87938944      -0.82248513
H       -0.92890402       1.89445683       0.75029681
H        1.98207206      -1.07486692       0.01235339
12
Frame=8 idx=010074 GeodesicLength=1.0115523071052221 rxn_smarts="[N:1]([C:2](=[O:3])[C:4]([O:5][C:6](=[O:7])[H:12])([H:10])[H:11])([H:8])[H:9]>>[N:1]([C@@:2]1([O:3][C:6](=[O:7])[H:12])[C:4]([H:10])([H:11])[O:5]1)([H:8])[H:9]"
N       -1.26445476      -0.92949602       0.78093714
C       -0.71470564      -0.05090995      -0.07924143
O       -0.27105588      -0.65853842      -1.15430841
C       -0.28582090       1.34651069       0.07736415
O        0.82683149       0.75728961       0.69193914
C        1.51632718      -0.46780738      -0.74080120
O        2.08797962      -0.19591351      -1.74289157
H       -1.12580502      -0.82961080       1.76968243
H       -1.79047527      -1.71183281       0.43164270
H       -0.00958260       1.89428384      -0.82874997
H       -0.94111152       1.91312944       0.73943181
H        1.97187329      -1.06710470       0.05499521
12
Frame=9 idx=010074 GeodesicLength=1.1382140812188983 rxn_smarts="[N:1]([C:2](=[O:3])[C:4]([O:5][C:6](=[O:7])[H:12])([H:10])[H:11])([H:8])[H:9]>>[N:1]([C@@:2]1([O:3][C:6](=[O:7])[H:12])[C:4]([H:10])([H:11])[O:5]1)([H:8])[H:9]"
N       -1.23853859      -0.94350490       0.77595634
C       -0.73234571      -0.03425566      -0.08444213
O       -0.32245074      -0.62010998      -1.18464688
C       -0.29968061       1.36320224       0.06786116
O        0.80831650       0.76019094       0.68430806
C        1.51672280      -0.46595401      -0.70993237
O        2.09560512      -0.25377890      -1.72316961
H       -1.01961197      -0.90025481       1.75410228
H       -1.81476988      -1.68971877       0.42721689
H       -0.00782141       1.90815544      -0.83412747
H       -0.95167286       1.93203183       0.72939736
H        1.96624734      -1.05600343       0.09747637
12
Frame=10 idx=010074 GeodesicLength=1.265408446139858 rxn_smarts="[N:1]([C:2](=[O:3])[C:4]([O:5][C:6](=[O:7])[H:12])([H:10])[H:11])([H:8])[H:9]>>[N:1]([C@@:2]1([O:3][C:6](=[O:7])[H:12])[C:4]([H:10])([H:11])[O:5]1)([H:8])[H:9]"
N       -1.21322550      -0.95768295       0.76892638
C       -0.74894239      -0.01846958      -0.08853319
O       -0.37497419      -0.58190528      -1.21295618
C       -0.31289704       1.37930647       0.05927357
O        0.79025211       0.76269388       0.67789660
C        1.51869144      -0.46274882      -0.67827167
O        2.09780175      -0.31536133      -1.70374899
H       -0.91596876      -0.97072921       1.72704628
H       -1.83910763      -1.66654490       0.42799586
H       -0.00568413       1.92150625      -0.83842786
H       -0.96168398       1.95051347       0.72006218
H        1.96573833      -1.04057800       0.14073703
12
Frame=11 idx=010074 GeodesicLength=1.3929117506767643 rxn_smarts="[N:1]([C:2](=[O:3])[C:4]([O:5][C:6](=[O:7])[H:12])([H:10])[H:11])([H:8])[H:9]>>[N:1]([C@@:2]1([O:3][C:6](=[O:7])[H:12])[C:4]([H:10])([H:11])[O:5]1)([H:8])[H:9]"
N       -1.18807436      -0.97196600       0.75972248
C       -0.76474024      -0.00312107      -0.09166319
O       -0.42951009      -0.54283802      -1.23965095
C       -0.32534411       1.39502010       0.05176657
O        0.77258834       0.76454674       0.67266887
C        1.52215265      -0.45810566      -0.64607710
O        2.09412246      -0.38187180      -1.68419832
H       -0.81791027      -1.03859972       1.68982739
H       -1.85917077      -1.64520908       0.43292086
H       -0.00290452       1.93451925      -0.84137617
H       -0.97082868       1.96883295       0.71169853
H        1.96961958      -1.02120768       0.18436102
12
Frame=12 idx=010074 GeodesicLength=1.520687279792882 rxn_smarts="[N:1]([C:2](=[O:3])[C:4]([O:5][C:6](=[O:7])[H:12])([H:10])[H:11])([H:8])[H:9]>>[N:1]([C@@:2]1([O:3][C:6](=[O:7])[H:12])[C:4]([H:10])([H:11])[O:5]1)([H:8])[H:9]"
N       -1.16257376      -0.98680827       0.74814027
C       -0.77973251       0.01172566      -0.09405327
O       -0.48664235      -0.50258549      -1.26500760
C       -0.33691800       1.41032269       0.04523416
O        0.75542048       0.76565658       0.66854232
C        1.52742006      -0.45185834      -0.61362369
O        2.08430964      -0.45332881      -1.66369469
H       -0.72635146      -1.10264900       1.64429457
H       -1.87444715      -1.62667578       0.44093907
H        0.00065158       1.94724387      -0.84310985
H       -0.97897061       1.98692619       0.70427362
H        1.97783408      -0.99796930       0.22806508
12
Frame=13 idx=010074 GeodesicLength=1.647981008891586 rxn_smarts="[N:1]([C:2](=[O:3])[C:4]([O:5][C:6](=[O:7])[H:12])([H:10])[H:11])([H:8])[H:9]>>[N:1]([C@@:2]1([O:3][C:6](=[O:7])[H:12])[C:4]([H:10])([H:11])[O:5]1)([H:8])[H:9]"
N       -1.13613722      -1.00243285       0.73396393
C       -0.79338732       0.02557634      -0.09570245
O       -0.54647830      -0.46167476      -1.28856038
C       -0.34752966       1.42464647       0.03935443
O        0.73875791       0.76563716       0.66520021
C        1.53485278      -0.44425074      -0.58125414
O        2.06911073      -0.52761163      -1.64068057
H       -0.64072850      -1.16461438       1.59126611
H       -1.88764657      -1.60771478       0.45238952
H        0.00437053       1.95868379      -0.84424405
H       -0.98630867       2.00430835       0.69705359
H        1.99112429      -0.97055295       0.27121381
12
Frame=14 idx=010074 GeodesicLength=1.7761219810460382 rxn_smarts="[N:1]([C:2](=[O:3])[C:4]([O:5][C:6](=[O:7])[H:12])([H:10])[H:11])([H:8])[H:9]>>[N:1]([C@@:2]1([O:3][C:6](=[O:7])[H:12])[C:4]([H:10])([H:11])[O:5]1)([H:8])[H:9]"
N       -1.10888560      -1.01906737       0.71639720
C       -0.80603853       0.03877746      -0.09720476
O       -0.60979077      -0.41920380      -1.31081471
C       -0.35743286       1.43850433       0.03411300
O        0.72235890       0.76500176       0.66287644
C        1.54512659      -0.43403780      -0.54868191
O        2.04719415      -0.60808966      -1.61385810
H       -0.55878859      -1.22473167       1.52994777
H       -1.89801581      -1.58960315       0.46700094
H        0.00873053       1.96971556      -0.84455926
H       -0.99318860       2.02115564       0.69028408
H        2.00873060      -0.93842130       0.31449932
12
Frame=15 idx=010074 GeodesicLength=1.9057878536403439 rxn_smarts="[N:1]([C:2](=[O:3])[C:4]([O:5][C:6](=[O:7])[H:12])([H:10])[H:11])([H:8])[H:9]>>[N:1]([C@@:2]1([O:3][C:6](=[O:7])[H:12])[C:4]([H:10])([H:11])[O:5]1)([H:8])[H:9]"
N       -1.08003869      -1.03690761       0.69433607
C       -0.81769395       0.05159331      -0.09891076
O       -0.67730957      -0.37420950      -1.33174647
C       -0.36676385       1.45209042       0.02957816
O        0.70611959       0.76386025       0.66133654
C        1.55872310      -0.42047232      -0.51626012
O        2.01686446      -0.69737831      -1.58058330
H       -0.47964356      -1.28269732       1.45981306
H       -1.90405871      -1.57288807       0.48416987
H        0.01357810       1.98059955      -0.84386434
H       -0.99972092       2.03741834       0.68425990
H        2.02994400      -0.90100874       0.35787138
12
Frame=16 idx=010074 GeodesicLength=2.0376410521343926 rxn_smarts="[N:1]([C:2](=[O:3])[C:4]([O:5][C:6](=[O:7])[H:12])([H:10])[H:11])([H:8])[H:9]>>[N:1]([C@@:2]1([O:3][C:6](=[O:7])[H:12])[C:4]([H:10])([H:11])[O:5]1)([H:8])[H:9]"
N       -1.04908565      -1.05587588       0.66698548
C       -0.82845287       0.06417127      -0.10111373
O       -0.75004254      -0.32621945      -1.35097481
C       -0.37532939       1.46542758       0.02555835
O        0.69030466       0.76205618       0.65995944
C        1.57582596      -0.40365126      -0.48476192
O        1.97715151      -0.79461627      -1.53747496
H       -0.40295911      -1.33723514       1.38129488
H       -1.90380217      -1.55890089       0.50309706
H        0.01866833       1.99125824      -0.84258417
H       -1.00530216       2.05315255       0.67917274
H        2.05302343      -0.85956692       0.40084164
