16
Frame=0 idx=010740 GeodesicLength=0.0 rxn_smarts="[N:1]([C:2](=[O:3])[C:4]([C:5]([C:6]([O:7][H:16])([H:14])[H:15])([H:12])[H:13])([H:10])[H:11])([H:8])[H:9]>>[C:2](=[O:3])=[C:4]([H:10])[H:11].[N:1]([C:5]([C:6]([O:7][H:16])([H:14])[H:15])([H:12])[H:13])([H:8])[H:9]"
N        1.11038842       0.26160401       0.54187921
C        1.13104010      -1.17053165       0.89494719
O        1.28306478      -1.43931589       2.07528707
C        0.78364036      -1.96284028      -0.19728504
C       -0.92680514      -0.12084872       0.01896046
C       -1.10312620       1.14676100      -0.72760077
O       -0.66765322       2.26223540       0.00341707
H        1.20825094       0.84656321       1.36038862
H        1.75760732       0.53731587      -0.18410996
H        0.91492135      -1.58601171      -1.20348586
H        0.69759535      -3.03224965      -0.06244652
H       -1.34246620      -0.96914507      -0.49832245
H       -1.14322541      -0.10808839       1.07977428
H       -0.61506859       1.07672011      -1.70790182
H       -2.19014110       1.19928799      -0.91649743
H       -0.89802269       3.05854375      -0.47700406
16
Frame=1 idx=010740 GeodesicLength=0.08936695650365786 rxn_smarts="[N:1]([C:2](=[O:3])[C:4]([C:5]([C:6]([O:7][H:16])([H:14])[H:15])([H:12])[H:13])([H:10])[H:11])([H:8])[H:9]>>[C:2](=[O:3])=[C:4]([H:10])[H:11].[N:1]([C:5]([C:6]([O:7][H:16])([H:14])[H:15])([H:12])[H:13])([H:8])[H:9]"
N        1.10423601       0.26618018       0.56323988
C        1.15481686      -1.18986080       0.90108900
O        1.33775350      -1.46938677       2.07232848
C        0.77519406      -1.96419350      -0.19461735
C       -0.91612402      -0.11886357       0.01444919
C       -1.10641952       1.14704458      -0.73629408
O       -0.66636342       2.26541515      -0.01090680
H        1.20263781       0.84645374       1.38474603
H        1.73371370       0.56170801      -0.17020995
H        0.91463313      -1.58618495      -1.19913268
H        0.67959337      -3.03346950      -0.06487688
H       -1.35363637      -0.96002335      -0.49894295
H       -1.15032341      -0.10338915       1.07199622
H       -0.62297441       1.07741200      -1.71897782
H       -2.19398600       1.20058881      -0.91887188
H       -0.89275130       3.06056911      -0.49501841
16
Frame=2 idx=010740 GeodesicLength=0.1786170850931812 rxn_smarts="[N:1]([C:2](=[O:3])[C:4]([C:5]([C:6]([O:7][H:16])([H:14])[H:15])([H:12])[H:13])([H:10])[H:11])([H:8])[H:9]>>[C:2](=[O:3])=[C:4]([H:10])[H:11].[N:1]([C:5]([C:6]([O:7][H:16])([H:14])[H:15])([H:12])[H:13])([H:8])[H:9]"
N        1.09732635       0.27063731       0.58512829
C        1.17907700      -1.20924048       0.90626558
O        1.39630174      -1.49911675       2.06686265
C        0.76644366      -1.96558999      -0.19138537
C       -0.90585447      -0.11682652       0.00965525
C       -1.10960015       1.14743558      -0.74516898
O       -0.66518842       2.26857434      -0.02515194
H        1.19561160       0.84587288       1.40992446
H        1.70945261       0.58599232      -0.15445450
H        0.91361384      -1.58720747      -1.19453157
H        0.66109311      -3.03450057      -0.06585221
H       -1.36487990      -0.95046459      -0.49979993
H       -1.15819389      -0.09863695       1.06356346
H       -0.63041829       1.07821672      -1.73003819
H       -2.19758374       1.20226620      -0.92197016
H       -0.88720104       3.06258798      -0.51304684
16
Frame=3 idx=010740 GeodesicLength=0.2677160616022496 rxn_smarts="[N:1]([C:2](=[O:3])[C:4]([C:5]([C:6]([O:7][H:16])([H:14])[H:15])([H:12])[H:13])([H:10])[H:11])([H:8])[H:9]>>[C:2](=[O:3])=[C:4]([H:10])[H:11].[N:1]([C:5]([C:6]([O:7][H:16])([H:14])[H:15])([H:12])[H:13])([H:8])[H:9]"
N        1.08958585       0.27494543       0.60760131
C        1.20388618      -1.22863719       0.91040456
O        1.45874909      -1.52830427       2.05853052
C        0.75737335      -1.96705312      -0.18752644
C       -0.89601821      -0.11474191       0.00460400
C       -1.11263219       1.14794089      -0.75423248
O       -0.66411736       2.27171373      -0.03928561
H        1.18708060       0.84471484       1.43602511
H        1.68479628       0.61016844      -0.13679550
H        0.91172328      -1.58916439      -1.18967588
H        0.64215676      -3.03536826      -0.06519936
H       -1.37616955      -0.94047741      -0.50093432
H       -1.16688901      -0.09381266       1.05447120
H       -0.63730486       1.07914160      -1.74106759
H       -2.20089664       1.20433143      -0.92586058
H       -0.88132356       3.06460286      -0.53105893
16
Frame=4 idx=010740 GeodesicLength=0.35664419680366266 rxn_smarts="[N:1]([C:2](=[O:3])[C:4]([C:5]([C:6]([O:7][H:16])([H:14])[H:15])([H:12])[H:13])([H:10])[H:11])([H:8])[H:9]>>[C:2](=[O:3])=[C:4]([H:10])[H:11].[N:1]([C:5]([C:6]([O:7][H:16])([H:14])[H:15])([H:12])[H:13])([H:8])[H:9]"
N        1.08095954       0.27907517       0.63071286
C        1.22935761      -1.24800529       0.91341224
O        1.52502819      -1.55669733       2.04696312
C        0.74798068      -1.96860891      -0.18297493
C       -0.88662592      -0.11262720      -0.00067667
C       -1.11547458       1.14856336      -0.76349043
O       -0.66313421       2.27483412      -0.05326011
H        1.17697822       0.84286920       1.46314877
H        1.65971911       0.63425327      -0.11719340
H        0.90881261      -1.59215527      -1.18457572
H        0.62281608      -3.03609963      -0.06271919
H       -1.38747495      -0.93008978      -0.50239426
H       -1.17644885      -0.08891742       1.04472126
H       -0.64353322       1.08020488      -1.75205754
H       -2.20388719       1.20677925      -0.93061214
H       -0.87507312       3.06662157      -0.54900386
16
Frame=5 idx=010740 GeodesicLength=0.4452561245291147 rxn_smarts="[N:1]([C:2](=[O:3])[C:4]([C:5]([C:6]([O:7][H:16])([H:14])[H:15])([H:12])[H:13])([H:10])[H:11])([H:8])[H:9]>>[C:2](=[O:3])=[C:4]([H:10])[H:11].[N:1]([C:5]([C:6]([O:7][H:16])([H:14])[H:15])([H:12])[H:13])([H:8])[H:9]"
N        1.07134804       0.28296945       0.65451665
C        1.25554728      -1.26728496       0.91514544
O        1.59499315      -1.58404525       2.03171555
C        0.73826712      -1.97024195      -0.17767781
C       -0.87769341      -0.11046621      -0.00611822
C       -1.11807221       1.14928583      -0.77292302
O       -0.66221499       2.27790515      -0.06707025
H        1.16518409       0.84017849       1.49137554
H        1.63415936       0.65821739      -0.09556596
H        0.90471687      -1.59623593      -1.17920493
H        0.60324836      -3.03667333      -0.05826337
H       -1.39875032      -0.91927882      -0.50415590
H       -1.18690545      -0.08387585       1.03432055
H       -0.64899173       1.08133538      -1.76294002
H       -2.20648202       1.20962452      -0.93625541
H       -0.86835414       3.06858611      -0.56689886
16
Frame=6 idx=010740 GeodesicLength=0.5336016750108962 rxn_smarts="[N:1]([C:2](=[O:3])[C:4]([C:5]([C:6]([O:7][H:16])([H:14])[H:15])([H:12])[H:13])([H:10])[H:11])([H:8])[H:9]>>[C:2](=[O:3])=[C:4]([H:10])[H:11].[N:1]([C:5]([C:6]([O:7][H:16])([H:14])[H:15])([H:12])[H:13])([H:8])[H:9]"
N        1.06073548       0.28659761       0.67904343
C        1.28264020      -1.28640407       0.91546457
O        1.66837541      -1.60999832       2.01246087
C        0.72824327      -1.97201062      -0.17154739
C       -0.86921711      -0.10829966      -0.01170759
C       -1.12037910       1.15012380      -0.78253855
O       -0.66133865       2.28094310      -0.08062057
H        1.15169607       0.83653475       1.52078219
H        1.60809503       0.68209346      -0.07191659
H        0.89924928      -1.60157608      -1.17359879
H        0.58349519      -3.03716070      -0.05155906
H       -1.40995774      -0.90810937      -0.50631965
H       -1.19827362      -0.07874154       1.02327253
H       -0.65357109       1.08261216      -1.77372844
H       -2.20864871       1.21285121      -0.94287133
H       -0.86114390       3.07054426      -0.58461564
16
Frame=7 idx=010740 GeodesicLength=0.6215995759498708 rxn_smarts="[N:1]([C:2](=[O:3])[C:4]([C:5]([C:6]([O:7][H:16])([H:14])[H:15])([H:12])[H:13])([H:10])[H:11])([H:8])[H:9]>>[C:2](=[O:3])=[C:4]([H:10])[H:11].[N:1]([C:5]([C:6]([O:7][H:16])([H:14])[H:15])([H:12])[H:13])([H:8])[H:9]"
N        1.04905538       0.28989645       0.70432116
C        1.31076252      -1.30526621       0.91416768
O        1.74488490      -1.63419956       1.98878379
C        0.71792913      -1.97393023      -0.16449608
C       -0.86119276      -0.10613425      -0.01740831
C       -1.12233262       1.15107522      -0.79231949
O       -0.66048962       2.28392582      -0.09384622
H        1.13644132       0.83177302       1.55141688
H        1.58145610       0.70586045      -0.04620141
H        0.89221840      -1.60832036      -1.16774026
H        0.56368939      -3.03756451      -0.04234889
H       -1.42103323      -0.89658863      -0.50893554
H       -1.21056483      -0.07350168       1.01156076
H       -0.65714104       1.08403892      -1.78436839
H       -2.21031311       1.21646435      -0.95050702
H       -0.85336993       3.07247121      -0.60207867
16
Frame=8 idx=010740 GeodesicLength=0.7092772912968932 rxn_smarts="[N:1]([C:2](=[O:3])[C:4]([C:5]([C:6]([O:7][H:16])([H:14])[H:15])([H:12])[H:13])([H:10])[H:11])([H:8])[H:9]>>[C:2](=[O:3])=[C:4]([H:10])[H:11].[N:1]([C:5]([C:6]([O:7][H:16])([H:14])[H:15])([H:12])[H:13])([H:8])[H:9]"
N        1.03628559       0.29281212       0.73037240
C        1.34012950      -1.32376392       0.91098817
O        1.82404859      -1.65627995       1.96038453
C        0.70737502      -1.97604030      -0.15645299
C       -0.85360093      -0.10399880      -0.02318296
C       -1.12387956       1.15214603      -0.80225588
O       -0.65965280       2.28686705      -0.10666800
H        1.11940143       0.82573526       1.58333977
H        1.55418742       0.72954316      -0.01838601
H        0.88340408      -1.61665231      -1.16166512
H        0.54396204      -3.03792014      -0.03035281
H       -1.43192228      -0.88476813      -0.51205855
H       -1.22375374      -0.06817670       0.99919424
H       -0.65959789       1.08564501      -1.79483861
H       -2.21142138       1.22045752      -0.95921262
H       -0.84496510       3.07439411      -0.61920558
16
Frame=9 idx=010740 GeodesicLength=0.7964088843946697 rxn_smarts="[N:1]([C:2](=[O:3])[C:4]([C:5]([C:6]([O:7][H:16])([H:14])[H:15])([H:12])[H:13])([H:10])[H:11])([H:8])[H:9]>>[C:2](=[O:3])=[C:4]([H:10])[H:11].[N:1]([C:5]([C:6]([O:7][H:16])([H:14])[H:15])([H:12])[H:13])([H:8])[H:9]"
N        1.02233986       0.29526670       0.75722954
C        1.37077691      -1.34170503       0.90562391
O        1.90549499      -1.67587766       1.92683085
C        0.69659447      -1.97826032      -0.14735453
C       -0.84645245      -0.10188910      -0.02895762
C       -1.12491988       1.15328229      -0.81231559
O       -0.65876808       2.28966664      -0.11905520
H        1.10050819       0.81819712       1.61658284
H        1.52620893       0.75310582       0.01160506
H        0.87259564      -1.62663183      -1.15533413
H        0.52446776      -3.03810169      -0.01532930
H       -1.44256862      -0.87262928      -0.51568255
H       -1.23787029      -0.06273304       0.98617441
H       -0.66074898       1.08735034      -1.80504659
H       -2.21185312       1.22478619      -0.96901961
H       -0.83580531       3.07617287      -0.63595149
16
Frame=10 idx=010740 GeodesicLength=0.8831493733825702 rxn_smarts="[N:1]([C:2](=[O:3])[C:4]([C:5]([C:6]([O:7][H:16])([H:14])[H:15])([H:12])[H:13])([H:10])[H:11])([H:8])[H:9]>>[C:2](=[O:3])=[C:4]([H:10])[H:11].[N:1]([C:5]([C:6]([O:7][H:16])([H:14])[H:15])([H:12])[H:13])([H:8])[H:9]"
N        1.00724993       0.29718760       0.78485243
C        1.40298084      -1.35895281       0.89768673
O        1.98851319      -1.69256767       1.88802568
C        0.68566926      -1.98071045      -0.13708847
C       -0.83969766      -0.09984655      -0.03475337
C       -1.12540841       1.15454456      -0.82249553
O       -0.65783438       2.29239619      -0.13086660
H        1.07981961       0.80900466       1.65112709
H        1.49745863       0.77654651       0.04373480
H        0.85951077      -1.63861615      -1.14877754
H        0.50545505      -3.03822788       0.00312397
H       -1.45289236      -0.86025108      -0.51995681
H       -1.25283373      -0.05723700       0.97247011
H       -0.66051768       1.08930115      -1.81499758
H       -2.21156604       1.22948772      -0.97997948
H       -0.82590703       3.07794121      -0.65210543
16
Frame=11 idx=010740 GeodesicLength=0.9694449362603834 rxn_smarts="[N:1]([C:2](=[O:3])[C:4]([C:5]([C:6]([O:7][H:16])([H:14])[H:15])([H:12])[H:13])([H:10])[H:11])([H:8])[H:9]>>[C:2](=[O:3])=[C:4]([H:10])[H:11].[N:1]([C:5]([C:6]([O:7][H:16])([H:14])[H:15])([H:12])[H:13])([H:8])[H:9]"
N        0.99094559       0.29847980       0.81326020
C        1.43677873      -1.37528409       0.88677009
O        2.07276825      -1.70594082       1.84360405
C        0.67463190      -1.98339061      -0.12554063
C       -0.83333443      -0.09788293      -0.04056308
C       -1.12525420       1.15593577      -0.83278680
O       -0.65682803       2.29502107      -0.14200957
H        1.05728879       0.79790820       1.68699684
H        1.46782451       0.79982873       0.07807875
H        0.84386469      -1.65284868      -1.14192570
H        0.48712278      -3.03823732       0.02542179
H       -1.46282638      -0.84764541      -0.52499044
H       -1.26865862      -0.05171257       0.95802666
H       -0.65871659       1.09153483      -1.82463079
H       -2.21044815       1.23456486      -0.99216963
H       -0.81515882       3.07966918      -0.66754172
16
Frame=12 idx=010740 GeodesicLength=1.0553865833786227 rxn_smarts="[N:1]([C:2](=[O:3])[C:4]([C:5]([C:6]([O:7][H:16])([H:14])[H:15])([H:12])[H:13])([H:10])[H:11])([H:8])[H:9]>>[C:2](=[O:3])=[C:4]([H:10])[H:11].[N:1]([C:5]([C:6]([O:7][H:16])([H:14])[H:15])([H:12])[H:13])([H:8])[H:9]"
N        0.97341281       0.29904539       0.84245299
C        1.47229623      -1.39046604       0.87234396
O        2.15771006      -1.71558884       1.79337524
C        0.66355139      -1.98635594      -0.11260024
C       -0.82734853      -0.09602675      -0.04639471
C       -1.12439455       1.15749179      -0.84318958
O       -0.65574782       2.29757321      -0.15236797
H        1.03291920       0.78464526       1.72421743
H        1.43720388       0.82294996       0.11470458
H        0.82531508      -1.66967550      -1.13472280
H        0.46979879      -3.03812973       0.05201204
H       -1.47233015      -0.83485913      -0.53090661
H       -1.28531417      -0.04620414       0.94279890
H       -0.65521479       1.09413803      -1.83391755
H       -2.20842789       1.24004819      -1.00567235
H       -0.80342955       3.08141427      -0.68213333
16
Frame=13 idx=010740 GeodesicLength=1.1406551652231254 rxn_smarts="[N:1]([C:2](=[O:3])[C:4]([C:5]([C:6]([O:7][H:16])([H:14])[H:15])([H:12])[H:13])([H:10])[H:11])([H:8])[H:9]>>[C:2](=[O:3])=[C:4]([H:10])[H:11].[N:1]([C:5]([C:6]([O:7][H:16])([H:14])[H:15])([H:12])[H:13])([H:8])[H:9]"
N        0.95452285       0.29875074       0.87244804
C        1.50923486      -1.40415571       0.85393977
O        2.24287100      -1.72108957       1.73682081
C        0.65246832      -1.98944988      -0.09819458
C       -0.82172822      -0.09426317      -0.05217655
C       -1.12263498       1.15912938      -0.85367207
O       -0.65446189       2.29988607      -0.16192800
H        1.00667710       0.76891103       1.76273420
H        1.40544209       0.84574180       0.15369889
H        0.80360124      -1.68920229      -1.12699735
H        0.45375052      -3.03758787       0.08325761
H       -1.48129513      -0.82185302      -0.53769196
H       -1.30282989      -0.04065023       0.92676141
H       -0.64968745       1.09699315      -1.84273453
H       -2.20524774       1.24586746      -1.02052843
H       -0.79068267       3.08297209      -0.69573725
16
Frame=14 idx=010740 GeodesicLength=1.2255743892971507 rxn_smarts="[N:1]([C:2](=[O:3])[C:4]([C:5]([C:6]([O:7][H:16])([H:14])[H:15])([H:12])[H:13])([H:10])[H:11])([H:8])[H:9]>>[C:2](=[O:3])=[C:4]([H:10])[H:11].[N:1]([C:5]([C:6]([O:7][H:16])([H:14])[H:15])([H:12])[H:13])([H:8])[H:9]"
N        0.93431594       0.29748661       0.90323450
C        1.54753162      -1.41615565       0.83102423
O        2.32760295      -1.72203842       1.67391886
C        0.64146275      -1.99284358      -0.08217734
C       -0.81648047      -0.09263237      -0.05794673
C       -1.11995482       1.16095680      -0.86426070
O       -0.65295639       2.30210681      -0.17057255
H        0.97867904       0.75048114       1.80253728
H        1.37244709       0.86815014       0.19508969
H        0.77834177      -1.71190110      -1.11855526
H        0.43966707      -3.03677603       0.11952961
H       -1.48973620      -0.80871542      -0.54551888
H       -1.32115220      -0.03510228       0.90986173
H       -0.64209358       1.10026964      -1.85110276
H       -2.20089208       1.25214891      -1.03684041
H       -0.77678248       3.08456481      -0.70822127
16
Frame=15 idx=010740 GeodesicLength=1.3100652578884104 rxn_smarts="[N:1]([C:2](=[O:3])[C:4]([C:5]([C:6]([O:7][H:16])([H:14])[H:15])([H:12])[H:13])([H:10])[H:11])([H:8])[H:9]>>[C:2](=[O:3])=[C:4]([H:10])[H:11].[N:1]([C:5]([C:6]([O:7][H:16])([H:14])[H:15])([H:12])[H:13])([H:8])[H:9]"
N        0.91267877       0.29511155       0.93484976
C        1.58667135      -1.42616441       0.80315312
O        2.41144903      -1.71792596       1.60412206
C        0.63058238      -1.99648593      -0.06443811
C       -0.81162078      -0.09114390      -0.06366334
C       -1.11619172       1.16294417      -0.87494334
O       -0.65112025       2.30415829      -0.17825746
H        0.94892980       0.72906794       1.84358235
H        1.33804567       0.88997464       0.23897119
H        0.74924202      -1.73800379      -1.10904912
H        0.42810950      -3.03548841       0.16114140
H       -1.49760752      -0.79544226      -0.55443172
H       -1.34031811      -0.02952110       0.89205330
H       -0.63215562       1.10391334      -1.85892381
H       -2.19514038       1.25890258      -1.05469276
H       -0.76155415       3.08610327      -0.71947351
16
Frame=16 idx=010740 GeodesicLength=1.3941451740094912 rxn_smarts="[N:1]([C:2](=[O:3])[C:4]([C:5]([C:6]([O:7][H:16])([H:14])[H:15])([H:12])[H:13])([H:10])[H:11])([H:8])[H:9]>>[C:2](=[O:3])=[C:4]([H:10])[H:11].[N:1]([C:5]([C:6]([O:7][H:16])([H:14])[H:15])([H:12])[H:13])([H:8])[H:9]"
N        0.88955632       0.29150719       0.96730991
C        1.62600478      -1.43393436       0.76995239
O        2.49358960      -1.70829802       1.52713333
C        0.61991210      -2.00032964      -0.04493460
C       -0.80717659      -0.08982024      -0.06922169
C       -1.11121270       1.16504592      -0.88568873
O       -0.64880110       2.30599181      -0.18499259
H        0.91753106       0.70448445       1.88576705
H        1.30209782       0.91098240       0.28535530
H        0.71610265      -1.76761075      -1.09806777
H        0.41988871      -3.03357680       0.20805945
H       -1.50492071      -0.78205915      -0.56435788
H       -1.36031216      -0.02383277       0.87338057
H       -0.61969233       1.10779688      -1.86610577
H       -2.18780733       1.26614222      -1.07410467
H       -0.74476011       3.08751087      -0.72948431
