12
Frame=0 idx=003718 GeodesicLength=0.0 rxn_smarts="[C:1]([C:2]#[C:3][C:4](=[O:5])[C:6]([H:10])([H:11])[H:12])([H:7])([H:8])[H:9]>>[C:1]([C:2]#[C:3][C:4]([O:5][H:12])=[C:6]([H:10])[H:11])([H:7])([H:8])[H:9]"
C       -2.66491856       0.18847588      -0.53353678
C       -1.25772869      -0.05598273      -0.26974481
C       -0.09373764      -0.26579645      -0.06116696
C        1.28775477      -0.46979784       0.20674855
O        1.81707856      -1.63388033       0.12800232
C        2.27218333       0.45863525       0.62938108
H       -3.00051544       1.09545026      -0.02954622
H       -2.82169216       0.31875609      -1.60577062
H       -3.27627926      -0.64970688      -0.19775347
H        3.02591931       0.60995320      -0.14335092
H        2.00365260       1.36389987       1.16169769
H        2.70828319      -0.96000632       0.71504018
12
Frame=1 idx=003718 GeodesicLength=0.03639265465234016 rxn_smarts="[C:1]([C:2]#[C:3][C:4](=[O:5])[C:6]([H:10])([H:11])[H:12])([H:7])([H:8])[H:9]>>[C:1]([C:2]#[C:3][C:4]([O:5][H:12])=[C:6]([H:10])[H:11])([H:7])([H:8])[H:9]"
C       -2.66371031       0.19144374      -0.52980811
C       -1.25619425      -0.06358461      -0.27676456
C       -0.09044746      -0.27328441      -0.07843083
C        1.29483337      -0.47259288       0.17655861
O        1.82148806      -1.64027581       0.13481423
C        2.26602039       0.45785412       0.62586056
H       -2.98840683       1.10225848      -0.02552797
H       -2.82956221       0.31918455      -1.60097398
H       -3.27810870      -0.64110318      -0.18541142
H        3.03458815       0.62162253      -0.12918295
H        1.97596797       1.35798283       1.15576996
H        2.71353182      -0.95950536       0.73309645
12
Frame=2 idx=003718 GeodesicLength=0.07204724002036272 rxn_smarts="[C:1]([C:2]#[C:3][C:4](=[O:5])[C:6]([H:10])([H:11])[H:12])([H:7])([H:8])[H:9]>>[C:1]([C:2]#[C:3][C:4]([O:5][H:12])=[C:6]([H:10])[H:11])([H:7])([H:8])[H:9]"
C       -2.66182151       0.19441220      -0.52709416
C       -1.25510722      -0.07066170      -0.27923678
C       -0.08869124      -0.28109069      -0.08673370
C        1.30090608      -0.47601250       0.15090645
O        1.82478862      -1.64604581       0.14136092
C        2.26023816       0.45682006       0.62123713
H       -2.97806265       1.10847539      -0.02332028
H       -2.83240632       0.32026080      -1.59768558
H       -3.28017792      -0.63286650      -0.17714177
H        3.03858658       0.63452743      -0.12016297
H        1.95136317       1.35074263       1.15096096
H        2.72038426      -0.95856131       0.74690978
12
Frame=3 idx=003718 GeodesicLength=0.10777511706620764 rxn_smarts="[C:1]([C:2]#[C:3][C:4](=[O:5])[C:6]([H:10])([H:11])[H:12])([H:7])([H:8])[H:9]>>[C:1]([C:2]#[C:3][C:4]([O:5][H:12])=[C:6]([H:10])[H:11])([H:7])([H:8])[H:9]"
C       -2.66019224       0.19702427      -0.52518563
C       -1.25433416      -0.07522720      -0.27926548
C       -0.08761672      -0.28660796      -0.09035449
C        1.30617289      -0.47917857       0.12862087
O        1.82636665      -1.65130710       0.14732041
C        2.25578751       0.45532924       0.61642064
H       -2.97073456       1.11394961      -0.02305091
H       -2.83345574       0.32021095      -1.59561543
H       -3.28171582      -0.62596123      -0.17065964
H        3.04064400       0.64751915      -0.11406191
H        1.93082647       1.34249305       1.14795124
H        2.72825173      -0.95824422       0.75788033
12
Frame=4 idx=003718 GeodesicLength=0.14340900906122397 rxn_smarts="[C:1]([C:2]#[C:3][C:4](=[O:5])[C:6]([H:10])([H:11])[H:12])([H:7])([H:8])[H:9]>>[C:1]([C:2]#[C:3][C:4]([O:5][H:12])=[C:6]([H:10])[H:11])([H:7])([H:8])[H:9]"
C       -2.65860607       0.19946882      -0.52376128
C       -1.25363909      -0.07843194      -0.27803786
C       -0.08683400      -0.29087309      -0.09154896
C        1.31079288      -0.48232318       0.10871965
O        1.82703616      -1.65614773       0.15271899
C        2.25197462       0.45348176       0.61163528
H       -2.96477519       1.11935699      -0.02433451
H       -2.83355593       0.31899974      -1.59429773
H       -3.28291470      -0.61946792      -0.16467743
H        3.04100585       0.66088390      -0.10976748
H        1.91257024       1.33327519       1.14645375
H        2.73694523      -0.95822254       0.76689759
12
Frame=5 idx=003718 GeodesicLength=0.17898714884686107 rxn_smarts="[C:1]([C:2]#[C:3][C:4](=[O:5])[C:6]([H:10])([H:11])[H:12])([H:7])([H:8])[H:9]>>[C:1]([C:2]#[C:3][C:4]([O:5][H:12])=[C:6]([H:10])[H:11])([H:7])([H:8])[H:9]"
C       -2.65708077       0.20179529      -0.52268994
C       -1.25292811      -0.08044507      -0.27622645
C       -0.08612500      -0.29395943      -0.09162713
C        1.31496588      -0.48524164       0.09021830
O        1.82732590      -1.66043070       0.15600532
C        2.24852917       0.45113848       0.60763042
H       -2.95909625       1.12625077      -0.02913273
H       -2.83381921       0.31395205      -1.59371539
H       -3.28390893      -0.61200089      -0.15622926
H        3.03995150       0.67529620      -0.10573616
H        1.89573386       1.32237405       1.14785342
H        2.74645197      -0.95872911       0.77364960
12
Frame=6 idx=003718 GeodesicLength=0.21452240613492418 rxn_smarts="[C:1]([C:2]#[C:3][C:4](=[O:5])[C:6]([H:10])([H:11])[H:12])([H:7])([H:8])[H:9]>>[C:1]([C:2]#[C:3][C:4]([O:5][H:12])=[C:6]([H:10])[H:11])([H:7])([H:8])[H:9]"
C       -2.65561858       0.20401004      -0.52174632
C       -1.25202337      -0.08142301      -0.27475199
C       -0.08514391      -0.29590138      -0.09242701
C        1.31892598      -0.48785471       0.07236732
O        1.82734609      -1.66423893       0.15742459
C        2.24526589       0.44835709       0.60448952
H       -2.95323656       1.13453391      -0.03685858
H       -2.83510105       0.30526708      -1.59342037
H       -3.28446316      -0.60350988      -0.14476233
H        3.03810625       0.69049817      -0.10102047
H        1.87963083       1.31001147       1.15159102
H        2.75631158      -0.95974985       0.77911462
12
Frame=7 idx=003718 GeodesicLength=0.25003095939938547 rxn_smarts="[C:1]([C:2]#[C:3][C:4](=[O:5])[C:6]([H:10])([H:11])[H:12])([H:7])([H:8])[H:9]>>[C:1]([C:2]#[C:3][C:4]([O:5][H:12])=[C:6]([H:10])[H:11])([H:7])([H:8])[H:9]"
C       -2.65417833       0.20615300      -0.52082728
C       -1.25090449      -0.08174830      -0.27384531
C       -0.08384776      -0.29709564      -0.09436576
C        1.32275835      -0.49032438       0.05504679
O        1.82711763      -1.66776850       0.15810975
C        2.24209953       0.44531791       0.60177911
H       -2.94726916       1.14320819      -0.04593439
H       -2.83725019       0.29485995      -1.59292079
H       -3.28451132      -0.59443334      -0.13177134
H        3.03569195       0.70603590      -0.09585664
H        1.86397617       1.29680243       1.15635735
H        2.76631763      -0.96100723       0.78422853
12
Frame=8 idx=003718 GeodesicLength=0.2855436599566837 rxn_smarts="[C:1]([C:2]#[C:3][C:4](=[O:5])[C:6]([H:10])([H:11])[H:12])([H:7])([H:8])[H:9]>>[C:1]([C:2]#[C:3][C:4]([O:5][H:12])=[C:6]([H:10])[H:11])([H:7])([H:8])[H:9]"
C       -2.65273207       0.20828097      -0.51990579
C       -1.24954058      -0.08156132      -0.27369994
C       -0.08217582      -0.29767865      -0.09785991
C        1.32664739      -0.49240897       0.03760049
O        1.82717042      -1.67082382       0.15616304
C        2.23878680       0.44185177       0.60023673
H       -2.94019409       1.15397799      -0.05890905
H       -2.84101402       0.27969548      -1.59233591
H       -3.28423262      -0.58315422      -0.11432215
H        3.03254530       0.72280573      -0.08894559
H        1.84811879       1.28177050       1.16379674
H        2.77662050      -0.96275545       0.78818134
12
Frame=9 idx=003718 GeodesicLength=0.32106949424850056 rxn_smarts="[C:1]([C:2]#[C:3][C:4](=[O:5])[C:6]([H:10])([H:11])[H:12])([H:7])([H:8])[H:9]>>[C:1]([C:2]#[C:3][C:4]([O:5][H:12])=[C:6]([H:10])[H:11])([H:7])([H:8])[H:9]"
C       -2.65126786       0.21042547      -0.51896316
C       -1.24787847      -0.08083791      -0.27453440
C       -0.08003981      -0.29760656      -0.10339957
C        1.33078740      -0.49368848       0.01932938
O        1.82801712      -1.67311387       0.14936714
C        2.23510497       0.43772734       0.60071739
H       -2.93107050       1.16839715      -0.07901097
H       -2.84735792       0.25616124      -1.59137763
H       -3.28360092      -0.56753417      -0.08920264
H        3.02849032       0.74171695      -0.07868813
H        1.83145887       1.26369025       1.17575308
H        2.78735679      -0.96533740       0.79000951
12
Frame=10 idx=003718 GeodesicLength=0.356629438915736 rxn_smarts="[C:1]([C:2]#[C:3][C:4](=[O:5])[C:6]([H:10])([H:11])[H:12])([H:7])([H:8])[H:9]>>[C:1]([C:2]#[C:3][C:4]([O:5][H:12])=[C:6]([H:10])[H:11])([H:7])([H:8])[H:9]"
C       -2.64973812       0.21256957      -0.51777749
C       -1.24575026      -0.07978762      -0.27708386
C       -0.07720961      -0.29701271      -0.11216488
C        1.33531178      -0.49446323       0.00032858
O        1.82926660      -1.67497751       0.14033921
C        2.23105786       0.43324209       0.60229228
H       -2.92063136       1.18402414      -0.10243289
H       -2.85614032       0.22855273      -1.58909105
H       -3.28196284      -0.54926156      -0.05977762
H        3.02413627       0.76141525      -0.06576896
H        1.81383244       1.24401803       1.18925020
H        2.79782755      -0.96831918       0.79188647
12
Frame=11 idx=003718 GeodesicLength=0.3922052571542223 rxn_smarts="[C:1]([C:2]#[C:3][C:4](=[O:5])[C:6]([H:10])([H:11])[H:12])([H:7])([H:8])[H:9]>>[C:1]([C:2]#[C:3][C:4]([O:5][H:12])=[C:6]([H:10])[H:11])([H:7])([H:8])[H:9]"
C       -2.64807312       0.21479888      -0.51670583
C       -1.24375402      -0.07929353      -0.27901723
C       -0.07464719      -0.29712331      -0.11975153
C        1.33953886      -0.49569400      -0.01742909
O        1.83035743      -1.67706173       0.13349099
C        2.22710104       0.42899507       0.60276136
H       -2.91088853       1.19754070      -0.12333841
H       -2.86364136       0.20479902      -1.58622585
H       -3.28026342      -0.53185813      -0.03429476
H        3.01866708       0.78066405      -0.05469907
H        1.79685259       1.22484314       1.20078160
H        2.80875064      -0.97061015       0.79442782
12
Frame=12 idx=003718 GeodesicLength=0.42781066605971474 rxn_smarts="[C:1]([C:2]#[C:3][C:4](=[O:5])[C:6]([H:10])([H:11])[H:12])([H:7])([H:8])[H:9]>>[C:1]([C:2]#[C:3][C:4]([O:5][H:12])=[C:6]([H:10])[H:11])([H:7])([H:8])[H:9]"
C       -2.64618107       0.21713069      -0.51545739
C       -1.24171568      -0.07989072      -0.28122799
C       -0.07209352      -0.29840918      -0.12756338
C        1.34355513      -0.49824856      -0.03365144
O        1.83078323      -1.67996141       0.13255825
C        2.22322129       0.42545416       0.60083821
H       -2.90242542       1.20687936      -0.13548029
H       -2.86926378       0.19110790      -1.58314502
H       -3.27830540      -0.51898296      -0.01692164
H        3.01283659       0.79789298      -0.04710273
H        1.78032047       1.20850848       1.20660340
H        2.81926814      -0.97148074       0.80055003
12
Frame=13 idx=003718 GeodesicLength=0.46341910875890635 rxn_smarts="[C:1]([C:2]#[C:3][C:4](=[O:5])[C:6]([H:10])([H:11])[H:12])([H:7])([H:8])[H:9]>>[C:1]([C:2]#[C:3][C:4]([O:5][H:12])=[C:6]([H:10])[H:11])([H:7])([H:8])[H:9]"
C       -2.64420161       0.21951321      -0.51426048
C       -1.23975814      -0.08083957      -0.28307130
C       -0.06971822      -0.30017650      -0.13464202
C        1.34733357      -0.50130841      -0.04891328
O        1.83101117      -1.68304110       0.13339695
C        2.21948372       0.42210593       0.59799563
H       -2.89453661       1.21484266      -0.14492814
H       -2.87385082       0.18080478      -1.58017110
H       -3.27639163      -0.50758781      -0.00260949
H        3.00627858       0.81462101      -0.04110263
H        1.76443278       1.19283574       1.21066767
H        2.82991720      -0.97176994       0.80763820
12
Frame=14 idx=003718 GeodesicLength=0.4990552303813823 rxn_smarts="[C:1]([C:2]#[C:3][C:4](=[O:5])[C:6]([H:10])([H:11])[H:12])([H:7])([H:8])[H:9]>>[C:1]([C:2]#[C:3][C:4]([O:5][H:12])=[C:6]([H:10])[H:11])([H:7])([H:8])[H:9]"
C       -2.64207452       0.22199736      -0.51304918
C       -1.23782634      -0.08236956      -0.28482519
C       -0.06742968      -0.30264859      -0.14151088
C        1.35098569      -0.50489705      -0.06351673
O        1.83132278      -1.68626199       0.13547426
C        2.21570185       0.41891474       0.59446953
H       -2.88663897       1.22190761      -0.15235971
H       -2.87780017       0.17308193      -1.57715058
H       -3.27453359      -0.49699469       0.00962716
H        2.99890042       0.83116830      -0.03620484
H        1.74872179       1.17755016       1.21338710
H        2.84067073      -0.97144823       0.81565906
12
Frame=15 idx=003718 GeodesicLength=0.5347570740568217 rxn_smarts="[C:1]([C:2]#[C:3][C:4](=[O:5])[C:6]([H:10])([H:11])[H:12])([H:7])([H:8])[H:9]>>[C:1]([C:2]#[C:3][C:4]([O:5][H:12])=[C:6]([H:10])[H:11])([H:7])([H:8])[H:9]"
C       -2.63968606       0.22464354      -0.51167172
C       -1.23580857      -0.08492742      -0.28705863
C       -0.06506598      -0.30622760      -0.14908144
C        1.35465803      -0.50930032      -0.07762983
O        1.83184269      -1.68974832       0.13942276
C        2.21166283       0.41598434       0.59008343
H       -2.87829627       1.22796756      -0.15653586
H       -2.88129785       0.16904355      -1.57406822
H       -3.27264733      -0.48764891       0.01953244
H        2.99075539       0.84739478      -0.03245653
H        1.73263320       1.16304340       1.21402580
H        2.85124992      -0.97022459       0.82543781
12
Frame=16 idx=003718 GeodesicLength=0.570549018456417 rxn_smarts="[C:1]([C:2]#[C:3][C:4](=[O:5])[C:6]([H:10])([H:11])[H:12])([H:7])([H:8])[H:9]>>[C:1]([C:2]#[C:3][C:4]([O:5][H:12])=[C:6]([H:10])[H:11])([H:7])([H:8])[H:9]"
C       -2.63694063       0.22749153      -0.51002799
C       -1.23358994      -0.08872107      -0.29027046
C       -0.06247943      -0.31108854      -0.15812418
C        1.35850585      -0.51456763      -0.09153884
O        1.83274289      -1.69346973       0.14497570
C        2.20716902       0.41328997       0.58499561
H       -2.86897280       1.23335397      -0.15768166
H       -2.88478947       0.16827279      -1.57075683
H       -3.27055702      -0.47917674       0.02793276
H        2.98179684       0.86346750      -0.02942256
H        1.71565819       1.14916042       1.21269584
H        2.86145650      -0.96801247       0.83722260
