9
Frame=0 idx=001647 GeodesicLength=0.0 rxn_smarts="[C:1](#[C:2][C@@:3]1([H:7])[C:4]([H:8])([H:9])[O:5]1)[H:6]>>[C+:1](=[C:2]=[C-:3][C:4]([O:5][H:7])([H:8])[H:9])[H:6]"
C        2.18751559      -0.57755860       0.41619956
C        1.11144973      -0.33159473      -0.06280531
C       -0.11136321      -0.12158913      -0.73296849
C       -1.33958168      -0.02972865       0.08109864
O       -0.94301360       1.32870204      -0.13559556
H        3.14010532      -0.79593632       0.83853526
H       -0.48716457       1.10581320      -1.16706000
H       -1.26859849      -0.27712368       1.13682414
H       -2.28934909      -0.30098412      -0.37422827
9
Frame=1 idx=001647 GeodesicLength=0.039302672332937036 rxn_smarts="[C:1](#[C:2][C@@:3]1([H:7])[C:4]([H:8])([H:9])[O:5]1)[H:6]>>[C+:1](=[C:2]=[C-:3][C:4]([O:5][H:7])([H:8])[H:9])[H:6]"
C        2.18732307      -0.58860439       0.41903043
C        1.11285431      -0.33298139      -0.05908769
C       -0.10832663      -0.10955433      -0.72592491
C       -1.33775629      -0.02621121       0.08443583
O       -0.95982498       1.33431731      -0.13994706
H        3.14334498      -0.80396403       0.83518803
H       -0.49207025       1.11632274      -1.17727014
H       -1.26727994      -0.27038418       1.14116620
H       -2.27826427      -0.31894052      -0.37759070
9
Frame=2 idx=001647 GeodesicLength=0.07870319069641069 rxn_smarts="[C:1](#[C:2][C@@:3]1([H:7])[C:4]([H:8])([H:9])[O:5]1)[H:6]>>[C+:1](=[C:2]=[C-:3][C:4]([O:5][H:7])([H:8])[H:9])[H:6]"
C        2.18834046      -0.59349352       0.42328404
C        1.11521626      -0.33036674      -0.05437351
C       -0.10448708      -0.09603156      -0.71823181
C       -1.33557521      -0.02301665       0.08782295
O       -0.97926175       1.33984127      -0.14587782
H        3.14539554      -0.82139136       0.83071190
H       -0.49866701       1.12665377      -1.18866558
H       -1.26542677      -0.26247670       1.14588633
H       -2.26553444      -0.33971851      -0.38055650
9
Frame=3 idx=001647 GeodesicLength=0.118044576349492 rxn_smarts="[C:1](#[C:2][C@@:3]1([H:7])[C:4]([H:8])([H:9])[O:5]1)[H:6]>>[C+:1](=[C:2]=[C-:3][C:4]([O:5][H:7])([H:8])[H:9])[H:6]"
C        2.18957311      -0.59809990       0.42719990
C        1.11777544      -0.32728897      -0.04971257
C       -0.10041119      -0.08179469      -0.71034346
C       -1.33322836      -0.01983224       0.09123056
O       -0.99936568       1.34508009      -0.15208095
H        3.14651441      -0.83981775       0.82650338
H       -0.50561676       1.13700630      -1.20028291
H       -1.26339934      -0.25431207       1.15064547
H       -2.25184163      -0.36094079      -0.38315942
9
Frame=4 idx=001647 GeodesicLength=0.15746269393812343 rxn_smarts="[C:1](#[C:2][C@@:3]1([H:7])[C:4]([H:8])([H:9])[O:5]1)[H:6]>>[C+:1](=[C:2]=[C-:3][C:4]([O:5][H:7])([H:8])[H:9])[H:6]"
C        2.19130957      -0.60000285       0.43215050
C        1.12090037      -0.32187338      -0.04427016
C       -0.09581387      -0.06632006      -0.70189324
C       -1.33066455      -0.01678219       0.09461979
O       -1.02121371       1.35003770      -0.15927897
H        3.14688993      -0.86317384       0.82120276
H       -0.51353524       1.14726679      -1.21259461
H       -1.26122674      -0.24537332       1.15558112
H       -2.23664576      -0.38377884      -0.38551719
9
Frame=5 idx=001647 GeodesicLength=0.19691408094427093 rxn_smarts="[C:1](#[C:2][C@@:3]1([H:7])[C:4]([H:8])([H:9])[O:5]1)[H:6]>>[C+:1](=[C:2]=[C-:3][C:4]([O:5][H:7])([H:8])[H:9])[H:6]"
C        2.19313794      -0.60308149       0.43582985
C        1.12410112      -0.31669604      -0.03937986
C       -0.09114954      -0.05018550      -0.69338435
C       -1.32793548      -0.01366819       0.09806214
O       -1.04338052       1.35465548      -0.16645616
H        3.14625374      -0.88572354       0.81716650
H       -0.52168031       1.15767264      -1.22496343
H       -1.25880301      -0.23639023       1.16053322
H       -2.22054394      -0.40658313      -0.38740792
9
Frame=6 idx=001647 GeodesicLength=0.2363697959021055 rxn_smarts="[C:1](#[C:2][C@@:3]1([H:7])[C:4]([H:8])([H:9])[O:5]1)[H:6]>>[C+:1](=[C:2]=[C-:3][C:4]([O:5][H:7])([H:8])[H:9])[H:6]"
C        2.19486128      -0.60676417       0.43953375
C        1.12739226      -0.31122990      -0.03420264
C       -0.08625330      -0.03323263      -0.68449925
C       -1.32514552      -0.01049300       0.10146462
O       -1.06625348       1.35889467      -0.17392460
H        3.14530390      -0.90850946       0.81278327
H       -0.53004610       1.16805935      -1.23748499
H       -1.25651278      -0.22707147       1.16546343
H       -2.20334626      -0.42965339      -0.38913360
9
Frame=7 idx=001647 GeodesicLength=0.27589450260773885 rxn_smarts="[C:1](#[C:2][C@@:3]1([H:7])[C:4]([H:8])([H:9])[O:5]1)[H:6]>>[C+:1](=[C:2]=[C-:3][C:4]([O:5][H:7])([H:8])[H:9])[H:6]"
C        2.19681018      -0.61005737       0.44310007
C        1.13106079      -0.30447653      -0.02874615
C       -0.08103038      -0.01510915      -0.67509902
C       -1.32213274      -0.00734353       0.10488238
O       -1.09030936       1.36266920      -0.18199107
H        3.14334424      -0.93330141       0.80826768
H       -0.53901064       1.17844173      -1.25038539
H       -1.25413148      -0.21726015       1.17050735
H       -2.18460062      -0.45356280      -0.39053585
9
Frame=8 idx=001647 GeodesicLength=0.3154376252947132 rxn_smarts="[C:1](#[C:2][C@@:3]1([H:7])[C:4]([H:8])([H:9])[O:5]1)[H:6]>>[C+:1](=[C:2]=[C-:3][C:4]([O:5][H:7])([H:8])[H:9])[H:6]"
C        2.19838128      -0.61453071       0.44696355
C        1.13485205      -0.29706623      -0.02267483
C       -0.07547119       0.00413744      -0.66501372
C       -1.31905641      -0.00411332       0.10824974
O       -1.11529370       1.36595246      -0.19055950
H        3.14125538      -0.95828341       0.80281771
H       -0.54814717       1.18874728      -1.26347729
H       -1.25211050      -0.20691148       1.17555860
H       -2.16440975      -0.47793204      -0.39186425
9
Frame=9 idx=001647 GeodesicLength=0.3550550083568264 rxn_smarts="[C:1](#[C:2][C@@:3]1([H:7])[C:4]([H:8])([H:9])[O:5]1)[H:6]>>[C+:1](=[C:2]=[C-:3][C:4]([O:5][H:7])([H:8])[H:9])[H:6]"
C        2.20001724      -0.61925485       0.45047216
C        1.13894489      -0.28857092      -0.01624566
C       -0.06958334       0.02467776      -0.65429912
C       -1.31578266      -0.00087214       0.11162981
O       -1.14140481       1.36862416      -0.19969316
H        3.13821468      -0.98458755       0.79720552
H       -0.55774430       1.19898578      -1.27686733
H       -1.25016510      -0.19606230       1.18068817
H       -2.14249660      -0.50293994      -0.39289040
9
Frame=10 idx=001647 GeodesicLength=0.39474153027965453 rxn_smarts="[C:1](#[C:2][C@@:3]1([H:7])[C:4]([H:8])([H:9])[O:5]1)[H:6]>>[C+:1](=[C:2]=[C-:3][C:4]([O:5][H:7])([H:8])[H:9])[H:6]"
C        2.20182413      -0.62403358       0.45348498
C        1.14332881      -0.27906262      -0.00944323
C       -0.06337262       0.04657950      -0.64286549
C       -1.31230439       0.00237633       0.11503425
O       -1.16862748       1.37058125      -0.20941071
H        3.13401989      -1.01229192       0.79144346
H       -0.56775593       1.20909892      -1.29053516
H       -1.24835561      -0.18472346       1.18589689
H       -2.11875680      -0.52852443      -0.39360499
9
Frame=11 idx=001647 GeodesicLength=0.4344326455916881 rxn_smarts="[C:1](#[C:2][C@@:3]1([H:7])[C:4]([H:8])([H:9])[O:5]1)[H:6]>>[C+:1](=[C:2]=[C-:3][C:4]([O:5][H:7])([H:8])[H:9])[H:6]"
C        2.20326837      -0.63029961       0.45584943
C        1.14757028      -0.27002794      -0.00249375
C       -0.05708424       0.06947150      -0.63070576
C       -1.30884805       0.00575792       0.11842351
O       -1.19629860       1.37183838      -0.21938718
H        3.12975865      -1.03889542       0.78560029
H       -0.57762108       1.21907162      -1.30418886
H       -1.24707458      -0.17313870       1.19107314
H       -2.09367074      -0.55377773      -0.39417081
9
Frame=12 idx=001647 GeodesicLength=0.4740953171575993 rxn_smarts="[C:1](#[C:2][C@@:3]1([H:7])[C:4]([H:8])([H:9])[O:5]1)[H:6]>>[C+:1](=[C:2]=[C-:3][C:4]([O:5][H:7])([H:8])[H:9])[H:6]"
C        2.20433801      -0.63759936       0.45778628
C        1.15163029      -0.26154461       0.00467450
C       -0.05071129       0.09340112      -0.61764034
C       -1.30541122       0.00927075       0.12179358
O       -1.22442683       1.37231605      -0.22972925
H        3.12537611      -1.06469679       0.77934470
H       -0.58726414       1.22882168      -1.31782522
H       -1.24638347      -0.16128634       1.19621999
H       -2.06714746      -0.57868249      -0.39462424
9
Frame=13 idx=001647 GeodesicLength=0.5139110754491474 rxn_smarts="[C:1](#[C:2][C@@:3]1([H:7])[C:4]([H:8])([H:9])[O:5]1)[H:6]>>[C+:1](=[C:2]=[C-:3][C:4]([O:5][H:7])([H:8])[H:9])[H:6]"
C        2.20554123      -0.64516875       0.45933180
C        1.15607370      -0.25188732       0.01274691
C       -0.04402198       0.11904375      -0.60328661
C       -1.30193540       0.01282520       0.12517094
O       -1.25387336       1.37184021      -0.24098573
H        3.12020349      -1.09200357       0.77218702
H       -0.59707096       1.23823155      -1.33173920
H       -1.24643533      -0.14874420       1.20144518
H       -2.03848138      -0.60413688      -0.39487032
9
Frame=14 idx=001647 GeodesicLength=0.5536679607650554 rxn_smarts="[C:1](#[C:2][C@@:3]1([H:7])[C:4]([H:8])([H:9])[O:5]1)[H:6]>>[C+:1](=[C:2]=[C-:3][C:4]([O:5][H:7])([H:8])[H:9])[H:6]"
C        2.20624286      -0.65358309       0.45982995
C        1.16019440      -0.24226571       0.02090894
C       -0.03712547       0.14628674      -0.58768055
C       -1.29823808       0.01647187       0.12861882
O       -1.28398031       1.37025145      -0.25281766
H        3.11417239      -1.11913365       0.76494781
H       -0.60672748       1.24729360      -1.34568840
H       -1.24696131      -0.13585926       1.20672440
H       -2.00757701      -0.62946195      -0.39484333
9
Frame=15 idx=001647 GeodesicLength=0.5935273266658434 rxn_smarts="[C:1](#[C:2][C@@:3]1([H:7])[C:4]([H:8])([H:9])[O:5]1)[H:6]>>[C+:1](=[C:2]=[C-:3][C:4]([O:5][H:7])([H:8])[H:9])[H:6]"
C        2.20688136      -0.66246333       0.45938254
C        1.16447087      -0.23179751       0.02977180
C       -0.03000275       0.17548196      -0.57041542
C       -1.29447629       0.02018135       0.13212835
O       -1.31520928       1.36740110      -0.26562857
H        3.10720708      -1.14726985       0.75701454
H       -0.61624924       1.25583499      -1.35979903
H       -1.24842814      -0.12236083       1.21208780
H       -1.97419360      -0.65500788      -0.39454200
9
Frame=16 idx=001647 GeodesicLength=0.6334502720235919 rxn_smarts="[C:1](#[C:2][C@@:3]1([H:7])[C:4]([H:8])([H:9])[O:5]1)[H:6]>>[C+:1](=[C:2]=[C-:3][C:4]([O:5][H:7])([H:8])[H:9])[H:6]"
C        2.20714269      -0.67207235       0.45806762
C        1.16866362      -0.22086366       0.03946781
C       -0.02272844       0.20665635      -0.55114971
C       -1.29071843       0.02399809       0.13570375
O       -1.34731769       1.36313008      -0.27953331
H        3.09958891      -1.17577248       0.74790535
H       -0.62522329       1.26366164      -1.37397688
H       -1.25116620      -0.10826107       1.21750992
H       -1.93824118      -0.68047660      -0.39399456
