17
Frame=0 idx=007733 GeodesicLength=0.0 rxn_smarts="[C:1]([C:2]1=[C:3]([H:11])[C:4]([H:12])([H:13])[C:5]([H:14])([H:15])[C@:6]1([O:7][H:17])[H:16])([H:8])([H:9])[H:10]>>[C:1]([H:8])([H:9])([H:10])[H:17].[C:2]1([C:6](=[O:7])[H:16])=[C:3]([H:11])[C:4]([H:12])([H:13])[C:5]1([H:14])[H:15]"
C        2.30901029       0.54966290       0.33416297
C        0.39698208      -0.29847850      -0.26541755
C       -0.06018534      -1.22534580       0.53593711
C       -1.55194775      -1.03545964       0.46935661
C       -1.71749172       0.02816918      -0.64308459
C       -0.38316107       0.91293367      -0.78015954
O       -0.22743303       1.91276049       0.02342316
H        2.65837789       0.49479705       1.36443035
H        2.99939485       1.08920956      -0.31342554
H        2.31484334      -0.48328051      -0.04945648
H        0.48916335      -1.90064281       1.17238427
H       -1.88583867      -0.65867222       1.43922539
H       -2.10790542      -1.94931682       0.25417232
H       -1.88109450      -0.46341264      -1.60248772
H       -2.52738087       0.72745689      -0.44826663
H       -0.20684198       1.08385168      -1.85849936
H        1.38150850       1.21576758       0.36770519
17
Frame=1 idx=007733 GeodesicLength=0.1253883912805175 rxn_smarts="[C:1]([C:2]1=[C:3]([H:11])[C:4]([H:12])([H:13])[C:5]([H:14])([H:15])[C@:6]1([O:7][H:17])[H:16])([H:8])([H:9])[H:10]>>[C:1]([H:8])([H:9])([H:10])[H:17].[C:2]1([C:6](=[O:7])[H:16])=[C:3]([H:11])[C:4]([H:12])([H:13])[C:5]1([H:14])[H:15]"
C        2.32000121       0.53379904       0.31016312
C        0.37832030      -0.28468153      -0.24893664
C       -0.07472247      -1.20137920       0.56841448
C       -1.56813684      -1.05198824       0.46120045
C       -1.71506645       0.01342761      -0.65159173
C       -0.38318994       0.93817972      -0.75597284
O       -0.21542033       1.92899345       0.05815382
H        2.71116521       0.49690852       1.32624127
H        2.99167563       1.05977807      -0.36836796
H        2.32756063      -0.50570080      -0.05384191
H        0.47250923      -1.84816511       1.23622868
H       -1.94333572      -0.68885305       1.42116390
H       -2.09217703      -1.97914658       0.22369348
H       -1.85715245      -0.47326097      -1.61715577
H       -2.53827357       0.70177647      -0.47165318
H       -0.20192672       1.12738454      -1.83017240
H        1.38816930       1.23292806       0.39243322
17
Frame=2 idx=007733 GeodesicLength=0.2505801618977104 rxn_smarts="[C:1]([C:2]1=[C:3]([H:11])[C:4]([H:12])([H:13])[C:5]([H:14])([H:15])[C@:6]1([O:7][H:17])[H:16])([H:8])([H:9])[H:10]>>[C:1]([H:8])([H:9])([H:10])[H:17].[C:2]1([C:6](=[O:7])[H:16])=[C:3]([H:11])[C:4]([H:12])([H:13])[C:5]1([H:14])[H:15]"
C        2.32966914       0.51689033       0.28646631
C        0.35963248      -0.27018922      -0.23248232
C       -0.08989305      -1.17664381       0.60031135
C       -1.58292562      -1.06891033       0.45249635
C       -1.71213414      -0.00103067      -0.65969624
C       -0.38382967       0.96385312      -0.73098392
O       -0.20201500       1.94591563       0.09258324
H        2.76171236       0.50063883       1.28662953
H        2.98163245       1.02770212      -0.42305518
H        2.34026958      -0.52962926      -0.05543149
H        0.45381270      -1.79398121       1.29904086
H       -1.99900829      -0.72090394       1.40117940
H       -2.07327703      -2.00877456       0.19369130
H       -1.83294562      -0.48243214      -1.63105901
H       -2.54811406       0.67622198      -0.49445747
H       -0.19871626       1.17073343      -1.80108720
H        1.39613004       1.25053970       0.41585447
17
Frame=3 idx=007733 GeodesicLength=0.3756967055667413 rxn_smarts="[C:1]([C:2]1=[C:3]([H:11])[C:4]([H:12])([H:13])[C:5]([H:14])([H:15])[C@:6]1([O:7][H:17])[H:16])([H:8])([H:9])[H:10]>>[C:1]([H:8])([H:9])([H:10])[H:17].[C:2]1([C:6](=[O:7])[H:16])=[C:3]([H:11])[C:4]([H:12])([H:13])[C:5]1([H:14])[H:15]"
C        2.33801411       0.49889952       0.26315847
C        0.34091382      -0.25490310      -0.21591889
C       -0.10571205      -1.15114147       0.63164397
C       -1.59623538      -1.08613582       0.44333164
C       -1.70868536      -0.01521998      -0.66744104
C       -0.38508107       0.98998309      -0.70521640
O       -0.18725801       1.96361452       0.12657880
H        2.81015454       0.50586793       1.24546982
H        2.96913564       0.99284448      -0.47739464
H        2.35304268      -0.55488354      -0.05421639
H        0.43289726      -1.73858213       1.36039960
H       -2.05262244      -0.75466735       1.37936268
H       -2.05118116      -2.03803263       0.16433934
H       -1.80839183      -0.49101845      -1.64423482
H       -2.55695668       0.65075646      -0.51676574
H       -0.19724447       1.21388537      -1.77128699
H        1.40521039       1.26873309       0.43819059
17
Frame=4 idx=007733 GeodesicLength=0.5008663763934003 rxn_smarts="[C:1]([C:2]1=[C:3]([H:11])[C:4]([H:12])([H:13])[C:5]([H:14])([H:15])[C@:6]1([O:7][H:17])[H:16])([H:8])([H:9])[H:10]>>[C:1]([H:8])([H:9])([H:10])[H:17].[C:2]1([C:6](=[O:7])[H:16])=[C:3]([H:11])[C:4]([H:12])([H:13])[C:5]1([H:14])[H:15]"
C        2.34500177       0.47974770       0.24030644
C        0.32213877      -0.23871307      -0.19909273
C       -0.12222719      -1.12486720       0.66248555
C       -1.60798489      -1.10359735       0.43375801
C       -1.70467459      -0.02914316      -0.67487862
C       -0.38694604       1.01663365      -0.67865402
O       -0.17119343       1.98217838       0.16008589
H        2.85665497       0.51245007       1.20245606
H        2.95391053       0.95502284      -0.53128205
H        2.36590129      -0.58130309      -0.05021094
H        0.40960073      -1.68240708       1.42008883
H       -2.10401751      -0.79003797       1.35574571
H       -2.02578041      -2.06679361       0.13579143
H       -1.78331870      -0.49907644      -1.65672052
H       -2.56480486       0.62534707      -0.53871229
H       -0.19754180       1.25691033      -1.74079795
H        1.41528137       1.28764893       0.45963119
17
Frame=5 idx=007733 GeodesicLength=0.6253603941664138 rxn_smarts="[C:1]([C:2]1=[C:3]([H:11])[C:4]([H:12])([H:13])[C:5]([H:14])([H:15])[C@:6]1([O:7][H:17])[H:16])([H:8])([H:9])[H:10]>>[C:1]([H:8])([H:9])([H:10])[H:17].[C:2]1([C:6](=[O:7])[H:16])=[C:3]([H:11])[C:4]([H:12])([H:13])[C:5]1([H:14])[H:15]"
C        2.35061294       0.45936215       0.21813034
C        0.30323483      -0.22166011      -0.18205669
C       -0.13947839      -1.09791069       0.69279396
C       -1.61820455      -1.12123611       0.42382610
C       -1.70012330      -0.04280539      -0.68203937
C       -0.38950782       1.04376217      -0.65134397
O       -0.15373467       2.00156612       0.19293118
H        2.90114727       0.51952801       1.15748128
H        2.93571452       0.91479521      -0.58395460
H        2.37894814      -0.60849888      -0.04380444
H        0.38435035      -1.62536793       1.47817409
H       -2.15315816      -0.82706386       1.33031624
H       -1.99733299      -2.09482285       0.10832439
H       -1.75776258      -0.50654970      -1.66854392
H       -2.57163754       0.59999938      -0.56032640
H       -0.19957640       1.29964348      -1.70966624
H        1.42650835       1.30725900       0.47975805
17
Frame=6 idx=007733 GeodesicLength=0.7498903156560738 rxn_smarts="[C:1]([C:2]1=[C:3]([H:11])[C:4]([H:12])([H:13])[C:5]([H:14])([H:15])[C@:6]1([O:7][H:17])[H:16])([H:8])([H:9])[H:10]>>[C:1]([H:8])([H:9])([H:10])[H:17].[C:2]1([C:6](=[O:7])[H:16])=[C:3]([H:11])[C:4]([H:12])([H:13])[C:5]1([H:14])[H:15]"
C        2.35483368       0.43777073       0.19662103
C        0.28422567      -0.20359881      -0.16460076
C       -0.15748608      -1.07023333       0.72263294
C       -1.62678460      -1.13892441       0.41368061
C       -1.69497559      -0.05622873      -0.68896831
C       -0.39266449       1.07145177      -0.62333684
O       -0.13501458       2.02190906       0.22497955
H        2.94357169       0.52731930       1.11039919
H        2.91455058       0.87183050      -0.63558806
H        2.39226170      -0.63641161      -0.03496253
H        0.35681612      -1.56842695       1.53392182
H       -2.19968510      -0.86538575       1.30329811
H       -1.96581215      -2.12197984       0.08215181
H       -1.73155353      -0.51364211      -1.67971177
H       -2.57747811       0.57469112      -0.58173852
H       -0.20332434       1.34215830      -1.67801664
H        1.43851912       1.32770077       0.49923838
17
Frame=7 idx=007733 GeodesicLength=0.8746478524083751 rxn_smarts="[C:1]([C:2]1=[C:3]([H:11])[C:4]([H:12])([H:13])[C:5]([H:14])([H:15])[C@:6]1([O:7][H:17])[H:16])([H:8])([H:9])[H:10]>>[C:1]([H:8])([H:9])([H:10])[H:17].[C:2]1([C:6](=[O:7])[H:16])=[C:3]([H:11])[C:4]([H:12])([H:13])[C:5]1([H:14])[H:15]"
C        2.35759935       0.41487780       0.17577468
C        0.26507331      -0.18444102      -0.14659672
C       -0.17629607      -1.04183903       0.75208270
C       -1.63365351      -1.15660095       0.40335698
C       -1.68913056      -0.06941454      -0.69571184
C       -0.39639395       1.09976805      -0.59460451
O       -0.11509706       2.04324724       0.25620190
H        2.98382200       0.53555216       1.06086170
H        2.89019109       0.82603248      -0.68602082
H        2.40587708      -0.66487456      -0.02389710
H        0.32700397      -1.51188732       1.58735836
H       -2.24349160      -0.90487195       1.27472230
H       -1.93117695      -2.14814324       0.05736299
H       -1.70444389      -0.52037801      -1.69024843
H       -2.58225984       0.54938425      -0.60307652
H       -0.20881024       1.38453427      -1.64585100
H        1.45118686       1.34905438       0.51828532
17
Frame=8 idx=007733 GeodesicLength=0.9996555741424558 rxn_smarts="[C:1]([C:2]1=[C:3]([H:11])[C:4]([H:12])([H:13])[C:5]([H:14])([H:15])[C@:6]1([O:7][H:17])[H:16])([H:8])([H:9])[H:10]>>[C:1]([H:8])([H:9])([H:10])[H:17].[C:2]1([C:6](=[O:7])[H:16])=[C:3]([H:11])[C:4]([H:12])([H:13])[C:5]1([H:14])[H:15]"
C        2.35883293       0.39064557       0.15561867
C        0.24575197      -0.16414865      -0.12799699
C       -0.19594844      -1.01277470       0.78115323
C       -1.63874272      -1.17419146       0.39290941
C       -1.68250900      -0.08236455      -0.70230820
C       -0.40065646       1.12875473      -0.56515988
O       -0.09402515       2.06558306       0.28653495
H        3.02167279       0.54389035       1.00867467
H        2.86246069       0.77743726      -0.73505140
H        2.41984592      -0.69371350      -0.01092580
H        0.29495319      -1.45598684       1.63851715
H       -2.28440368      -0.94538578       1.24464011
H       -1.89343577      -2.17318172       0.03410283
H       -1.67628328      -0.52679887      -1.70015752
H       -2.58590951       0.52407495      -0.62444779
H       -0.21601202       1.42683629      -1.61321401
H        1.46440854       1.37132385       0.53711056
17
Frame=9 idx=007733 GeodesicLength=1.124191207515549 rxn_smarts="[C:1]([C:2]1=[C:3]([H:11])[C:4]([H:12])([H:13])[C:5]([H:14])([H:15])[C@:6]1([O:7][H:17])[H:16])([H:8])([H:9])[H:10]>>[C:1]([H:8])([H:9])([H:10])[H:17].[C:2]1([C:6](=[O:7])[H:16])=[C:3]([H:11])[C:4]([H:12])([H:13])[C:5]1([H:14])[H:15]"
C        2.35855219       0.36505653       0.13626819
C        0.22622996      -0.14288068      -0.10894319
C       -0.21641289      -0.98318401       0.80971052
C       -1.64215069      -1.19162992       0.38243204
C       -1.67517047      -0.09509353      -0.70877811
C       -0.40548708       1.15829887      -0.53513846
O       -0.07171551       2.08877628       0.31570571
H        3.05663614       0.55134691       0.95415555
H        2.83149269       0.72711884      -0.78179907
H        2.43443684      -0.72254664       0.00312240
H        0.26119589      -1.40047282       1.68749266
H       -2.32233889      -0.98693807       1.21318946
H       -1.85314484      -2.19684895       0.01267823
H       -1.64723024      -0.53288115      -1.70949909
H       -2.58841836       0.49880424      -0.64583078
H       -0.22481302       1.46875234      -1.58019155
H        1.47833828       1.39432175       0.55542549
17
Frame=10 idx=007733 GeodesicLength=1.2490281845297695 rxn_smarts="[C:1]([C:2]1=[C:3]([H:11])[C:4]([H:12])([H:13])[C:5]([H:14])([H:15])[C@:6]1([O:7][H:17])[H:16])([H:8])([H:9])[H:10]>>[C:1]([H:8])([H:9])([H:10])[H:17].[C:2]1([C:6](=[O:7])[H:16])=[C:3]([H:11])[C:4]([H:12])([H:13])[C:5]1([H:14])[H:15]"
C        2.35655737       0.33798496       0.11759365
C        0.20647907      -0.12042361      -0.08918537
C       -0.23780786      -0.95296651       0.83798597
C       -1.64368940      -1.20882884       0.37193514
C       -1.66684457      -0.10759638      -0.71519521
C       -0.41077486       1.18859018      -0.50441157
O       -0.04837480       2.11292459       0.34389141
H        3.08859121       0.55824067       0.89667202
H        2.79687181       0.67422474      -0.82673755
H        2.44951695      -0.75148547       0.01824807
H        0.22539325      -1.34603509       1.73443332
H       -2.35718896      -1.02924733       1.18031954
H       -1.80981953      -2.21913186      -0.00695500
H       -1.61671238      -0.53868809      -1.71822506
H       -2.58958625       0.47350143      -0.66751207
H       -0.23532281       1.51070279      -1.54672376
H        1.49271178       1.41823383       0.57386645
17
Frame=11 idx=007733 GeodesicLength=1.3741582760287365 rxn_smarts="[C:1]([C:2]1=[C:3]([H:11])[C:4]([H:12])([H:13])[C:5]([H:14])([H:15])[C@:6]1([O:7][H:17])[H:16])([H:8])([H:9])[H:10]>>[C:1]([H:8])([H:9])([H:10])[H:17].[C:2]1([C:6](=[O:7])[H:16])=[C:3]([H:11])[C:4]([H:12])([H:13])[C:5]1([H:14])[H:15]"
C        2.35269311       0.30933786       0.09955069
C        0.18647328      -0.09676225      -0.06868287
C       -0.26018771      -0.92212070       0.86602227
C       -1.64327990      -1.22570985       0.36146605
C       -1.65737265      -0.11987224      -0.72159712
C       -0.41647952       1.21966625      -0.47296893
O       -0.02406839       2.13800670       0.37104901
H        3.11708439       0.56421489       0.83609918
H        2.75838780       0.61883658      -0.86968465
H        2.46512412      -0.78044401       0.03395311
H        0.18765333      -1.29280118       1.77953612
H       -2.38885839      -1.07217339       1.14601841
H       -1.76342103      -2.23989745      -0.02465765
H       -1.58443831      -0.54422413      -1.72630347
H       -2.58922885       0.44814317      -0.68964682
H       -0.24757810       1.55275854      -1.51278520
H        1.50749683       1.44304121       0.59263188
17
Frame=12 idx=007733 GeodesicLength=1.4996708457004893 rxn_smarts="[C:1]([C:2]1=[C:3]([H:11])[C:4]([H:12])([H:13])[C:5]([H:14])([H:15])[C@:6]1([O:7][H:17])[H:16])([H:8])([H:9])[H:10]>>[C:1]([H:8])([H:9])([H:10])[H:17].[C:2]1([C:6](=[O:7])[H:16])=[C:3]([H:11])[C:4]([H:12])([H:13])[C:5]1([H:14])[H:15]"
C        2.34679500       0.27900686       0.08210690
C        0.16618657      -0.07188100      -0.04742834
C       -0.28362049      -0.89063674       0.89382474
C       -1.64086200      -1.24219409       0.35108070
C       -1.64659497      -0.13192785      -0.72801892
C       -0.42254269       1.25156703      -0.44081662
O        0.00116568       2.16399064       0.39713737
H        3.14157244       0.56890363       0.77238245
H        2.71582780       0.56107973      -0.91041164
H        2.48131398      -0.80937713       0.04972224
H        0.14815082      -1.24079085       1.82287601
H       -2.41719803      -1.11566073       1.11028339
H       -1.71396745      -2.25901579      -0.04020813
H       -1.55017399      -0.54952150      -1.73370831
H       -2.58716219       0.42272959      -0.71237664
H       -0.26154005       1.59500126      -1.47839229
H        1.52264955       1.46872695       0.61194709
17
Frame=13 idx=007733 GeodesicLength=1.624985061526247 rxn_smarts="[C:1]([C:2]1=[C:3]([H:11])[C:4]([H:12])([H:13])[C:5]([H:14])([H:15])[C@:6]1([O:7][H:17])[H:16])([H:8])([H:9])[H:10]>>[C:1]([H:8])([H:9])([H:10])[H:17].[C:2]1([C:6](=[O:7])[H:16])=[C:3]([H:11])[C:4]([H:12])([H:13])[C:5]1([H:14])[H:15]"
C        2.33876756       0.24690626       0.06531461
C        0.14558093      -0.04595554      -0.02551132
C       -0.30815619      -0.85862521       0.92134456
C       -1.63649568      -1.25821898       0.34089262
C       -1.63447572      -0.14377221      -0.73450253
C       -0.42901460       1.28417944      -0.40799405
O        0.02741770       2.19069249       0.42193775
H        3.16135460       0.57154629       0.70605386
H        2.66935742       0.50198289      -0.94829167
H        2.49832124      -0.83807692       0.06438989
H        0.10731465      -1.18951711       1.86467114
H       -2.44218205      -1.15981222       1.07325229
H       -1.66187131      -2.27624761      -0.05333877
H       -1.51387082      -0.55452460      -1.74054703
H       -2.58332000       0.39727954      -0.73577211
H       -0.27704055       1.63713993      -1.44355390
H        1.53831283       1.49502356       0.63165468
17
Frame=14 idx=007733 GeodesicLength=1.750811555382446 rxn_smarts="[C:1]([C:2]1=[C:3]([H:11])[C:4]([H:12])([H:13])[C:5]([H:14])([H:15])[C@:6]1([O:7][H:17])[H:16])([H:8])([H:9])[H:10]>>[C:1]([H:8])([H:9])([H:10])[H:17].[C:2]1([C:6](=[O:7])[H:16])=[C:3]([H:11])[C:4]([H:12])([H:13])[C:5]1([H:14])[H:15]"
C        2.32837923       0.21289729       0.04903722
C        0.12465036      -0.01882654      -0.00280318
C       -0.33391566      -0.82596632       0.94866845
C       -1.62996550      -1.27370643       0.33090719
C       -1.62071673      -0.15540307      -0.74106913
C       -0.43574377       1.31767136      -0.37443190
O        0.05453059       2.21817432       0.44557107
H        3.17601422       0.57241282       0.63669928
H        2.61851843       0.44082031      -0.98370310
H        2.51601597      -0.86674228       0.07785396
H        0.06479025      -1.13951181       1.90500021
H       -2.46356247      -1.20431001       1.03481913
H       -1.60670784      -2.29158593      -0.06394993
H       -1.47501352      -0.55932007      -1.74664963
H       -2.57737921       0.37174608      -0.76005443
H       -0.29419923       1.67957739      -1.40822835
H        1.55430489       1.52207289       0.65233318
17
Frame=15 idx=007733 GeodesicLength=1.8772090630080323 rxn_smarts="[C:1]([C:2]1=[C:3]([H:11])[C:4]([H:12])([H:13])[C:5]([H:14])([H:15])[C@:6]1([O:7][H:17])[H:16])([H:8])([H:9])[H:10]>>[C:1]([H:8])([H:9])([H:10])[H:17].[C:2]1([C:6](=[O:7])[H:16])=[C:3]([H:11])[C:4]([H:12])([H:13])[C:5]1([H:14])[H:15]"
C        2.31545765       0.17684205       0.03320860
C        0.10336564       0.00948580       0.02072344
C       -0.36100373      -0.79263780       0.97581904
C       -1.62120295      -1.28859964       0.32117583
C       -1.60513294      -0.16682523      -0.74774287
C       -0.44268622       1.35206161      -0.34008311
O        0.08250812       2.24635391       0.46798875
H        3.18491450       0.57128041       0.56445526
H        2.56312553       0.37771591      -1.01651723
H        2.53444194      -0.89535542       0.08942341
H        0.02064902      -1.09066669       1.94406111
H       -2.48124604      -1.24912230       0.99494139
H       -1.54844676      -2.30489055      -0.07186521
H       -1.43330250      -0.56389720      -1.75198863
H       -2.56912096       0.34611251      -0.78536851
H       -0.31297839       1.72234293      -1.37235433
H        1.57065809       1.54979969       0.67412308
17
Frame=16 idx=007733 GeodesicLength=2.0041846002406007 rxn_smarts="[C:1]([C:2]1=[C:3]([H:11])[C:4]([H:12])([H:13])[C:5]([H:14])([H:15])[C@:6]1([O:7][H:17])[H:16])([H:8])([H:9])[H:10]>>[C:1]([H:8])([H:9])([H:10])[H:17].[C:2]1([C:6](=[O:7])[H:16])=[C:3]([H:11])[C:4]([H:12])([H:13])[C:5]1([H:14])[H:15]"
C        2.29986565       0.13863654       0.01776482
C        0.08171678       0.03889666       0.04505289
C       -0.38949485      -0.75866524       1.00278619
C       -1.61021088      -1.30282687       0.31179907
C       -1.58757985      -0.17807907      -0.75456133
C       -0.44978644       1.38732013      -0.30494490
O        0.11139028       2.27509752       0.48908017
H        3.18734603       0.56787625       0.48979055
H        2.50322961       0.31320989      -1.04658200
H        2.55365850      -0.92392380       0.09810942
H       -0.02502640      -1.04282903       1.98196102
H       -2.49512422      -1.29413968       0.95372925
H       -1.48727482      -2.31604999      -0.07682032
H       -1.38850354      -0.56834416      -1.75655104
H       -2.55836474       0.32036735      -0.81188157
H       -0.33324032       1.76538525      -1.33592281
H        1.58739921       1.57806827       0.69719060
