14
Frame=0 idx=005957 GeodesicLength=0.0 rxn_smarts="[O:1]([C:2]([C:3]([O:4][H:11])([C:5]([O:6][H:14])([H:12])[H:13])[H:10])([H:8])[H:9])[H:7]>>[C:2]1([H:8])([H:9])[C@:3]([C:5]([O:6][H:14])([H:12])[H:13])([H:10])[O:4]1.[O:1]([H:7])[H:11]"
O        1.47815837       2.06028858       0.04689957
C        1.01006981      -0.02204732      -0.29560158
C       -0.41980498      -0.04815478      -0.59791651
O       -0.69979127       0.97365481       0.29633075
C       -1.13471155      -1.33660118      -0.18611157
O       -0.98291974      -1.55225905       1.19162077
H        1.88848266       2.15043445       0.91108626
H        1.78871430       0.15857137      -1.02175503
H        1.29601670      -0.41575109       0.67113712
H       -0.64465071       0.18951836      -1.64699307
H        0.48301966       1.94624825       0.21508194
H       -2.19200802      -1.21312588      -0.45730255
H       -0.74191598      -2.20954620      -0.71395154
H       -1.12865928      -0.68123035       1.58747549
14
Frame=1 idx=005957 GeodesicLength=0.07915184981293359 rxn_smarts="[O:1]([C:2]([C:3]([O:4][H:11])([C:5]([O:6][H:14])([H:12])[H:13])[H:10])([H:8])[H:9])[H:7]>>[C:2]1([H:8])([H:9])[C@:3]([C:5]([O:6][H:14])([H:12])[H:13])([H:10])[O:4]1.[O:1]([H:7])[H:11]"
O        1.47159291       2.06475656       0.02180479
C        1.01141991      -0.01800172      -0.27186629
C       -0.41587661      -0.04665555      -0.58949690
O       -0.68691303       0.96810996       0.31814823
C       -1.13666539      -1.33472876      -0.19279371
O       -0.98777912      -1.57179871       1.18200653
H        1.90813329       2.18037232       0.86966351
H        1.79082656       0.13371158      -1.00439120
H        1.29329702      -0.42272034       0.69176651
H       -0.63368855       0.20772843      -1.63556919
H        0.46260709       1.95390722       0.21271633
H       -2.19325958      -1.20410107      -0.46316163
H       -0.74598878      -2.20150273      -0.73212292
H       -1.13770572      -0.70907719       1.59329595
14
Frame=2 idx=005957 GeodesicLength=0.1581751079810603 rxn_smarts="[O:1]([C:2]([C:3]([O:4][H:11])([C:5]([O:6][H:14])([H:12])[H:13])[H:10])([H:8])[H:9])[H:7]>>[C:2]1([H:8])([H:9])[C@:3]([C:5]([O:6][H:14])([H:12])[H:13])([H:10])[O:4]1.[O:1]([H:7])[H:11]"
O        1.46482590       2.06843724      -0.00245295
C        1.01282661      -0.01371162      -0.24847007
C       -0.41180419      -0.04505178      -0.58132552
O       -0.67417658       0.96276167       0.33926338
C       -1.13832877      -1.33251157      -0.19925053
O       -0.99230454      -1.59049054       1.17236200
H        1.92691944       2.20896492       0.82758689
H        1.79259456       0.10951100      -0.98658163
H        1.29063977      -0.43015236       0.71162310
H       -0.62264868       0.22546360      -1.62421959
H        0.44183038       1.96106864       0.21121035
H       -2.19422615      -1.19494742      -0.46868447
H       -0.74965189      -2.19308257      -0.74972179
H       -1.14649586      -0.73625919       1.59866083
14
Frame=3 idx=005957 GeodesicLength=0.23710104844790325 rxn_smarts="[O:1]([C:2]([C:3]([O:4][H:11])([C:5]([O:6][H:14])([H:12])[H:13])[H:10])([H:8])[H:9])[H:7]>>[C:2]1([H:8])([H:9])[C@:3]([C:5]([O:6][H:14])([H:12])[H:13])([H:10])[O:4]1.[O:1]([H:7])[H:11]"
O        1.45791546       2.07138325      -0.02589604
C        1.01429020      -0.00918677      -0.22539177
C       -0.40758910      -0.04334570      -0.57338448
O       -0.66158892       0.95761153       0.35970696
C       -1.13971084      -1.32997088      -0.20549025
O       -0.99651029      -1.60837412       1.16269472
H        1.94486990       2.23620845       0.78491834
H        1.79401914       0.08595601      -0.96836699
H        1.28803042      -0.43799867       0.73072950
H       -0.61153454       0.24273688      -1.61294806
H        0.42068873       1.96778010       0.21050174
H       -2.19491643      -1.18568092      -0.47389540
H       -0.75291866      -2.18431322      -0.76676812
H       -1.15504505      -0.76280594       1.60358986
14
Frame=4 idx=005957 GeodesicLength=0.3159601795423793 rxn_smarts="[O:1]([C:2]([C:3]([O:4][H:11])([C:5]([O:6][H:14])([H:12])[H:13])[H:10])([H:8])[H:9])[H:7]>>[C:2]1([H:8])([H:9])[C@:3]([C:5]([O:6][H:14])([H:12])[H:13])([H:10])[O:4]1.[O:1]([H:7])[H:11]"
O        1.45091721       2.07364571      -0.04854959
C        1.01580823      -0.00443956      -0.20260131
C       -0.40323323      -0.04153937      -0.56565180
O       -0.64916104       0.95265906       0.37952186
C       -1.14082346      -1.32713007      -0.21152773
O       -1.00041717      -1.62550407       1.15300512
H        1.96204510       2.26213713       0.74166620
H        1.79510664       0.06302636      -0.94976657
H        1.28544836      -0.44620296       0.74912357
H       -0.60034704       0.25956934      -1.60175147
H        0.39917829       1.97408142       0.21054658
H       -2.19534041      -1.17631406      -0.47882246
H       -0.75580637      -2.17522115      -0.78329593
H       -1.16337510      -0.78876778       1.60810353
14
Frame=5 idx=005957 GeodesicLength=0.39474756902739827 rxn_smarts="[O:1]([C:2]([C:3]([O:4][H:11])([C:5]([O:6][H:14])([H:12])[H:13])[H:10])([H:8])[H:9])[H:7]>>[C:2]1([H:8])([H:9])[C@:3]([C:5]([O:6][H:14])([H:12])[H:13])([H:10])[O:4]1.[O:1]([H:7])[H:11]"
O        1.44388271       2.07526365      -0.07042104
C        1.01738261       0.00052593      -0.18008654
C       -0.39873712      -0.03963473      -0.55811559
O       -0.63689414       0.94790857       0.39872607
C       -1.14167275      -1.32400403      -0.21736633
O       -1.00402762      -1.64190750       1.14330112
H        1.97845191       2.28671120       0.69790285
H        1.79585989       0.04071843      -0.93081864
H        1.28288616      -0.45471202       0.76681856
H       -0.58909046       0.27597010      -1.59063704
H        0.37728563       1.98001071       0.21127047
H       -2.19550619      -1.16685781      -0.48347395
H       -0.75832710      -2.16582564      -0.79932063
H       -1.17149353      -0.81416685       1.61222069
14
Frame=6 idx=005957 GeodesicLength=0.4735446215732953 rxn_smarts="[O:1]([C:2]([C:3]([O:4][H:11])([C:5]([O:6][H:14])([H:12])[H:13])[H:10])([H:8])[H:9])[H:7]>>[C:2]1([H:8])([H:9])[C@:3]([C:5]([O:6][H:14])([H:12])[H:13])([H:10])[O:4]1.[O:1]([H:7])[H:11]"
O        1.43687465       2.07628263      -0.09153107
C        1.01900674       0.00570138      -0.15781756
C       -0.39410553      -0.03763301      -0.55075535
O       -0.62479883       0.94335734       0.41736601
C       -1.14226898      -1.32061466      -0.22302078
O       -1.00735817      -1.65764230       1.13357896
H        1.99417415       2.30996251       0.65361594
H        1.79628351       0.01901310      -0.91152987
H        1.28032142      -0.46345836       0.78385831
H       -0.57776878       0.29196424      -1.57959799
H        0.35498106       1.98560125       0.21263036
H       -2.19542303      -1.15732509      -0.48787652
H       -0.76049608      -2.15614867      -0.81487869
H       -1.17942213      -0.83906035       1.61595824
14
Frame=7 idx=005957 GeodesicLength=0.5522903632325027 rxn_smarts="[O:1]([C:2]([C:3]([O:4][H:11])([C:5]([O:6][H:14])([H:12])[H:13])[H:10])([H:8])[H:9])[H:7]>>[C:2]1([H:8])([H:9])[C@:3]([C:5]([O:6][H:14])([H:12])[H:13])([H:10])[O:4]1.[O:1]([H:7])[H:11]"
O        1.42993466       2.07673220      -0.11185786
C        1.02068009       0.01107960      -0.13578275
C       -0.38934053      -0.03553558      -0.54355993
O       -0.61287930       0.93900704       0.43546079
C       -1.14261857      -1.31697506      -0.22849659
O       -1.01040945      -1.67273800       1.12384209
H        2.00924269       2.33186887       0.60882631
H        1.79638493      -0.00208692      -0.89192847
H        1.27774446      -0.47238382       0.80026568
H       -0.56638564       0.30756288      -1.56863840
H        0.33224533       1.99087727       0.21456591
H       -2.19509919      -1.14772449      -0.49203732
H       -0.76232673      -2.14620582      -0.82998937
H       -1.18717276      -0.86347818       1.61932991
14
Frame=8 idx=005957 GeodesicLength=0.6310733827282728 rxn_smarts="[O:1]([C:2]([C:3]([O:4][H:11])([C:5]([O:6][H:14])([H:12])[H:13])[H:10])([H:8])[H:9])[H:7]>>[C:2]1([H:8])([H:9])[C@:3]([C:5]([O:6][H:14])([H:12])[H:13])([H:10])[O:4]1.[O:1]([H:7])[H:11]"
O        1.42313494       2.07664657      -0.13141126
C        1.02239699       0.01665296      -0.11395437
C       -0.38444534      -0.03334188      -0.53650952
O       -0.60114077       0.93485534       0.45305388
C       -1.14273079      -1.31310256      -0.23380765
O       -1.01319198      -1.68724954       1.11408291
H        2.02371632       2.35244914       0.56350305
H        1.79616855      -0.02260273      -0.87202175
H        1.27513734      -0.48141538       0.81609233
H       -0.55494382       0.32279580      -1.55774892
H        0.30903618       1.99586323       0.21703802
H       -2.19454476      -1.13806381      -0.49597634
H       -0.76383378      -2.13600843      -0.84469016
H       -1.19475909      -0.88747872       1.62234976
14
Frame=9 idx=005957 GeodesicLength=0.7097770870857001 rxn_smarts="[O:1]([C:2]([C:3]([O:4][H:11])([C:5]([O:6][H:14])([H:12])[H:13])[H:10])([H:8])[H:9])[H:7]>>[C:2]1([H:8])([H:9])[C@:3]([C:5]([O:6][H:14])([H:12])[H:13])([H:10])[O:4]1.[O:1]([H:7])[H:11]"
O        1.41654243       2.07598362      -0.15018536
C        1.02416050       0.02240468      -0.09231968
C       -0.37941257      -0.03105415      -0.52960198
O       -0.58956009       0.93091145       0.47016893
C       -1.14261144      -1.30899479      -0.23895507
O       -1.01571476      -1.70119271       1.10429990
H        2.03745835       2.37178499       0.51765433
H        1.79567138      -0.04256121      -0.85187970
H        1.27250725      -0.49054527       0.83134825
H       -0.54343346       0.33766928      -1.54693622
H        0.28539745       2.00055656       0.22006137
H       -2.19376255      -1.12831970      -0.49968691
H       -0.76504168      -2.12556373      -0.85899520
H       -1.20220080      -0.91107901       1.62502735
14
Frame=10 idx=005957 GeodesicLength=0.7885186745892385 rxn_smarts="[O:1]([C:2]([C:3]([O:4][H:11])([C:5]([O:6][H:14])([H:12])[H:13])[H:10])([H:8])[H:9])[H:7]>>[C:2]1([H:8])([H:9])[C@:3]([C:5]([O:6][H:14])([H:12])[H:13])([H:10])[O:4]1.[O:1]([H:7])[H:11]"
O        1.41018427       2.07485754      -0.16819687
C        1.02595441       0.02833707      -0.07086579
C       -0.37426161      -0.02867154      -0.52281828
O       -0.57817414       0.92716110       0.48684232
C       -1.14226836      -1.30468228      -0.24395717
O       -1.01796918      -1.71462466       1.09448496
H        2.05072467       2.38978354       0.47126959
H        1.79487177      -0.06196013      -0.83145569
H        1.26981703      -0.49963861       0.84610109
H       -0.53187840       0.35221636      -1.53619076
H        0.26121151       2.00498429       0.22355770
H       -2.19276602      -1.11853301      -0.50319457
H       -0.76595211      -2.11488829      -0.87294618
H       -1.20949386      -0.93434138       1.62736965
14
Frame=11 idx=005957 GeodesicLength=0.8673078079894457 rxn_smarts="[O:1]([C:2]([C:3]([O:4][H:11])([C:5]([O:6][H:14])([H:12])[H:13])[H:10])([H:8])[H:9])[H:7]>>[C:2]1([H:8])([H:9])[C@:3]([C:5]([O:6][H:14])([H:12])[H:13])([H:10])[O:4]1.[O:1]([H:7])[H:11]"
O        1.40410893       2.07328667      -0.18544354
C        1.02776736       0.03445401      -0.04959069
C       -0.36900228      -0.02619139      -0.51615502
O       -0.56699294       0.92361294       0.50309061
C       -1.14170374      -1.30017623      -0.24881890
O       -1.01994211      -1.72757167       1.08463847
H        2.06357646       2.40638950       0.42439446
H        1.79377446      -0.08080120      -0.81077403
H        1.26705842      -0.50861503       0.86038008
H       -0.52029310       0.36645344      -1.52551914
H        0.23641492       2.00916253       0.22747192
H       -2.19156182      -1.10871732      -0.50650001
H       -0.76657245      -2.10399182      -0.88655951
H       -1.21663211      -0.95729444       1.62938530
14
Frame=12 idx=005957 GeodesicLength=0.946126913034151 rxn_smarts="[O:1]([C:2]([C:3]([O:4][H:11])([C:5]([O:6][H:14])([H:12])[H:13])[H:10])([H:8])[H:9])[H:7]>>[C:2]1([H:8])([H:9])[C@:3]([C:5]([O:6][H:14])([H:12])[H:13])([H:10])[O:4]1.[O:1]([H:7])[H:11]"
O        1.39836178       2.07129736      -0.20192659
C        1.02959146       0.04075069      -0.02849195
C       -0.36364164      -0.02361319      -0.50960890
O       -0.55602089       0.92026880       0.51893233
C       -1.14092492      -1.29548839      -0.25354825
O       -1.02162685      -1.74006607       1.07475654
H        2.07607297       2.42158457       0.37703882
H        1.79238468      -0.09909168      -0.78984142
H        1.26422342      -0.51739869       0.87422328
H       -0.50868618       0.38040156      -1.51492529
H        0.21095633       2.01309348       0.23177330
H       -2.19016002      -1.09887945      -0.50960489
H       -0.76691933      -2.09288274      -0.89986162
H       -1.22361082      -0.97997625       1.63108463
14
Frame=13 idx=005957 GeodesicLength=1.024912354136196 rxn_smarts="[O:1]([C:2]([C:3]([O:4][H:11])([C:5]([O:6][H:14])([H:12])[H:13])[H:10])([H:8])[H:9])[H:7]>>[C:2]1([H:8])([H:9])[C@:3]([C:5]([O:6][H:14])([H:12])[H:13])([H:10])[O:4]1.[O:1]([H:7])[H:11]"
O        1.39299115       2.06890977      -0.21763992
C        1.03142453       0.04721997      -0.00757707
C       -0.35818337      -0.02093566      -0.50317875
O       -0.54525012       0.91713098       0.53437613
C       -1.13993802      -1.29062390      -0.25814781
O       -1.02301196      -1.75212514       1.06483937
H        2.08821236       2.43533551       0.32925599
H        1.79071406      -0.11683829      -0.76869258
H        1.26131335      -0.52592962       0.88766123
H       -0.49706403       0.39407726      -1.50441422
H        0.18479381       2.01677001       0.23640980
H       -2.18857056      -1.08901916      -0.51249931
H       -0.76701248      -2.08156567      -0.91287000
H       -1.23041872      -1.00240606       1.63247714
14
Frame=14 idx=005957 GeodesicLength=1.1037012888018394 rxn_smarts="[O:1]([C:2]([C:3]([O:4][H:11])([C:5]([O:6][H:14])([H:12])[H:13])[H:10])([H:8])[H:9])[H:7]>>[C:2]1([H:8])([H:9])[C@:3]([C:5]([O:6][H:14])([H:12])[H:13])([H:10])[O:4]1.[O:1]([H:7])[H:11]"
O        1.38803344       2.06615597      -0.23257592
C        1.03324993       0.05386747       0.01317150
C       -0.35263877      -0.01815295      -0.49685607
O       -0.53469876       0.91419952       0.54945611
C       -1.13874570      -1.28559361      -0.26263086
O       -1.02409033      -1.76378888       1.05487131
H        2.10011692       2.44760825       0.28096998
H        1.78876884      -0.13404326      -0.74731264
H        1.25831474      -0.53413004       0.90075306
H       -0.48543564       0.40751213      -1.49398019
H        0.15783992       2.02019281       0.24138342
H       -2.18679910      -1.07914833      -0.51519362
H       -0.76685691      -2.07004117      -0.92561749
H       -1.23705861      -1.02463791       1.63356142
14
Frame=15 idx=005957 GeodesicLength=1.182464448469822 rxn_smarts="[O:1]([C:2]([C:3]([O:4][H:11])([C:5]([O:6][H:14])([H:12])[H:13])[H:10])([H:8])[H:9])[H:7]>>[C:2]1([H:8])([H:9])[C@:3]([C:5]([O:6][H:14])([H:12])[H:13])([H:10])[O:4]1.[O:1]([H:7])[H:11]"
O        1.38353524       2.06305831      -0.24671793
C        1.03506269       0.06068927       0.03376287
C       -0.34700977      -0.01525921      -0.49063307
O       -0.52436351       0.91147398       0.56419588
C       -1.13735167      -1.28039921      -0.26700613
O       -1.02485409      -1.77508234       1.04484004
H        2.11180316       2.45837216       0.23213263
H        1.78656246      -0.15071672      -0.72570695
H        1.25522431      -0.54194698       0.91354843
H       -0.47380031       0.42073658      -1.48361564
H        0.13003416       2.02334574       0.24668268
H       -2.18485173      -1.06926246      -0.51768784
H       -0.76646623      -2.05830296      -0.93813285
H       -1.24352472      -1.04670617       1.63433786
14
Frame=16 idx=005957 GeodesicLength=1.2611704036857994 rxn_smarts="[O:1]([C:2]([C:3]([O:4][H:11])([C:5]([O:6][H:14])([H:12])[H:13])[H:10])([H:8])[H:9])[H:7]>>[C:2]1([H:8])([H:9])[C@:3]([C:5]([O:6][H:14])([H:12])[H:13])([H:10])[O:4]1.[O:1]([H:7])[H:11]"
O        1.37954879       2.05963695      -0.26004614
C        1.03686128       0.06767917       0.05420980
C       -0.34129489      -0.01224607      -0.48450097
O       -0.51423572       0.90895486       0.57862552
C       -1.13575848      -1.27503827      -0.27128452
O       -1.02529804      -1.78602721       1.03472941
H        2.12324793       2.46759274       0.18266223
H        1.78411506      -0.16687537      -0.70387626
H        1.25203997      -0.54933670       0.92610346
H       -0.46215120       0.43378688      -1.47330979
H        0.10132251       2.02620738       0.25231669
H       -2.18273216      -1.05935051      -0.51998455
H       -0.76585364      -2.04634007      -0.95044458
H       -1.24981141      -1.06864379       1.63479969
