14
Frame=0 idx=009315 GeodesicLength=0.0 rxn_smarts="[C:1]([C:2]([C@@:3]1([C:6]#[N:7])[C:4]([H:13])([H:14])[O:5]1)([H:11])[H:12])([H:8])([H:9])[H:10]>>[C:1]([C:2]([C:3][C:4]([O:5][C:6]#[N:7])([H:13])[H:14])([H:11])[H:12])([H:8])([H:9])[H:10]"
C       -2.00591492       0.17725377       0.10699105
C       -0.68648395      -0.36980320       0.63082714
C        0.49976063       0.35127159       0.19253687
C        1.86363511      -0.20972325       0.33071497
O        2.37105205       0.30680249      -0.91715205
C        1.22707851       0.69481995      -1.51222122
N        0.56927359       0.86826560      -2.46839797
H       -2.09107802       1.24247085       0.32079597
H       -2.85316249      -0.33996943       0.55851429
H       -2.05814023       0.05187097      -0.97504804
H       -0.61320607      -0.23826497       1.72938347
H       -0.59819220      -1.45647842       0.48713182
H        2.37972606       0.21992926       1.19488325
H        1.99565187      -1.29844518       0.32104049
14
Frame=1 idx=009315 GeodesicLength=0.08538772271345525 rxn_smarts="[C:1]([C:2]([C@@:3]1([C:6]#[N:7])[C:4]([H:13])([H:14])[O:5]1)([H:11])[H:12])([H:8])([H:9])[H:10]>>[C:1]([C:2]([C:3][C:4]([O:5][C:6]#[N:7])([H:13])[H:14])([H:11])[H:12])([H:8])([H:9])[H:10]"
C       -2.00810991       0.18059697       0.11802208
C       -0.68740282      -0.38531050       0.61827718
C        0.49783688       0.32650672       0.16144866
C        1.86370421      -0.20341439       0.34699009
O        2.36025322       0.23085859      -0.93214897
C        1.22852147       0.69425487      -1.53240159
N        0.59178416       0.91838102      -2.49071650
H       -2.08470746       1.24234372       0.35189254
H       -2.85406954      -0.33793030       0.57056246
H       -2.07465054       0.07419366      -0.96527337
H       -0.60012535      -0.27491503       1.71721364
H       -0.60970657      -1.46908296       0.44828388
H        2.37000471       0.29219783       1.18078628
H        2.00666754      -1.28868021       0.40706362
14
Frame=2 idx=009315 GeodesicLength=0.17123091146160535 rxn_smarts="[C:1]([C:2]([C@@:3]1([C:6]#[N:7])[C:4]([H:13])([H:14])[O:5]1)([H:11])[H:12])([H:8])([H:9])[H:10]>>[C:1]([C:2]([C:3][C:4]([O:5][C:6]#[N:7])([H:13])[H:14])([H:11])[H:12])([H:8])([H:9])[H:10]"
C       -2.00977753       0.18192964       0.12841082
C       -0.68850141      -0.40105045       0.60734003
C        0.49581570       0.29959895       0.13027694
C        1.86270266      -0.19762911       0.36143774
O        2.34314241       0.14657945      -0.94768438
C        1.23257517       0.69827277      -1.55059954
N        0.62042765       0.97864467      -2.50856018
H       -2.07725493       1.24072526       0.37835293
H       -2.85474630      -0.33612888       0.58342750
H       -2.08994740       0.09076567      -0.95536621
H       -0.58808307      -0.30824517       1.70588988
H       -0.62202093      -1.48204023       0.41560539
H        2.36129721       0.36333656       1.15720156
H        2.01437077      -1.27475912       0.49426753
14
Frame=3 idx=009315 GeodesicLength=0.2563869697234332 rxn_smarts="[C:1]([C:2]([C@@:3]1([C:6]#[N:7])[C:4]([H:13])([H:14])[O:5]1)([H:11])[H:12])([H:8])([H:9])[H:10]>>[C:1]([C:2]([C:3][C:4]([O:5][C:6]#[N:7])([H:13])[H:14])([H:11])[H:12])([H:8])([H:9])[H:10]"
C       -2.01075160       0.18266196       0.13860224
C       -0.68976317      -0.41701266       0.59749453
C        0.49365817       0.27153553       0.10001774
C        1.86082849      -0.19143720       0.37429428
O        2.32067141       0.06331845      -0.96011347
C        1.23857761       0.70393412      -1.56704703
N        0.65339994       1.03761748      -2.52314379
H       -2.06857742       1.23860305       0.40302889
H       -2.85519684      -0.33403219       0.59617579
H       -2.10373440       0.10557888      -0.94525216
H       -0.57699099      -0.34066164       1.69522408
H       -0.63497509      -1.49506266       0.38589563
H        2.35237995       0.43079991       1.12727375
H        2.02047395      -1.25584303       0.57754951
14
Frame=4 idx=009315 GeodesicLength=0.3419480737794891 rxn_smarts="[C:1]([C:2]([C@@:3]1([C:6]#[N:7])[C:4]([H:13])([H:14])[O:5]1)([H:11])[H:12])([H:8])([H:9])[H:10]>>[C:1]([C:2]([C:3][C:4]([O:5][C:6]#[N:7])([H:13])[H:14])([H:11])[H:12])([H:8])([H:9])[H:10]"
C       -2.01142017       0.18315180       0.14934316
C       -0.69112405      -0.43296102       0.58827086
C        0.49115494       0.24297593       0.06996942
C        1.85781864      -0.18438336       0.38565443
O        2.29549355      -0.01439972      -0.96802141
C        1.24637926       0.70844344      -1.58310291
N        0.69169570       1.09275144      -2.53669930
H       -2.05911079       1.23616424       0.42750413
H       -2.85535861      -0.33179492       0.60986992
H       -2.11710111       0.11960976      -0.93424010
H       -0.56628357      -0.37273141       1.68483300
H       -0.64851027      -1.50783452       0.35786916
H        2.34147194       0.49337492       1.09399447
H        2.02489453      -1.23236658       0.65475517
14
Frame=5 idx=009315 GeodesicLength=0.4274052993954132 rxn_smarts="[C:1]([C:2]([C@@:3]1([C:6]#[N:7])[C:4]([H:13])([H:14])[O:5]1)([H:11])[H:12])([H:8])([H:9])[H:10]>>[C:1]([C:2]([C:3][C:4]([O:5][C:6]#[N:7])([H:13])[H:14])([H:11])[H:12])([H:8])([H:9])[H:10]"
C       -2.01154302       0.18423487       0.16109554
C       -0.69249588      -0.44916647       0.57892446
C        0.48840033       0.21433156       0.04028134
C        1.85363693      -0.17578178       0.39617222
O        2.27059041      -0.08281292      -0.97044464
C        1.25468157       0.70977627      -1.59966842
N        0.73325598       1.13922470      -2.55102582
H       -2.04833181       1.23375534       0.45408868
H       -2.85506104      -0.32912359       0.62421471
H       -2.12997154       0.13563775      -0.92194977
H       -0.55578538      -0.40663502       1.67404154
H       -0.66263162      -1.52018681       0.32874434
H        2.32711320       0.55147109       1.06040143
H        2.02814188      -1.20472500       0.72512439
14
Frame=6 idx=009315 GeodesicLength=0.5119689436720748 rxn_smarts="[C:1]([C:2]([C@@:3]1([C:6]#[N:7])[C:4]([H:13])([H:14])[O:5]1)([H:11])[H:12])([H:8])([H:9])[H:10]>>[C:1]([C:2]([C:3][C:4]([O:5][C:6]#[N:7])([H:13])[H:14])([H:11])[H:12])([H:8])([H:9])[H:10]"
C       -2.01066790       0.18598866       0.17323186
C       -0.69370450      -0.46540771       0.56970755
C        0.48584922       0.18616274       0.01209354
C        1.84858503      -0.16589972       0.40617585
O        2.24692290      -0.14237996      -0.96828407
C        1.26209694       0.70835972      -1.61643083
N        0.77459226       1.17705225      -2.56547813
H       -2.03613882       1.23136962       0.48214867
H       -2.85419142      -0.32607644       0.63782390
H       -2.14106276       0.15384769      -0.90906434
H       -0.54588062      -0.44224432       1.66311061
H       -0.67700421      -1.53176953       0.29860638
H        2.31042147       0.60513638       1.02731426
H        2.03018241      -1.17413938       0.78904476
14
Frame=7 idx=009315 GeodesicLength=0.5964453384838921 rxn_smarts="[C:1]([C:2]([C@@:3]1([C:6]#[N:7])[C:4]([H:13])([H:14])[O:5]1)([H:11])[H:12])([H:8])([H:9])[H:10]>>[C:1]([C:2]([C:3][C:4]([O:5][C:6]#[N:7])([H:13])[H:14])([H:11])[H:12])([H:8])([H:9])[H:10]"
C       -2.00900838       0.18821107       0.18616659
C       -0.69480757      -0.48192147       0.56025012
C        0.48332031       0.15829598      -0.01532540
C        1.84238118      -0.15446087       0.41572389
O        2.22490857      -0.19566742      -0.96241651
C        1.26861119       0.70338718      -1.63422195
N        0.81752692       1.20919625      -2.58042483
H       -2.02257231       1.22864156       0.51239794
H       -2.85273318      -0.32295247       0.65144101
H       -2.15102384       0.17423578      -0.89506282
H       -0.53638327      -0.48001841       1.65156907
H       -0.69182464      -1.54269133       0.26694761
H        2.29111063       0.65607922       0.99421264
H        2.03049438      -1.14033506       0.84874263
14
Frame=8 idx=009315 GeodesicLength=0.6803028856525639 rxn_smarts="[C:1]([C:2]([C@@:3]1([C:6]#[N:7])[C:4]([H:13])([H:14])[O:5]1)([H:11])[H:12])([H:8])([H:9])[H:10]>>[C:1]([C:2]([C:3][C:4]([O:5][C:6]#[N:7])([H:13])[H:14])([H:11])[H:12])([H:8])([H:9])[H:10]"
C       -2.00624318       0.19110406       0.19969493
C       -0.69578850      -0.49888970       0.55038834
C        0.48107476       0.13081983      -0.04143260
C        1.83521364      -0.14137141       0.42518122
O        2.20483001      -0.24334996      -0.95309821
C        1.27386166       0.69525736      -1.65279127
N        0.85973490       1.23469589      -2.59550061
H       -2.00727683       1.22548764       0.54518440
H       -2.85071226      -0.31962690       0.66413575
H       -2.15909548       0.19778444      -0.88013432
H       -0.52751794      -0.52076136       1.63917360
H       -0.70709822      -1.55281725       0.23296664
H        2.26961621       0.70507038       0.96114718
H        2.02940123      -1.10340302       0.90508494
14
Frame=9 idx=009315 GeodesicLength=0.7643015306059916 rxn_smarts="[C:1]([C:2]([C@@:3]1([C:6]#[N:7])[C:4]([H:13])([H:14])[O:5]1)([H:11])[H:12])([H:8])([H:9])[H:10]>>[C:1]([C:2]([C:3][C:4]([O:5][C:6]#[N:7])([H:13])[H:14])([H:11])[H:12])([H:8])([H:9])[H:10]"
C       -2.00266953       0.19425035       0.21418824
C       -0.69673593      -0.51633764       0.54006934
C        0.47884332       0.10354805      -0.06700160
C        1.82668425      -0.12661429       0.43421854
O        2.18653810      -0.28708716      -0.94097543
C        1.27803151       0.68377350      -1.67271790
N        0.90421236       1.25650776      -2.61080918
H       -1.99042869       1.22152287       0.58036080
H       -2.84810825      -0.31632891       0.67707563
H       -2.16603011       0.22342281      -0.86373014
H       -0.51910394      -0.56398933       1.62570879
H       -0.72300340      -1.56219327       0.19721583
H        2.24566638       0.75266601       0.92742186
H        2.02610394      -1.06314076       0.95897521
14
Frame=10 idx=009315 GeodesicLength=0.8480506894330738 rxn_smarts="[C:1]([C:2]([C@@:3]1([C:6]#[N:7])[C:4]([H:13])([H:14])[O:5]1)([H:11])[H:12])([H:8])([H:9])[H:10]>>[C:1]([C:2]([C:3][C:4]([O:5][C:6]#[N:7])([H:13])[H:14])([H:11])[H:12])([H:8])([H:9])[H:10]"
C       -1.99799957       0.19778007       0.22942931
C       -0.69764651      -0.53437648       0.52918812
C        0.47686478       0.07646706      -0.09163899
C        1.81694445      -0.11018475       0.44307096
O        2.17005058      -0.32727626      -0.92609573
C        1.28123506       0.66948578      -1.69363310
N        0.94875443       1.27369296      -2.62574935
H       -1.97172149       1.21663317       0.61799034
H       -2.84495164      -0.31289423       0.68947075
H       -2.17113244       0.25179021      -0.84600779
H       -0.51129260      -0.61013982       1.61093911
H       -0.73956362      -1.57065024       0.15925255
H        2.21957856       0.79921621       0.89292782
H        2.02088001      -1.01954367       1.01085600
14
Frame=11 idx=009315 GeodesicLength=0.9321089102400529 rxn_smarts="[C:1]([C:2]([C@@:3]1([C:6]#[N:7])[C:4]([H:13])([H:14])[O:5]1)([H:11])[H:12])([H:8])([H:9])[H:10]>>[C:1]([C:2]([C:3][C:4]([O:5][C:6]#[N:7])([H:13])[H:14])([H:11])[H:12])([H:8])([H:9])[H:10]"
C       -1.99253406       0.20130139       0.24578173
C       -0.69858855      -0.55288825       0.51774672
C        0.47487827       0.04977372      -0.11579968
C        1.80561510      -0.09203089       0.45135286
O        2.15492864      -0.36489460      -0.90886473
C        1.28350934       0.65226751      -1.71594110
N        0.99640572       1.28807492      -2.64035853
H       -1.95149257       1.21040136       0.65806180
H       -2.84121666      -0.30972375       0.70226625
H       -2.17500246       0.28199245      -0.82643772
H       -0.50394697      -0.65870985       1.59469332
H       -0.75682844      -1.57803911       0.11951828
H        2.19145082       0.84483250       0.85697062
H        2.01282182      -0.97235740       1.06101019
14
Frame=12 idx=009315 GeodesicLength=1.0160993579704427 rxn_smarts="[C:1]([C:2]([C@@:3]1([C:6]#[N:7])[C:4]([H:13])([H:14])[O:5]1)([H:11])[H:12])([H:8])([H:9])[H:10]>>[C:1]([C:2]([C:3][C:4]([O:5][C:6]#[N:7])([H:13])[H:14])([H:11])[H:12])([H:8])([H:9])[H:10]"
C       -1.98589687       0.20503072       0.26307036
C       -0.69952113      -0.57197299       0.50549128
C        0.47319166       0.02338227      -0.13924763
C        1.79281523      -0.07218454       0.45942016
O        2.14149058      -0.39951716      -0.88904999
C        1.28552073       0.63336315      -1.73888703
N        1.04407226       1.29736640      -2.65480396
H       -1.92925639       1.20272294       0.70074182
H       -2.83684412      -0.30650536       0.71475218
H       -2.17692255       0.31484483      -0.80506181
H       -0.49711493      -0.71019100       1.57651499
H       -0.77483223      -1.58409923       0.07736583
H        2.16115941       0.88955584       0.82019123
H        2.00213836      -0.92179586       1.10950257
14
Frame=13 idx=009315 GeodesicLength=1.1003747436398643 rxn_smarts="[C:1]([C:2]([C@@:3]1([C:6]#[N:7])[C:4]([H:13])([H:14])[O:5]1)([H:11])[H:12])([H:8])([H:9])[H:10]>>[C:1]([C:2]([C:3][C:4]([O:5][C:6]#[N:7])([H:13])[H:14])([H:11])[H:12])([H:8])([H:9])[H:10]"
C       -1.97832402       0.20866403       0.28154913
C       -0.70048117      -0.59142814       0.49242597
C        0.47166665      -0.00228118      -0.16214294
C        1.77832380      -0.05067501       0.46704073
O        2.12930553      -0.43163805      -0.86688575
C        1.28744540       0.61305939      -1.76249789
N        1.09354580       1.30224186      -2.66947306
H       -1.90540263       1.19317800       0.74607361
H       -2.83185355      -0.30365767       0.72745113
H       -2.17722043       0.34977472      -0.78146067
H       -0.49070437      -0.76411965       1.55621741
H       -0.79349995      -1.58850350       0.03306063
H        2.12912511       0.93323000       0.78226149
H        1.98807384      -0.86784480       1.15638019
14
Frame=14 idx=009315 GeodesicLength=1.1849499085849315 rxn_smarts="[C:1]([C:2]([C@@:3]1([C:6]#[N:7])[C:4]([H:13])([H:14])[O:5]1)([H:11])[H:12])([H:8])([H:9])[H:10]>>[C:1]([C:2]([C:3][C:4]([O:5][C:6]#[N:7])([H:13])[H:14])([H:11])[H:12])([H:8])([H:9])[H:10]"
C       -1.96991416       0.21194728       0.30107872
C       -0.70143928      -0.61093168       0.47876428
C        0.47029473      -0.02690767      -0.18442400
C        1.76215537      -0.02786910       0.47402736
O        2.11794189      -0.46141219      -0.84272505
C        1.28936194       0.59214748      -1.78645142
N        1.14499472       1.30319520      -2.68420517
H       -1.88029399       1.18161119       0.79332054
H       -2.82623298      -0.30136516       0.74045530
H       -2.17589289       0.38586835      -0.75570296
H       -0.48463108      -0.81943389       1.53392184
H       -0.81259478      -1.59099581      -0.01258645
H        2.09600085       0.97527480       0.74328718
H        1.97024966      -0.81112881       1.20123983
14
Frame=15 idx=009315 GeodesicLength=1.269663880835765 rxn_smarts="[C:1]([C:2]([C@@:3]1([C:6]#[N:7])[C:4]([H:13])([H:14])[O:5]1)([H:11])[H:12])([H:8])([H:9])[H:10]>>[C:1]([C:2]([C:3][C:4]([O:5][C:6]#[N:7])([H:13])[H:14])([H:11])[H:12])([H:8])([H:9])[H:10]"
C       -1.96034959       0.21503577       0.32160816
C       -0.70235772      -0.63056722       0.46419374
C        0.46935182      -0.05069691      -0.20611059
C        1.74433329      -0.00379975       0.48077865
O        2.10782916      -0.48841331      -0.81622115
C        1.29211462       0.57148296      -1.81010691
N        1.19584444       1.29853325      -2.69996327
H       -1.85345933       1.16782391       0.84272839
H       -2.81989642      -0.29934211       0.75335277
H       -2.17243002       0.42381183      -0.72762599
H       -0.47882813      -0.87648919       1.50907939
H       -0.83216688      -1.59129886      -0.06014866
H        2.06138374       1.01582121       0.70416074
H        1.94863101      -0.75190157       1.24427474
14
Frame=16 idx=009315 GeodesicLength=1.354759458218448 rxn_smarts="[C:1]([C:2]([C@@:3]1([C:6]#[N:7])[C:4]([H:13])([H:14])[O:5]1)([H:11])[H:12])([H:8])([H:9])[H:10]>>[C:1]([C:2]([C:3][C:4]([O:5][C:6]#[N:7])([H:13])[H:14])([H:11])[H:12])([H:8])([H:9])[H:10]"
C       -1.95001242       0.21754399       0.34319106
C       -0.70325851      -0.64993907       0.44898488
C        0.46863601      -0.07306265      -0.22720653
C        1.72486176       0.02126639       0.48693142
O        2.09819098      -0.51322111      -0.78782702
C        1.29546007       0.55118858      -1.83358287
N        1.24807179       1.28958692      -2.71656421
H       -1.82565868       1.15153121       0.89384237
H       -2.81296185      -0.29812958       0.76649513
H       -2.16723952       0.46255577      -0.69711480
H       -0.47317249      -0.93410954       1.48193359
H       -0.85193959      -1.58915019      -0.10873956
H        2.02635337       1.05445151       0.66444138
H        1.92266908      -0.69051222       1.28521515
