11
Frame=0 idx=003048 GeodesicLength=0.0 rxn_smarts="[O:1]([C@@:2]1([H:8])[C:3]([H:9])([H:10])[C@:4]1([C:5]#[N:6])[H:11])[H:7]>>[O:1](/[C:2](=[C:4](/[C:3]([H:9])([H:10])[H:11])[C:5]#[N:6])[H:8])[H:7]"
O       -0.72497708       1.34128472      -0.84986129
C       -0.86072731       0.34464698       0.10392788
C       -0.37619838      -1.05865592      -0.29399526
C        0.21275061       0.01059948       1.05509075
C        1.48171242       0.54795563       0.67274547
N        2.49486037       1.05113740       0.44505153
H        0.18844292       1.64584165      -0.88528648
H       -1.86856944       0.37054229       0.50304651
H       -1.07951484      -1.85977809      -0.09394982
H        0.14338047      -1.07226754      -1.24462940
H        0.38884031      -1.32130661       0.58786012
11
Frame=1 idx=003048 GeodesicLength=0.09198065071215193 rxn_smarts="[O:1]([C@@:2]1([H:8])[C:3]([H:9])([H:10])[C@:4]1([C:5]#[N:6])[H:11])[H:7]>>[O:1](/[C:2](=[C:4](/[C:3]([H:9])([H:10])[H:11])[C:5]#[N:6])[H:8])[H:7]"
O       -0.73082895       1.35182179      -0.85440188
C       -0.86313542       0.35453333       0.09623038
C       -0.36690231      -1.06742343      -0.28882315
C        0.21282026       0.00352826       1.03209913
C        1.48371539       0.54466686       0.66221902
N        2.49915426       1.04600340       0.44214930
H        0.17302695       1.68467187      -0.86941609
H       -1.87005011       0.37366166       0.49830739
H       -1.08498015      -1.85667352      -0.09463358
H        0.15627290      -1.09143722      -1.23743356
H        0.39090718      -1.34335300       0.61370304
11
Frame=2 idx=003048 GeodesicLength=0.18390159850146914 rxn_smarts="[O:1]([C@@:2]1([H:8])[C:3]([H:9])([H:10])[C@:4]1([C:5]#[N:6])[H:11])[H:7]>>[O:1](/[C:2](=[C:4](/[C:3]([H:9])([H:10])[H:11])[C:5]#[N:6])[H:8])[H:7]"
O       -0.73585010       1.36263259      -0.85900380
C       -0.86529929       0.36432903       0.08806725
C       -0.35762943      -1.07673190      -0.28384700
C        0.21297849      -0.00364868       1.00851592
C        1.48580083       0.54110946       0.65121893
N        2.50329768       1.04085869       0.43856979
H        0.15676824       1.72432842      -0.85153132
H       -1.87129315       0.37684849       0.49294182
H       -1.09008208      -1.85387097      -0.09516559
H        0.16915632      -1.11144895      -1.23027597
H        0.39215249      -1.36440618       0.64050996
11
Frame=3 idx=003048 GeodesicLength=0.27575389810617335 rxn_smarts="[O:1]([C@@:2]1([H:8])[C:3]([H:9])([H:10])[C@:4]1([C:5]#[N:6])[H:11])[H:7]>>[O:1](/[C:2](=[C:4](/[C:3]([H:9])([H:10])[H:11])[C:5]#[N:6])[H:8])[H:7]"
O       -0.73998480       1.37384784      -0.86356495
C       -0.86720025       0.37403286       0.07943960
C       -0.34837390      -1.08660073      -0.27909998
C        0.21324669      -0.01096845       0.98434235
C        1.48797559       0.53726966       0.63975646
N        2.50725456       1.03577049       0.43430370
H        0.13962555       1.76456188      -0.83166508
H       -1.87228631       0.38009845       0.48694344
H       -1.09484037      -1.85136971      -0.09557121
H        0.18203717      -1.13231510      -1.22318811
H        0.39254607      -1.38432718       0.66830379
11
Frame=4 idx=003048 GeodesicLength=0.36746852787038303 rxn_smarts="[O:1]([C@@:2]1([H:8])[C:3]([H:9])([H:10])[C@:4]1([C:5]#[N:6])[H:11])[H:7]>>[O:1](/[C:2](=[C:4](/[C:3]([H:9])([H:10])[H:11])[C:5]#[N:6])[H:8])[H:7]"
O       -0.74317500       1.38553516      -0.86778752
C       -0.86882152       0.38363132       0.07038920
C       -0.33914870      -1.09699285      -0.27461259
C        0.21361534      -0.01841770       0.95954975
C        1.49022802       0.53319409       0.62784054
N        2.51099884       1.03086027       0.42941397
H        0.12168648       1.80493929      -0.81007129
H       -1.87301489       0.38334092       0.48032143
H       -1.09930467      -1.84913682      -0.09592000
H        0.19485220      -1.15393624      -1.21617207
H        0.39208388      -1.40301743       0.69704857
11
Frame=5 idx=003048 GeodesicLength=0.4590862387363921 rxn_smarts="[O:1]([C@@:2]1([H:8])[C:3]([H:9])([H:10])[C@:4]1([C:5]#[N:6])[H:11])[H:7]>>[O:1](/[C:2](=[C:4](/[C:3]([H:9])([H:10])[H:11])[C:5]#[N:6])[H:8])[H:7]"
O       -0.74544129       1.39789289      -0.87163131
C       -0.87017059       0.39314249       0.06091359
C       -0.32992430      -1.10795404      -0.27039211
C        0.21409327      -0.02603946       0.93416031
C        1.49256727       0.52886657       0.61548876
N        2.51455149       1.02613820       0.42387677
H        0.10292485       1.84530449      -0.78679246
H       -1.87350049       0.38656337       0.47310011
H       -1.10346940      -1.84720604      -0.09623715
H        0.20765550      -1.17635379      -1.20924916
H        0.39071368      -1.42035470       0.72676266
11
Frame=6 idx=003048 GeodesicLength=0.5506854067963821 rxn_smarts="[O:1]([C@@:2]1([H:8])[C:3]([H:9])([H:10])[C@:4]1([C:5]#[N:6])[H:11])[H:7]>>[O:1](/[C:2](=[C:4](/[C:3]([H:9])([H:10])[H:11])[C:5]#[N:6])[H:8])[H:7]"
O       -0.74681306       1.41098636      -0.87485507
C       -0.87123219       0.40257220       0.05106273
C       -0.32068943      -1.11943775      -0.26648299
C        0.21466695      -0.03383360       0.90814173
C        1.49495902       0.52428642       0.60270312
N        2.51785421       1.02156728       0.41776029
H        0.08337053       1.88525241      -0.76206687
H       -1.87373245       0.38973653       0.46532340
H       -1.10734872      -1.84550543      -0.09660426
H        0.22047041      -1.19947372      -1.20246012
H        0.38849473      -1.43615070       0.75747803
11
Frame=7 idx=003048 GeodesicLength=0.6422035290581252 rxn_smarts="[O:1]([C@@:2]1([H:8])[C:3]([H:9])([H:10])[C@:4]1([C:5]#[N:6])[H:11])[H:7]>>[O:1](/[C:2](=[C:4](/[C:3]([H:9])([H:10])[H:11])[C:5]#[N:6])[H:8])[H:7]"
O       -0.74743578       1.42494770      -0.87736266
C       -0.87203417       0.41192683       0.04085183
C       -0.31141907      -1.13146833      -0.26288720
C        0.21536227      -0.04181431       0.88148503
C        1.49743751       0.51947920       0.58948778
N        2.52099778       1.01718866       0.41110856
H        0.06315416       1.92461368      -0.73602139
H       -1.87372975       0.39277740       0.45703380
H       -1.11093864      -1.84407174      -0.09707113
H        0.23329499      -1.22330046      -1.19580600
H        0.38531071      -1.45027864       0.78918138
11
Frame=8 idx=003048 GeodesicLength=0.733670436824071 rxn_smarts="[O:1]([C@@:2]1([H:8])[C:3]([H:9])([H:10])[C@:4]1([C:5]#[N:6])[H:11])[H:7]>>[O:1](/[C:2](=[C:4](/[C:3]([H:9])([H:10])[H:11])[C:5]#[N:6])[H:8])[H:7]"
O       -0.74741265       1.43982054      -0.87902380
C       -0.87259270       0.42121261       0.03031385
C       -0.30209058      -1.14403917      -0.25962664
C        0.21617776      -0.04997921       0.85416372
C        1.50000735       0.51444819       0.57582855
N        2.52402390       1.01296473       0.40398425
H        0.04234784       1.96316571      -0.70878876
H       -1.87351822       0.39563758       0.44828800
H       -1.11424430      -1.84287996      -0.09770988
H        0.24615433      -1.24781106      -1.18932129
H        0.38114727      -1.46253995       0.82189200
11
Frame=9 idx=003048 GeodesicLength=0.825216638857311 rxn_smarts="[O:1]([C@@:2]1([H:8])[C:3]([H:9])([H:10])[C@:4]1([C:5]#[N:6])[H:11])[H:7]>>[O:1](/[C:2](=[C:4](/[C:3]([H:9])([H:10])[H:11])[C:5]#[N:6])[H:8])[H:7]"
O       -0.74690054       1.45563281      -0.87975871
C       -0.87296770       0.43045104       0.01947020
C       -0.29269155      -1.15719152      -0.25673714
C        0.21713388      -0.05831017       0.82615986
C        1.50275350       0.50920396       0.56172202
N        2.52709874       1.00886728       0.39648372
H        0.02099229       2.00079336      -0.68044451
H       -1.87320736       0.39831261       0.43913494
H       -1.11731925      -1.84195204      -0.09860572
H        0.25907423      -1.27307767      -1.18308593
H        0.37603375      -1.47272966       0.85566127
11
Frame=10 idx=003048 GeodesicLength=0.9161141981125357 rxn_smarts="[O:1]([C@@:2]1([H:8])[C:3]([H:9])([H:10])[C@:4]1([C:5]#[N:6])[H:11])[H:7]>>[O:1](/[C:2](=[C:4](/[C:3]([H:9])([H:10])[H:11])[C:5]#[N:6])[H:8])[H:7]"
O       -0.74610722       1.47251210      -0.87921578
C       -0.87290777       0.43961852       0.00845504
C       -0.28314188      -1.17073832      -0.25403084
C        0.21822156      -0.06691883       0.79728274
C        1.50527420       0.50368517       0.54690712
N        2.52955935       1.00497056       0.38893260
H       -0.00033052       2.03705334      -0.65162486
H       -1.87218244       0.40048206       0.42967891
H       -1.11986902      -1.84113854      -0.09952117
H        0.27190104      -1.29865679      -1.17676999
H        0.36958269      -1.48086925       0.88990623
11
Frame=11 idx=003048 GeodesicLength=1.007347204847997 rxn_smarts="[O:1]([C@@:2]1([H:8])[C:3]([H:9])([H:10])[C@:4]1([C:5]#[N:6])[H:11])[H:7]>>[O:1](/[C:2](=[C:4](/[C:3]([H:9])([H:10])[H:11])[C:5]#[N:6])[H:8])[H:7]"
O       -0.74497274       1.49026929      -0.87773219
C       -0.87276927       0.44873968      -0.00291814
C       -0.27350091      -1.18499682      -0.25175934
C        0.21945818      -0.07565272       0.76765574
C        1.50812743       0.49798303       0.53162996
N        2.53240013       1.00102339       0.38093978
H       -0.02226476       2.07243677      -0.62133751
H       -1.87128819       0.40247349       0.41977852
H       -1.12228520      -1.84067324      -0.10086868
H        0.28488702      -1.32526041      -1.17081826
H        0.36220831      -1.48634247       0.92543011
11
Frame=12 idx=003048 GeodesicLength=1.0984304925602895 rxn_smarts="[O:1]([C@@:2]1([H:8])[C:3]([H:9])([H:10])[C@:4]1([C:5]#[N:6])[H:11])[H:7]>>[O:1](/[C:2](=[C:4](/[C:3]([H:9])([H:10])[H:11])[C:5]#[N:6])[H:8])[H:7]"
O       -0.74314572       1.50898486      -0.87507385
C       -0.87219200       0.45773092      -0.01471754
C       -0.26366338      -1.19985196      -0.24967562
C        0.22078437      -0.08467935       0.73704993
C        1.51085066       0.49196240       0.51565442
N        2.53487686       0.99693880       0.37226469
H       -0.04482428       2.10691496      -0.58946645
H       -1.86986186       0.40403232       0.40921952
H       -1.12423177      -1.84043473      -0.10242280
H        0.29796941      -1.35255414      -1.16472627
H        0.35343770      -1.48904407       0.96189396
11
Frame=13 idx=003048 GeodesicLength=1.189612624397998 rxn_smarts="[O:1]([C@@:2]1([H:8])[C:3]([H:9])([H:10])[C@:4]1([C:5]#[N:6])[H:11])[H:7]>>[O:1](/[C:2](=[C:4](/[C:3]([H:9])([H:10])[H:11])[C:5]#[N:6])[H:8])[H:7]"
O       -0.74114602       1.52868230      -0.87121519
C       -0.87144102       0.46669177      -0.02689041
C       -0.25362817      -1.21544954      -0.24788040
C        0.22229236      -0.09390089       0.70551589
C        1.51380315       0.48566498       0.49901971
N        2.53754918       0.99275865       0.36324424
H       -0.06783713       2.14034914      -0.55611433
H       -1.86835561       0.40529051       0.39813090
H       -1.12589847      -1.84053062      -0.10432932
H        0.31120813      -1.38090755      -1.15880088
H        0.34345361      -1.48864874       0.99931979
11
Frame=14 idx=003048 GeodesicLength=1.2807083100319079 rxn_smarts="[O:1]([C@@:2]1([H:8])[C:3]([H:9])([H:10])[C@:4]1([C:5]#[N:6])[H:11])[H:7]>>[O:1](/[C:2](=[C:4](/[C:3]([H:9])([H:10])[H:11])[C:5]#[N:6])[H:8])[H:7]"
O       -0.73911346       1.54932207      -0.86590380
C       -0.87047328       0.47558273      -0.03933933
C       -0.24341278      -1.23168393      -0.24633802
C        0.22392244      -0.10336826       0.67291131
C        1.51685069       0.47908646       0.48152138
N        2.54025338       0.98852000       0.35412458
H       -0.09086616       2.17235869      -0.52152322
H       -1.86665363       0.40599405       0.38658619
H       -1.12724638      -1.84087374      -0.10652135
H        0.32454397      -1.41013098      -1.15296789
H        0.33219521      -1.48480710       1.03745014
11
Frame=15 idx=003048 GeodesicLength=1.3716374251976213 rxn_smarts="[O:1]([C@@:2]1([H:8])[C:3]([H:9])([H:10])[C@:4]1([C:5]#[N:6])[H:11])[H:7]>>[O:1](/[C:2](=[C:4](/[C:3]([H:9])([H:10])[H:11])[C:5]#[N:6])[H:8])[H:7]"
O       -0.73635937       1.57085464      -0.85914843
C       -0.86903003       0.48431445      -0.05234203
C       -0.23293008      -1.24870144      -0.24482873
C        0.22564981      -0.11315892       0.63909199
C        1.51982133       0.47216608       0.46316445
N        2.54267815       0.98408512       0.34417050
H       -0.11454834       2.20335246      -0.48468477
H       -1.86443408       0.40619116       0.37413765
H       -1.12814622      -1.84155095      -0.10899494
H        0.33800917      -1.44039440      -1.14681872
H        0.31928966      -1.47715821       1.07625303
11
Frame=16 idx=003048 GeodesicLength=1.4626284789282267 rxn_smarts="[O:1]([C@@:2]1([H:8])[C:3]([H:9])([H:10])[C@:4]1([C:5]#[N:6])[H:11])[H:7]>>[O:1](/[C:2](=[C:4](/[C:3]([H:9])([H:10])[H:11])[C:5]#[N:6])[H:8])[H:7]"
O       -0.73336136       1.59332433      -0.85083801
C       -0.86732385       0.49298783      -0.06583148
C       -0.22217750      -1.26655015      -0.24340594
C        0.22750930      -0.12324250       0.60406723
C        1.52293613       0.46487801       0.44390846
N        2.54519460       0.97940344       0.33376451
H       -0.13865796       2.23303757      -0.44577331
H       -1.86205552       0.40593945       0.36086229
H       -1.12869112      -1.84258080      -0.11180275
H        0.35165025      -1.47191473      -1.14056523
H        0.30497704      -1.46528246       1.11561423
