18
Frame=0 idx=004104 GeodesicLength=0.0 rxn_smarts="[C:1]([C:2]([O:3][C:4]([C:5]([H:13])([H:14])[H:15])([C:6]([H:16])([H:17])[H:18])[H:12])([H:10])[H:11])([H:7])([H:8])[H:9]>>[C:1]([C:2]([O:3][H:17])([H:10])[H:11])([H:7])([H:8])[H:9].[C:4]([C:5]([H:13])([H:14])[H:15])(=[C:6]([H:16])[H:18])[H:12]"
C        2.71328726      -0.17987355       0.44391703
C        1.45957611       0.48016585      -0.09717609
O        0.39003309      -0.43086317      -0.13418266
C       -1.34314331       0.33310819      -0.20044114
C       -1.96346231      -0.45459638      -1.30547904
C       -1.59140489       0.04444320       1.16304008
H        2.99403745      -1.03068368      -0.17842055
H        2.54321668      -0.54252771       1.45930970
H        3.54566786       0.52704035       0.46559666
H        1.19770707       1.34861542       0.53160824
H        1.63882150       0.85652540      -1.11109289
H       -1.01475065       1.33514069      -0.46453993
H       -2.96974291      -0.06173339      -1.48073537
H       -2.05603735      -1.50390114      -1.02559771
H       -1.39579445      -0.38209979      -2.23119486
H       -1.55319082       0.86154810       1.87352590
H       -0.30313420      -0.44852034       0.90091265
H       -2.29168610      -0.75178806       1.39094990
18
Frame=1 idx=004104 GeodesicLength=0.05099850117088939 rxn_smarts="[C:1]([C:2]([O:3][C:4]([C:5]([H:13])([H:14])[H:15])([C:6]([H:16])([H:17])[H:18])[H:12])([H:10])[H:11])([H:7])([H:8])[H:9]>>[C:1]([C:2]([O:3][H:17])([H:10])[H:11])([H:7])([H:8])[H:9].[C:4]([C:5]([H:13])([H:14])[H:15])(=[C:6]([H:16])[H:18])[H:12]"
C        2.71738661      -0.17515293       0.44697889
C        1.46259595       0.47679622      -0.10085211
O        0.39643151      -0.43833637      -0.13879640
C       -1.34269614       0.33226652      -0.20093885
C       -1.96878459      -0.45241016      -1.30568084
C       -1.59073124       0.04036117       1.16258486
H        3.00617466      -1.02518482      -0.17277966
H        2.54577034      -0.53709115       1.46238962
H        3.54575167       0.53638265       0.47109396
H        1.19771232       1.34839138       0.52170765
H        1.64411887       0.85055178      -1.11537146
H       -1.02755112       1.33966168      -0.46174507
H       -2.97230795      -0.05415016      -1.48355453
H       -2.06755010      -1.50162433      -1.02732581
H       -1.39741821      -0.38314646      -2.22961454
H       -1.53799415       0.85496942       1.87548129
H       -0.29994735      -0.47396460       0.90697870
H       -2.31096109      -0.73831985       1.38944430
18
Frame=2 idx=004104 GeodesicLength=0.10197351922815506 rxn_smarts="[C:1]([C:2]([O:3][C:4]([C:5]([H:13])([H:14])[H:15])([C:6]([H:16])([H:17])[H:18])[H:12])([H:10])[H:11])([H:7])([H:8])[H:9]>>[C:1]([C:2]([O:3][H:17])([H:10])[H:11])([H:7])([H:8])[H:9].[C:4]([C:5]([H:13])([H:14])[H:15])(=[C:6]([H:16])[H:18])[H:12]"
C        2.72134411      -0.17040953       0.45013557
C        1.46561041       0.47339382      -0.10460724
O        0.40285612      -0.44584914      -0.14348421
C       -1.34226083       0.33156877      -0.20149234
C       -1.97409517      -0.45015370      -1.30587556
C       -1.58986438       0.03611850       1.16206426
H        3.01821189      -1.01966867      -0.16690055
H        2.54807292      -0.53154142       1.46557523
H        3.54566363       0.54572225       0.47667057
H        1.19767525       1.34816390       0.51157856
H        1.64952651       0.84444223      -1.11973387
H       -1.04068111       1.34426825      -0.45880682
H       -2.97487443      -0.04661790      -1.48632748
H       -2.07898494      -1.49924427      -1.02904276
H       -1.39909383      -0.38413300      -2.22803875
H       -1.52262177       0.84795754       1.87737750
H       -0.29677200      -0.49964480       0.91290022
H       -2.32971236      -0.72437283       1.38800767
18
Frame=3 idx=004104 GeodesicLength=0.15291306034287033 rxn_smarts="[C:1]([C:2]([O:3][C:4]([C:5]([H:13])([H:14])[H:15])([C:6]([H:16])([H:17])[H:18])[H:12])([H:10])[H:11])([H:7])([H:8])[H:9]>>[C:1]([C:2]([O:3][H:17])([H:10])[H:11])([H:7])([H:8])[H:9].[C:4]([C:5]([H:13])([H:14])[H:15])(=[C:6]([H:16])[H:18])[H:12]"
C        2.72516750      -0.16566970       0.45334758
C        1.46861688       0.46997143      -0.10840703
O        0.40929953      -0.45338458      -0.14819441
C       -1.34184481       0.33103208      -0.20210251
C       -1.97936190      -0.44784391      -1.30606448
C       -1.58885331       0.03174839       1.16147178
H        3.03011506      -1.01414595      -0.16086238
H        2.55016602      -0.52594008       1.46881989
H        3.54542661       0.55501654       0.48227203
H        1.19761774       1.34792309       0.50129355
H        1.65500844       0.83824287      -1.12413817
H       -1.05414605       1.34896329      -0.45572427
H       -2.97742367      -0.03918951      -1.48907484
H       -2.09028017      -1.49678010      -1.03074088
H       -1.40077659      -0.38506641      -2.22646098
H       -1.50720475       0.84057578       1.87918069
H       -0.29362005      -0.52548102       0.91873720
H       -2.34790647      -0.70997222       1.38664723
18
Frame=4 idx=004104 GeodesicLength=0.2038007192863895 rxn_smarts="[C:1]([C:2]([O:3][C:4]([C:5]([H:13])([H:14])[H:15])([C:6]([H:16])([H:17])[H:18])[H:12])([H:10])[H:11])([H:7])([H:8])[H:9]>>[C:1]([C:2]([O:3][H:17])([H:10])[H:11])([H:7])([H:8])[H:9].[C:4]([C:5]([H:13])([H:14])[H:15])(=[C:6]([H:16])[H:18])[H:12]"
C        2.72886611      -0.16096146       0.45656876
C        1.47160793       0.46653786      -0.11221238
O        0.41574998      -0.46092839      -0.15286327
C       -1.34145246       0.33067604      -0.20276593
C       -1.98454521      -0.44549594      -1.30624841
C       -1.58775667       0.02729398       1.16080279
H        3.04184608      -1.00862770      -0.15475639
H        2.55210431      -0.52034968       1.47207082
H        3.54506497       0.56422077       0.48783247
H        1.19756166       1.34765303       0.49093390
H        1.66051214       0.83199421      -1.12853885
H       -1.06794750       1.35375262      -0.45249941
H       -2.97992943      -0.03191407      -1.49182201
H       -2.10136880      -1.49425049      -1.03241310
H       -1.40240899      -0.38595185      -2.22487115
H       -1.49189010       0.83291385       1.88085429
H       -0.29050651      -0.55138439       0.92456823
H       -2.36550751      -0.69517841       1.38535964
18
Frame=5 idx=004104 GeodesicLength=0.25464871197130723 rxn_smarts="[C:1]([C:2]([O:3][C:4]([C:5]([H:13])([H:14])[H:15])([C:6]([H:16])([H:17])[H:18])[H:12])([H:10])[H:11])([H:7])([H:8])[H:9]>>[C:1]([C:2]([O:3][H:17])([H:10])[H:11])([H:7])([H:8])[H:9].[C:4]([C:5]([H:13])([H:14])[H:15])(=[C:6]([H:16])[H:18])[H:12]"
C        2.73242673      -0.15626101       0.45984399
C        1.47459295       0.46308240      -0.11606707
O        0.42221905      -0.46849298      -0.15756052
C       -1.34107967       0.33049225      -0.20348913
C       -1.98968365      -0.44309456      -1.30642592
C       -1.58653064       0.02272158       1.16005198
H        3.05344804      -1.00309417      -0.14850374
H        2.55382005      -0.51473130       1.47537059
H        3.54454502       0.57338134       0.49344114
H        1.19749144       1.34736767       0.48040885
H        1.66610038       0.82565398      -1.13298311
H       -1.08209536       1.35861914      -0.44911795
H       -2.98242423      -0.02474963      -1.49454241
H       -2.11230655      -1.49163992      -1.03406491
H       -1.40405081      -0.38677959      -2.22328097
H       -1.47655199       0.82490426       1.88241623
H       -0.28741212      -0.57742570       0.93033814
H       -2.38250865      -0.67995375       1.38416482
18
Frame=6 idx=004104 GeodesicLength=0.3054490066753277 rxn_smarts="[C:1]([C:2]([O:3][C:4]([C:5]([H:13])([H:14])[H:15])([C:6]([H:16])([H:17])[H:18])[H:12])([H:10])[H:11])([H:7])([H:8])[H:9]>>[C:1]([C:2]([O:3][H:17])([H:10])[H:11])([H:7])([H:8])[H:9].[C:4]([C:5]([H:13])([H:14])[H:15])(=[C:6]([H:16])[H:18])[H:12]"
C        2.73586628      -0.15159723       0.46312107
C        1.47756381       0.45961646      -0.11992525
O        0.42869515      -0.47606604      -0.16221149
C       -1.34073592       0.33049922      -0.20426525
C       -1.99473441      -0.44065564      -1.30660107
C       -1.58524055       0.01807534       1.15921556
H        3.06487965      -0.99756775      -0.14219735
H        2.55538689      -0.50913824       1.47866752
H        3.54390572       0.58244862       0.49900279
H        1.19742833       1.34705145       0.46981523
H        1.67171057       0.81927144      -1.13742020
H       -1.09659431       1.36356377      -0.44557927
H       -2.98487828      -0.01774773      -1.49727221
H       -2.12302407      -1.48896880      -1.03569473
H       -1.40563459      -0.38755150      -2.22167870
H       -1.46134230       0.81664005       1.88383351
H       -0.28435359      -0.60351711       0.93613843
H       -2.39889837      -0.66435628       1.38305141
18
Frame=7 idx=004104 GeodesicLength=0.356209387812368 rxn_smarts="[C:1]([C:2]([O:3][C:4]([C:5]([H:13])([H:14])[H:15])([C:6]([H:16])([H:17])[H:18])[H:12])([H:10])[H:11])([H:7])([H:8])[H:9]>>[C:1]([C:2]([O:3][H:17])([H:10])[H:11])([H:7])([H:8])[H:9].[C:4]([C:5]([H:13])([H:14])[H:15])(=[C:6]([H:16])[H:18])[H:12]"
C        2.73918709      -0.14697402       0.46639611
C        1.48052245       0.45613804      -0.12378890
O        0.43517660      -0.48364867      -0.16681258
C       -1.34042295       0.33070568      -0.20509373
C       -1.99969396      -0.43817671      -1.30677605
C       -1.58390314       0.01336398       1.15829165
H        3.07614286      -0.99205453      -0.13584260
H        2.55680705      -0.50357450       1.48195903
H        3.54315065       0.59142093       0.50451261
H        1.19737862       1.34670582       0.45914980
H        1.67734542       0.81284059      -1.14185444
H       -1.11145058       1.36858551      -0.44187777
H       -2.98729567      -0.01091323      -1.50001160
H       -2.13350812      -1.48624111      -1.03730849
H       -1.40715452      -0.38825413      -2.22006722
H       -1.44628970       0.80814154       1.88510204
H       -0.28133336      -0.62964612       0.94199414
H       -2.41465874      -0.64841910       1.38202799
18
Frame=8 idx=004104 GeodesicLength=0.4069030234999683 rxn_smarts="[C:1]([C:2]([O:3][C:4]([C:5]([H:13])([H:14])[H:15])([C:6]([H:16])([H:17])[H:18])[H:12])([H:10])[H:11])([H:7])([H:8])[H:9]>>[C:1]([C:2]([O:3][H:17])([H:10])[H:11])([H:7])([H:8])[H:9].[C:4]([C:5]([H:13])([H:14])[H:15])(=[C:6]([H:16])[H:18])[H:12]"
C        2.74238747      -0.14239286       0.46966304
C        1.48346100       0.45263477      -0.12765702
O        0.44165588      -0.49124255      -0.17134531
C       -1.34013708       0.33112100      -0.20597328
C       -2.00455229      -0.43564902      -1.30695317
C       -1.58253183       0.00859788       1.15727739
H        3.08722828      -0.98655352      -0.12943946
H        2.55809329      -0.49803057       1.48523793
H        3.54227679       0.60029256       0.50995376
H        1.19734574       1.34631727       0.44840244
H        1.68298301       0.80633192      -1.14628453
H       -1.12666581       1.37368226      -0.43800246
H       -2.98967307      -0.00424688      -1.50276275
H       -2.14373782      -1.48345128      -1.03891682
H       -1.40859926      -0.38886630      -2.21844412
H       -1.43142684       0.79943413       1.88621945
H       -0.27834555      -0.65578346       0.94794252
H       -2.42976188      -0.63219537       1.38108239
18
Frame=9 idx=004104 GeodesicLength=0.45757125706315577 rxn_smarts="[C:1]([C:2]([O:3][C:4]([C:5]([H:13])([H:14])[H:15])([C:6]([H:16])([H:17])[H:18])[H:12])([H:10])[H:11])([H:7])([H:8])[H:9]>>[C:1]([C:2]([O:3][H:17])([H:10])[H:11])([H:7])([H:8])[H:9].[C:4]([C:5]([H:13])([H:14])[H:15])(=[C:6]([H:16])[H:18])[H:12]"
C        2.74545396      -0.13782882       0.47296764
C        1.48639424       0.44910384      -0.13157815
O        0.44814683      -0.49886031      -0.17588577
C       -1.33987853       0.33173817      -0.20690212
C       -2.00934760      -0.43305557      -1.30712950
C       -1.58108788       0.00374377       1.15616895
H        3.09816848      -0.98106776      -0.12289248
H        2.55917173      -0.49244622       1.48855937
H        3.54126255       0.60910536       0.51539203
H        1.19731603       1.34591259       0.43748063
H        1.68869934       0.79971462      -1.15076573
H       -1.14225303       1.37883372      -0.43393454
H       -2.99203932       0.00230400      -1.50550684
H       -2.15377966      -1.48058341      -1.04052285
H       -1.41002017      -0.38937882      -2.21681866
H       -1.41662841       0.79045522       1.88719921
H       -0.27537575      -0.68201833       0.95392652
H       -2.44420282      -0.61567204       1.38024230
18
Frame=10 idx=004104 GeodesicLength=0.5082194674709448 rxn_smarts="[C:1]([C:2]([O:3][C:4]([C:5]([H:13])([H:14])[H:15])([C:6]([H:16])([H:17])[H:18])[H:12])([H:10])[H:11])([H:7])([H:8])[H:9]>>[C:1]([C:2]([O:3][H:17])([H:10])[H:11])([H:7])([H:8])[H:9].[C:4]([C:5]([H:13])([H:14])[H:15])(=[C:6]([H:16])[H:18])[H:12]"
C        2.74836476      -0.13325623       0.47635173
C        1.48932651       0.44552766      -0.13559881
O        0.45465428      -0.50651540      -0.18049138
C       -1.33963964       0.33255640      -0.20788171
C       -2.01410680      -0.43037274      -1.30730352
C       -1.57953354      -0.00122435       1.15496377
H        3.10898474      -0.97558449      -0.11610831
H        2.55997331      -0.48676192       1.49196495
H        3.54006988       0.61789942       0.52089442
H        1.19727662       1.34549952       0.42627800
H        1.69454514       0.79292224      -1.15534754
H       -1.15821928       1.38403222      -0.42964891
H       -2.99441729       0.00878741      -1.50822230
H       -2.16368101      -1.47761516      -1.04213341
H       -1.41145879      -0.38977116      -2.21519959
H       -1.40178407       0.78115379       1.88805411
H       -0.27240643      -0.70841262       0.95990141
H       -2.45794840      -0.59886459       1.37952709
18
Frame=11 idx=004104 GeodesicLength=0.5588337455031818 rxn_smarts="[C:1]([C:2]([O:3][C:4]([C:5]([H:13])([H:14])[H:15])([C:6]([H:16])([H:17])[H:18])[H:12])([H:10])[H:11])([H:7])([H:8])[H:9]>>[C:1]([C:2]([O:3][H:17])([H:10])[H:11])([H:7])([H:8])[H:9].[C:4]([C:5]([H:13])([H:14])[H:15])(=[C:6]([H:16])[H:18])[H:12]"
C        2.75113963      -0.12870518       0.47976147
C        1.49224955       0.44191616      -0.13967036
O        0.46116667      -0.51419512      -0.18508724
C       -1.33942968       0.33359442      -0.20890792
C       -2.01878955      -0.42761677      -1.30747954
C       -1.57793109      -0.00625774       1.15365904
H        3.11964312      -0.97011967      -0.10919017
H        2.56057530      -0.48103700       1.49539986
H        3.53873748       0.62662680       0.52636953
H        1.19724857       1.34505829       0.41489741
H        1.70045770       0.78600568      -1.15997531
H       -1.17456398       1.38927441      -0.42515510
H       -2.99677844       0.01515357      -1.51094056
H       -2.17337060      -1.47456768      -1.04374955
H       -1.41285260      -0.39004561      -2.21357675
H       -1.38704965       0.77162294       1.88875993
H       -0.26945355      -0.73487406       0.96596785
H       -2.47099887      -0.58183343       1.37891740
18
Frame=12 idx=004104 GeodesicLength=0.6094285026213561 rxn_smarts="[C:1]([C:2]([O:3][C:4]([C:5]([H:13])([H:14])[H:15])([C:6]([H:16])([H:17])[H:18])[H:12])([H:10])[H:11])([H:7])([H:8])[H:9]>>[C:1]([C:2]([O:3][H:17])([H:10])[H:11])([H:7])([H:8])[H:9].[C:4]([C:5]([H:13])([H:14])[H:15])(=[C:6]([H:16])[H:18])[H:12]"
C        2.75375460      -0.12414531       0.48324659
C        1.49517349       0.43824949      -0.14385342
O        0.46769141      -0.52191612      -0.18974005
C       -1.33924062       0.33484951      -0.20997648
C       -2.02342734      -0.42475733      -1.30765401
C       -1.57623920      -0.01139483       1.15225286
H        3.13016926      -0.96466775      -0.10201958
H        2.56089378      -0.47518839       1.49892059
H        3.53722516       0.63533519       0.53188478
H        1.19722481       1.34460850       0.40320012
H        1.70650566       0.77887984      -1.16471868
H       -1.19129388       1.39454696      -0.42041640
H       -2.99914664       0.02146692      -1.51363551
H       -2.18290543      -1.47141279      -1.04538226
H       -1.41424820      -0.39016951      -2.21195768
H       -1.37231716       0.76179460       1.88933249
H       -0.26649664      -0.76147707       0.97207502
H       -2.48332304      -0.56460191       1.37844163
18
Frame=13 idx=004104 GeodesicLength=0.6599895713297309 rxn_smarts="[C:1]([C:2]([O:3][C:4]([C:5]([H:13])([H:14])[H:15])([C:6]([H:16])([H:17])[H:18])[H:12])([H:10])[H:11])([H:7])([H:8])[H:9]>>[C:1]([C:2]([O:3][H:17])([H:10])[H:11])([H:7])([H:8])[H:9].[C:4]([C:5]([H:13])([H:14])[H:15])(=[C:6]([H:16])[H:18])[H:12]"
C        2.75623191      -0.11961204       0.48674757
C        1.49808733       0.43454666      -0.14808462
O        0.47421639      -0.52965940      -0.19437662
C       -1.33908464       0.33634172      -0.21108961
C       -2.02798070      -0.42182051      -1.30783205
C       -1.57451644      -0.01657241       1.15073932
H        3.14052715      -0.95923927      -0.09472698
H        2.56101495      -0.46930638       1.50245954
H        3.53557565       0.64396989       0.53735712
H        1.19721973       1.34412373       0.39133074
H        1.71261820       0.77163203      -1.16950125
H       -1.20840756       1.39984328      -0.41546307
H       -3.00149709       0.02765813      -1.51634080
H       -2.19220937      -1.46817991      -1.04702554
H       -1.41558641      -0.39016119      -2.21033377
H       -1.35772443       0.75178106       1.88973954
H       -0.26355702      -0.78813167       0.97832375
H       -2.49492764      -0.54721371       1.37807674
18
Frame=14 idx=004104 GeodesicLength=0.7105354585454696 rxn_smarts="[C:1]([C:2]([O:3][C:4]([C:5]([H:13])([H:14])[H:15])([C:6]([H:16])([H:17])[H:18])[H:12])([H:10])[H:11])([H:7])([H:8])[H:9]>>[C:1]([C:2]([O:3][H:17])([H:10])[H:11])([H:7])([H:8])[H:9].[C:4]([C:5]([H:13])([H:14])[H:15])(=[C:6]([H:16])[H:18])[H:12]"
C        2.75854878      -0.11507535       0.49031196
C        1.50100143       0.43078443      -0.15242443
O        0.48074858      -0.53744483      -0.19905814
C       -1.33895482       0.33807006      -0.21224273
C       -2.03247963      -0.41877467      -1.30801044
C       -1.57272448      -0.02182378       1.14911868
H        3.15074617      -0.95382541      -0.08719803
H        2.56085801      -0.46331148       1.50606964
H        3.53374705       0.65258114       0.54285262
H        1.19722592       1.34361935       0.37914845
H        1.71886539       0.76417100      -1.17439192
H       -1.22590976       1.40515170      -0.41025793
H       -3.00385557       0.03378835      -1.51902832
H       -2.20133204      -1.46484217      -1.04869407
H       -1.41691113      -0.38998254      -2.20871345
H       -1.34317075       0.74152206       1.88999614
H       -0.26061748      -0.81490958       0.98466881
H       -2.50578568      -0.52969826       1.37785316
18
Frame=15 idx=004104 GeodesicLength=0.7610751395534116 rxn_smarts="[C:1]([C:2]([O:3][C:4]([C:5]([H:13])([H:14])[H:15])([C:6]([H:16])([H:17])[H:18])[H:12])([H:10])[H:11])([H:7])([H:8])[H:9]>>[C:1]([C:2]([O:3][H:17])([H:10])[H:11])([H:7])([H:8])[H:9].[C:4]([C:5]([H:13])([H:14])[H:15])(=[C:6]([H:16])[H:18])[H:12]"
C        2.76066576      -0.11049342       0.49399843
C        1.50392581       0.42693925      -0.15695315
O        0.48729426      -0.54528909      -0.20385667
C       -1.33884272       0.34002999      -0.21341808
C       -2.03695234      -0.41557362      -1.30818420
C       -1.57081395      -0.02720991       1.14739461
H        3.16081517      -0.94845236      -0.07924734
H        2.56031236      -0.45703792       1.50983549
H        3.53170184       0.66121028       0.54839171
H        1.19723997       1.34312294       0.36646301
H        1.72533222       0.75637547      -1.17948267
H       -1.24380117       1.41045553      -0.40473472
H       -3.00624070       0.03993877      -1.52166471
H       -2.21032387      -1.46135658      -1.05041423
H       -1.41826678      -0.38957040      -2.20710164
H       -1.32853814       0.73091019       1.89013219
H       -0.25764848      -0.84189870       0.99105252
H       -2.51585925      -0.51210042       1.37778943
18
Frame=16 idx=004104 GeodesicLength=0.8116172331197193 rxn_smarts="[C:1]([C:2]([O:3][C:4]([C:5]([H:13])([H:14])[H:15])([C:6]([H:16])([H:17])[H:18])[H:12])([H:10])[H:11])([H:7])([H:8])[H:9]>>[C:1]([C:2]([O:3][H:17])([H:10])[H:11])([H:7])([H:8])[H:9].[C:4]([C:5]([H:13])([H:14])[H:15])(=[C:6]([H:16])[H:18])[H:12]"
C        2.76257541      -0.10586528       0.49780893
C        1.50686489       0.42300744      -0.16168026
O        0.49385204      -0.55319234      -0.20877968
C       -1.33875032       0.34223400      -0.21461352
C       -2.04139844      -0.41220903      -1.30835217
C       -1.56878769      -0.03271917       1.14556339
H        3.17072847      -0.94312472      -0.07085748
H        2.55935680      -0.45047538       1.51375777
H        3.52943589       0.66985775       0.55397259
H        1.19726890       1.34263254       0.35324964
H        1.73203815       0.74823079      -1.18477900
H       -1.26208109       1.41574673      -0.39888505
H       -3.00866148       0.04610932      -1.52423963
H       -2.21917287      -1.45772151      -1.05219133
H       -1.41965493      -0.38890390      -2.20550112
H       -1.31383742       0.71996387       1.89013925
H       -0.25464718      -0.86909762       0.99748993
H       -2.52512913      -0.49447351       1.37789771
