16
Frame=0 idx=007618 GeodesicLength=0.0 rxn_smarts="[C:1]([C@@:2]1([H:11])[N:3]([H:12])[C@:4]1([C:5]([C:6](=[O:7])[H:16])([H:14])[H:15])[H:13])([H:8])([H:9])[H:10]>>[C:1]([C@:2]1([H:11])[C@@:4]2([H:13])[N:3]([H:12])[C@:6]([H:16])([C:5]2([H:14])[H:15])[O:7]1)([H:8])([H:9])[H:10]"
C       -1.31055164      -1.20200105       0.70617028
C       -1.09213836      -0.02162166      -0.15154217
N        0.27496994       1.53283110      -0.30534535
C       -0.02816373       0.28972185      -1.07785832
C        1.32700492      -0.27391300      -0.67985045
C        1.28412668       0.74081208       0.54009623
O        0.77761826       0.30743414       1.64062473
H       -0.42776687      -1.82140996       0.81246622
H       -1.66261953      -0.91767480       1.69544995
H       -2.12027691      -1.76936210       0.21780577
H       -1.95518572       0.63354039      -0.25956281
H       -0.43390254       2.06336983       0.19426854
H       -0.29604564       0.43506737      -2.12364421
H        2.08719405      -0.03310480      -1.42162790
H        1.37561529      -1.32398934      -0.40263883
H        2.20012176       1.36029993       0.61518829
16
Frame=1 idx=007618 GeodesicLength=0.12219377354776736 rxn_smarts="[C:1]([C@@:2]1([H:11])[N:3]([H:12])[C@:4]1([C:5]([C:6](=[O:7])[H:16])([H:14])[H:15])[H:13])([H:8])([H:9])[H:10]>>[C:1]([C@:2]1([H:11])[C@@:4]2([H:13])[N:3]([H:12])[C@:6]([H:16])([C:5]2([H:14])[H:15])[O:7]1)([H:8])([H:9])[H:10]"
C       -1.32802512      -1.20016667       0.71693886
C       -1.07989156      -0.01685234      -0.12952107
N        0.26442639       1.53428315      -0.31383308
C       -0.02513758       0.28286414      -1.07247194
C        1.34208870      -0.25990391      -0.69173008
C        1.30385568       0.73173260       0.53998525
O        0.78741425       0.27325143       1.62637528
H       -0.45317796      -1.82468415       0.85490951
H       -1.70752323      -0.91740006       1.69695196
H       -2.12484874      -1.76896591       0.21092174
H       -1.94926271       0.62858684      -0.25319708
H       -0.44688163       2.08204405       0.16115176
H       -0.30673452       0.40767300      -2.11714186
H        2.09490459       0.01410666      -1.42986571
H        1.40963750      -1.31442333      -0.43598251
H        2.21915595       1.34785449       0.63650899
16
Frame=2 idx=007618 GeodesicLength=0.24427463778542718 rxn_smarts="[C:1]([C@@:2]1([H:11])[N:3]([H:12])[C@:4]1([C:5]([C:6](=[O:7])[H:16])([H:14])[H:15])[H:13])([H:8])([H:9])[H:10]>>[C:1]([C@:2]1([H:11])[C@@:4]2([H:13])[N:3]([H:12])[C@:6]([H:16])([C:5]2([H:14])[H:15])[O:7]1)([H:8])([H:9])[H:10]"
C       -1.34580070      -1.19758942       0.72833755
C       -1.06725538      -0.01264179      -0.10746555
N        0.25321735       1.53542673      -0.32159608
C       -0.02178579       0.27585528      -1.06662300
C        1.35760976      -0.24479568      -0.70428155
C        1.32414711       0.72171096       0.54030215
O        0.79835475       0.23703021       1.61148313
H       -0.48064393      -1.82744210       0.89954631
H       -1.75329244      -0.91486610       1.69754806
H       -2.12905433      -1.76840185       0.20519321
H       -1.94301940       0.62234144      -0.24779109
H       -0.46153758       2.09969296       0.12608198
H       -0.31694299       0.37993246      -2.10967330
H        2.10171692       0.06358915      -1.43806078
H        1.44542080      -1.30328150      -0.47196189
H        2.23886586       1.33343925       0.65896083
16
Frame=3 idx=007618 GeodesicLength=0.3662337833697825 rxn_smarts="[C:1]([C@@:2]1([H:11])[N:3]([H:12])[C@:4]1([C:5]([C:6](=[O:7])[H:16])([H:14])[H:15])[H:13])([H:8])([H:9])[H:10]>>[C:1]([C@:2]1([H:11])[C@@:4]2([H:13])[N:3]([H:12])[C@:6]([H:16])([C:5]2([H:14])[H:15])[O:7]1)([H:8])([H:9])[H:10]"
C       -1.36385326      -1.19422659       0.74041916
C       -1.05426314      -0.00900757      -0.08539926
N        0.24130364       1.53623881      -0.32856525
C       -0.01807882       0.26870175      -1.06030446
C        1.37353802      -0.22847758      -0.71751586
C        1.34501391       0.71061442       0.54106405
O        0.81042891       0.19854040       1.59579475
H       -0.51025195      -1.82941534       0.94657595
H       -1.79993087      -0.90994896       1.69715394
H       -2.13277163      -1.76780495       0.20073003
H       -1.93642771       0.61478235      -0.24330712
H       -0.47793029       2.11616963       0.08880964
H       -0.32657503       0.35185127      -2.10124344
H        2.10754466       0.11551644      -1.44602185
H        1.48295013      -1.29028994      -0.51078044
H        2.25930344       1.31675586       0.68259017
16
Frame=4 idx=007618 GeodesicLength=0.48805999599552063 rxn_smarts="[C:1]([C@@:2]1([H:11])[N:3]([H:12])[C@:4]1([C:5]([C:6](=[O:7])[H:16])([H:14])[H:15])[H:13])([H:8])([H:9])[H:10]>>[C:1]([C@:2]1([H:11])[C@@:4]2([H:13])[N:3]([H:12])[C@:6]([H:16])([C:5]2([H:14])[H:15])[O:7]1)([H:8])([H:9])[H:10]"
C       -1.38214730      -1.19003417       0.75324022
C       -1.04096014      -0.00596557      -0.06335462
N        0.22863807       1.53670378      -0.33466441
C       -0.01398987       0.26141883      -1.05351610
C        1.38983192      -0.21083008      -0.73143482
C        1.36646733       0.69829081       0.54228775
O        0.82361376       0.15754202       1.57912667
H       -0.54207347      -1.83026869       0.99621133
H       -1.84743905      -0.90253343       1.69566370
H       -2.13584775      -1.76734132       0.19765878
H       -1.92947711       0.60589342      -0.23970209
H       -0.49609131       2.13129725       0.04907129
H       -0.33553205       0.32344004      -2.09186993
H        2.11229750       0.17005981      -1.45351063
H        1.52218299      -1.27513557      -0.55264306
H        2.28052646       1.29746286       0.70743592
16
Frame=5 idx=007618 GeodesicLength=0.6097297278133563 rxn_smarts="[C:1]([C@@:2]1([H:11])[N:3]([H:12])[C@:4]1([C:5]([C:6](=[O:7])[H:16])([H:14])[H:15])[H:13])([H:8])([H:9])[H:10]>>[C:1]([C@:2]1([H:11])[C@@:4]2([H:13])[N:3]([H:12])[C@:6]([H:16])([C:5]2([H:14])[H:15])[O:7]1)([H:8])([H:9])[H:10]"
C       -1.40061853      -1.18496003       0.76687103
C       -1.02738927      -0.00352555      -0.04136800
N        0.21516410       1.53680027      -0.33982118
C       -0.00949365       0.25403741      -1.04625676
C        1.40641475      -0.19171503      -0.74601795
C        1.38849494       0.68455443       0.54398273
O        0.83785343       0.11376990       1.56125005
H       -0.57617075      -1.82957634       1.04870497
H       -1.89581824      -0.89251685       1.69292448
H       -2.13803743      -1.76720685       0.19612872
H       -1.92212570       0.59565172      -0.23694670
H       -0.51599415       2.14485465       0.00657956
H       -0.34370750       0.29473120      -2.08156650
H        2.11583638       0.22740884      -1.46022745
H        1.56301618      -1.25744854      -0.59775074
H        2.30257543       1.27514077       0.73351373
16
Frame=6 idx=007618 GeodesicLength=0.7312227092224239 rxn_smarts="[C:1]([C@@:2]1([H:11])[N:3]([H:12])[C@:4]1([C:5]([C:6](=[O:7])[H:16])([H:14])[H:15])[H:13])([H:8])([H:9])[H:10]>>[C:1]([C@:2]1([H:11])[C@@:4]2([H:13])[N:3]([H:12])[C@:6]([H:16])([C:5]2([H:14])[H:15])[O:7]1)([H:8])([H:9])[H:10]"
C       -1.41920451      -1.17895148       0.78138003
C       -1.01362076      -0.00170093      -0.01950706
N        0.20080911       1.53653407      -0.34395739
C       -0.00457364       0.24660292      -1.03855437
C        1.42320829      -0.17099213      -0.76124234
C        1.41109134       0.66919921       0.54615161
O        0.85308018       0.06696315       1.54189402
H       -0.61256060      -1.82680236       1.10432402
H       -1.94507023      -0.87980833       1.68875819
H       -2.13908704      -1.76765895       0.19632834
H       -1.91441084       0.58404724      -0.23501336
H       -0.53756744       2.15657427      -0.03888804
H       -0.35099299       0.26575694      -2.07039301
H        2.11806563       0.28771990      -1.46580918
H        1.60532793      -1.23681660      -0.64629345
H        2.32550556       1.24933307       0.76082199
16
Frame=7 idx=007618 GeodesicLength=0.8525059266238553 rxn_smarts="[C:1]([C@@:2]1([H:11])[N:3]([H:12])[C@:4]1([C:5]([C:6](=[O:7])[H:16])([H:14])[H:15])[H:13])([H:8])([H:9])[H:10]>>[C:1]([C@:2]1([H:11])[C@@:4]2([H:13])[N:3]([H:12])[C@:6]([H:16])([C:5]2([H:14])[H:15])[O:7]1)([H:8])([H:9])[H:10]"
C       -1.43781251      -1.17194370       0.79684963
C       -0.99972616      -0.00049805       0.00214327
N        0.18548532       1.53591267      -0.34701845
C        0.00078076       0.23918133      -1.03045144
C        1.44009617      -0.14850432      -0.77705763
C        1.43421966       0.65198110       0.54877776
O        0.86917681       0.01684849       1.52072278
H       -0.65123328      -1.82126740       1.16337994
H       -1.99520647      -0.86434799       1.68291950
H       -2.13862743      -1.76900431       0.19849202
H       -1.90635816       0.57105557      -0.23390609
H       -0.56064323       2.16614021      -0.08749291
H       -0.35727358       0.23656674      -2.05842393
H        2.11885626       0.35114534      -1.46981369
H        1.64892309      -1.21276120      -0.69843568
H        2.34934274       1.21949552       0.78931495
16
Frame=8 idx=007618 GeodesicLength=0.9735447357349033 rxn_smarts="[C:1]([C@@:2]1([H:11])[N:3]([H:12])[C@:4]1([C:5]([C:6](=[O:7])[H:16])([H:14])[H:15])[H:13])([H:8])([H:9])[H:10]>>[C:1]([C@:2]1([H:11])[C@@:4]2([H:13])[N:3]([H:12])[C@:6]([H:16])([C:5]2([H:14])[H:15])[O:7]1)([H:8])([H:9])[H:10]"
C       -1.45633988      -1.16386465       0.81336967
C       -0.98579950       0.00007694       0.02346071
N        0.16908542       1.53496455      -0.34898444
C        0.00656885       0.23185548      -1.02202879
C        1.45694581      -0.12409244      -0.79339352
C        1.45782768       0.63262899       0.55182005
O        0.88597878      -0.03682973       1.49733292
H       -0.69213550      -1.81211888       1.22620710
H       -2.04625692      -0.84611658       1.67509673
H       -2.13620807      -1.77162755       0.20292290
H       -1.89803524       0.55663959      -0.23366584
H       -0.58496211       2.17321115      -0.13922895
H       -0.36243282       0.20720970      -2.04578177
H        2.11810115       0.41779283      -1.47172035
H        1.69355759      -1.18475397      -0.75430262
H        2.37410476       1.18502457       0.81889619
16
Frame=9 idx=007618 GeodesicLength=1.0943324019237783 rxn_smarts="[C:1]([C@@:2]1([H:11])[N:3]([H:12])[C@:4]1([C:5]([C:6](=[O:7])[H:16])([H:14])[H:15])[H:13])([H:8])([H:9])[H:10]>>[C:1]([C@:2]1([H:11])[C@@:4]2([H:13])[N:3]([H:12])[C@:6]([H:16])([C:5]2([H:14])[H:15])[O:7]1)([H:8])([H:9])[H:10]"
C       -1.47463332      -1.15461247       0.83105979
C       -0.97193207       0.00002760       0.04429495
N        0.15147844       1.53370529      -0.34986907
C        0.01277216       0.22474014      -1.01338197
C        1.47356248      -0.09758292      -0.81012995
C        1.48181166       0.61079710       0.55520976
O        0.90324351      -0.09435897       1.47123221
H       -0.73518857      -1.79823721       1.29326141
H       -2.09829505      -0.82513741       1.66479937
H       -2.13110326      -1.77601813       0.21002174
H       -1.88945415       0.54072141      -0.23442198
H       -0.61017156       2.17744900      -0.19398060
H       -0.36635713       0.17778330      -2.03259380
H        2.11561600       0.48777528      -1.47088931
H        1.73886803      -1.15219559      -0.81400277
H        2.39978282       1.14514359       0.84939022
16
Frame=10 idx=007618 GeodesicLength=1.2148221801665173 rxn_smarts="[C:1]([C@@:2]1([H:11])[N:3]([H:12])[C@:4]1([C:5]([C:6](=[O:7])[H:16])([H:14])[H:15])[H:13])([H:8])([H:9])[H:10]>>[C:1]([C@:2]1([H:11])[C@@:4]2([H:13])[N:3]([H:12])[C@:6]([H:16])([C:5]2([H:14])[H:15])[O:7]1)([H:8])([H:9])[H:10]"
C       -1.49257493      -1.14408009       0.85002464
C       -0.95827276      -0.00066308       0.06438844
N        0.13252252       1.53220833      -0.34977721
C        0.01936696       0.21796039      -1.00472693
C        1.48979624      -0.06884251      -0.82714992
C        1.50606829       0.58613031       0.55883178
O        0.92065752      -0.15594234       1.44184999
H       -0.78019732      -1.77823784       1.36485871
H       -2.15137022      -0.80154906       1.65155312
H       -2.12267027      -1.78273758       0.22037588
H       -1.88081746       0.52319458      -0.23634694
H       -0.63588353       2.17854619      -0.25116127
H       -0.36890283       0.14834420      -2.01915261
H        2.11142348       0.56103326      -1.46660530
H        1.78451941      -1.11447352      -0.87751845
H        2.42633490       1.09910876       0.88055608
16
Frame=11 idx=007618 GeodesicLength=1.3349541998507926 rxn_smarts="[C:1]([C@@:2]1([H:11])[N:3]([H:12])[C@:4]1([C:5]([C:6](=[O:7])[H:16])([H:14])[H:15])[H:13])([H:8])([H:9])[H:10]>>[C:1]([C@:2]1([H:11])[C@@:4]2([H:13])[N:3]([H:12])[C@:6]([H:16])([C:5]2([H:14])[H:15])[O:7]1)([H:8])([H:9])[H:10]"
C       -1.50992620      -1.13209537       0.87038041
C       -0.94492947      -0.00199224       0.08340904
N        0.11205707       1.53050768      -0.34891608
C        0.02631445       0.21169325      -0.99630801
C        1.50538401      -0.03774978      -0.84422424
C        1.53034528       0.55813214       0.56252399
O        0.93773438      -0.22184354       1.40849028
H       -0.82682067      -1.75038854       1.44121236
H       -2.20535741      -0.77563089       1.63474465
H       -2.10996902      -1.79231664       0.23481677
H       -1.87221264       0.50389392      -0.23975549
H       -0.66169284       2.17627994      -0.31005633
H       -0.36988539       0.11903664      -2.00575434
H        2.10545075       0.63743398      -1.45795001
H        1.82999853      -1.07090823      -0.94465465
H        2.45350915       1.04594767       0.91204164
16
Frame=12 idx=007618 GeodesicLength=1.454730971796006 rxn_smarts="[C:1]([C@@:2]1([H:11])[N:3]([H:12])[C@:4]1([C:5]([C:6](=[O:7])[H:16])([H:14])[H:15])[H:13])([H:8])([H:9])[H:10]>>[C:1]([C@:2]1([H:11])[C@@:4]2([H:13])[N:3]([H:12])[C@:6]([H:16])([C:5]2([H:14])[H:15])[O:7]1)([H:8])([H:9])[H:10]"
C       -1.52645854      -1.11845347       0.89226035
C       -0.93207552      -0.00395542       0.10094986
N        0.08990866       1.52866513      -0.34752253
C        0.03355141       0.20614631      -0.98845225
C        1.52010547      -0.00422517      -0.86106627
C        1.55437756       0.52622303       0.56611698
O        0.95388643      -0.29230895       1.37039483
H       -0.87457025      -1.71258946       1.52231973
H       -2.26010360      -0.74787549       1.61373225
H       -2.09196508      -1.80531956       0.25447665
H       -1.86382499       0.48256944      -0.24505127
H       -0.68733603       2.17062908      -0.36980094
H       -0.36912089       0.09003445      -1.99281349
H        2.09775503       0.71672018      -1.44387738
H        1.87481112      -1.02082012      -1.01511865
H        2.48105923       0.98456002       0.94345212
16
Frame=13 idx=007618 GeodesicLength=1.5742145070204638 rxn_smarts="[C:1]([C@@:2]1([H:11])[N:3]([H:12])[C@:4]1([C:5]([C:6](=[O:7])[H:16])([H:14])[H:15])[H:13])([H:8])([H:9])[H:10]>>[C:1]([C@:2]1([H:11])[C@@:4]2([H:13])[N:3]([H:12])[C@:6]([H:16])([C:5]2([H:14])[H:15])[O:7]1)([H:8])([H:9])[H:10]"
C       -1.54196097      -1.10292627       0.91581021
C       -0.91994080      -0.00656964       0.11650467
N        0.06587689       1.52676308      -0.34586452
C        0.04101708       0.20154843      -0.98156197
C        1.53380146       0.03177468      -0.87727962
C        1.57783172       0.48970633       0.56943927
O        0.96834680      -0.36758591       1.32671774
H       -0.92275188      -1.66254601       1.60763354
H       -2.31518507      -0.71901311       1.58809407
H       -2.06772572      -1.82214090       0.28092489
H       -1.85591567       0.45886169      -0.25272879
H       -0.71270456       2.16179376      -0.42959674
H       -0.36635916       0.06152203      -1.98085312
H        2.08854870       0.79855349      -1.42308596
H        1.91850845      -0.96352077      -1.08848844
H        2.50861274       0.91377913       0.97433476
16
Frame=14 idx=007618 GeodesicLength=1.6934395950227847 rxn_smarts="[C:1]([C@@:2]1([H:11])[N:3]([H:12])[C@:4]1([C:5]([C:6](=[O:7])[H:16])([H:14])[H:15])[H:13])([H:8])([H:9])[H:10]>>[C:1]([C@:2]1([H:11])[C@@:4]2([H:13])[N:3]([H:12])[C@:6]([H:16])([C:5]2([H:14])[H:15])[O:7]1)([H:8])([H:9])[H:10]"
C       -1.55603868      -1.08520600       0.94104551
C       -0.90872815      -0.00979705       0.12944982
N        0.03968062       1.52486468      -0.34448816
C        0.04862849       0.19814523      -0.97609237
C        1.54624872       0.07019878      -0.89218146
C        1.60011415       0.44782075       0.57231343
O        0.98006566      -0.44771718       1.27663759
H       -0.96993038      -1.59836617       1.69524196
H       -2.36924299      -0.69008431       1.55818775
H       -2.03691888      -1.84226486       0.31597579
H       -1.84871605       0.43240087      -0.26332597
H       -0.73796126       2.15001588      -0.48890497
H       -0.36124797       0.03363258      -1.97044785
H        2.07804276       0.88224170      -1.39398443
H        1.96067337      -0.89831539      -1.16362729
H        2.53533060       0.83243049       1.00420066
16
Frame=15 idx=007618 GeodesicLength=1.812609987080213 rxn_smarts="[C:1]([C@@:2]1([H:11])[N:3]([H:12])[C@:4]1([C:5]([C:6](=[O:7])[H:16])([H:14])[H:15])[H:13])([H:8])([H:9])[H:10]>>[C:1]([C@:2]1([H:11])[C@@:4]2([H:13])[N:3]([H:12])[C@:6]([H:16])([C:5]2([H:14])[H:15])[O:7]1)([H:8])([H:9])[H:10]"
C       -1.56832770      -1.06503284       0.96786557
C       -0.89867051      -0.01360407       0.13917745
N        0.01094402       1.52304897      -0.34411299
C        0.05632634       0.19610864      -0.97248590
C        1.55736040       0.11093000      -0.90485077
C        1.62059037       0.39993129       0.57458037
O        0.98786852      -0.53231390       1.21950868
H       -1.01412626      -1.51935664       1.78193607
H       -2.42027590      -0.66209367       1.52555779
H       -2.00026545      -1.86425221       0.36129540
H       -1.84250202       0.40273664      -0.27728484
H       -0.76353583       2.13560057      -0.54775944
H       -0.35332458       0.00626784      -1.96216079
H        2.06653425       0.96690657      -1.35477234
H        2.00114695      -0.82455518      -1.23896235
H        2.56025741       0.73967800       1.03246808
16
Frame=16 idx=007618 GeodesicLength=1.9320815651164107 rxn_smarts="[C:1]([C@@:2]1([H:11])[N:3]([H:12])[C@:4]1([C:5]([C:6](=[O:7])[H:16])([H:14])[H:15])[H:13])([H:8])([H:9])[H:10]>>[C:1]([C@:2]1([H:11])[C@@:4]2([H:13])[N:3]([H:12])[C@:6]([H:16])([C:5]2([H:14])[H:15])[O:7]1)([H:8])([H:9])[H:10]"
C       -1.57840675      -1.04225673       0.99600972
C       -0.88991003      -0.01788341       0.14524550
N       -0.02078341       1.52143708      -0.34574973
C        0.06406341       0.19554323      -0.97109603
C        1.56708861       0.15377666      -0.91415604
C        1.63863848       0.34571160       0.57603459
O        0.99063127      -0.62033875       1.15504307
H       -1.05286426      -1.42658368       1.86385286
H       -2.46597700      -0.63570068       1.49284361
H       -1.95945246      -1.88580620       0.41762712
H       -1.83744596       0.36945861      -0.29480032
H       -0.79008158       2.11877627      -0.60676789
H       -0.34205054      -0.02090812      -1.95641777
H        2.05415006       1.05139448      -1.30370412
H        2.03997260      -0.74169199      -1.31229748
H        2.58242757       0.63507162       1.05833291
