12
Frame=0 idx=001653 GeodesicLength=0.0 rxn_smarts="[O:1]([N:2]=[C:3]1[C:4]([H:8])([H:9])[N:5]([H:10])[C:6]1([H:11])[H:12])[H:7]>>[O-:1][N:2]([C+:3]1[C:4]([H:8])([H:9])[N:5]([H:10])[C:6]1([H:11])[H:12])[H:7]"
O        2.28571620      -0.91134169       1.11433184
N        1.57242166       0.19377695       0.66798214
C        0.41778531       0.12814493       0.18235515
C       -0.57500139       1.12409345      -0.34409954
N       -1.57148744       0.02449481      -0.36952739
C       -0.54579807      -1.00015105      -0.04111453
H        2.59699208       0.34134668       1.08728195
H       -0.29988165       1.52812776      -1.32388123
H       -0.83630168       1.94740130       0.32355080
H       -2.01303966      -0.10733420      -1.26743207
H       -0.25248110      -1.65997600      -0.86390151
H       -0.77892422      -1.60858294       0.83445438
12
Frame=1 idx=001653 GeodesicLength=0.03719055236224717 rxn_smarts="[O:1]([N:2]=[C:3]1[C:4]([H:8])([H:9])[N:5]([H:10])[C:6]1([H:11])[H:12])[H:7]>>[O-:1][N:2]([C+:3]1[C:4]([H:8])([H:9])[N:5]([H:10])[C:6]1([H:11])[H:12])[H:7]"
O        2.27604001      -0.90621729       1.12533742
N        1.58833113       0.18909012       0.63072422
C        0.42182136       0.12569676       0.17266006
C       -0.57378896       1.12348542      -0.34515787
N       -1.57179886       0.02489715      -0.36408139
C       -0.54463332      -1.00109226      -0.04408301
H        2.59113684       0.34584152       1.12100189
H       -0.30748815       1.52864883      -1.32694800
H       -0.82886032       1.94624081       0.32574267
H       -2.01983256      -0.10574665      -1.25903238
H       -0.26002580      -1.66149150      -0.86961124
H       -0.77090137      -1.60935291       0.83344762
12
Frame=2 idx=001653 GeodesicLength=0.0741330199906246 rxn_smarts="[O:1]([N:2]=[C:3]1[C:4]([H:8])([H:9])[N:5]([H:10])[C:6]1([H:11])[H:12])[H:7]>>[O-:1][N:2]([C+:3]1[C:4]([H:8])([H:9])[N:5]([H:10])[C:6]1([H:11])[H:12])[H:7]"
O        2.26895602      -0.90117928       1.13048531
N        1.60093797       0.18430353       0.60051898
C        0.42448144       0.12345847       0.16674202
C       -0.57239135       1.12279547      -0.34547030
N       -1.57172894       0.02522419      -0.36035561
C       -0.54409862      -1.00187121      -0.04567763
H        2.58456663       0.35049318       1.14775909
H       -0.31210448       1.52888973      -1.32853369
H       -0.82310809       1.94502618       0.32770073
H       -2.02363563      -0.10442878      -1.25349677
H       -0.26585889      -1.66289470      -0.87290373
H       -0.76601606      -1.60981678       0.83323160
12
Frame=3 idx=001653 GeodesicLength=0.11105586896603284 rxn_smarts="[O:1]([N:2]=[C:3]1[C:4]([H:8])([H:9])[N:5]([H:10])[C:6]1([H:11])[H:12])[H:7]>>[O-:1][N:2]([C+:3]1[C:4]([H:8])([H:9])[N:5]([H:10])[C:6]1([H:11])[H:12])[H:7]"
O        2.26195080      -0.89572289       1.13608458
N        1.61157825       0.17937170       0.57458263
C        0.42665328       0.12116527       0.16231573
C       -0.57096502       1.12211634      -0.34530639
N       -1.57152031       0.02548970      -0.35745013
C       -0.54373956      -1.00274822      -0.04699349
H        2.57923322       0.35515978       1.16815122
H       -0.31549817       1.52930600      -1.32921773
H       -0.81816013       1.94374470       0.32987650
H       -2.02628783      -0.10304904      -1.24929204
H       -0.27086209      -1.66424797      -0.87562147
H       -0.76238244      -1.61058538       0.83287059
12
Frame=4 idx=001653 GeodesicLength=0.1479575466344562 rxn_smarts="[O:1]([N:2]=[C:3]1[C:4]([H:8])([H:9])[N:5]([H:10])[C:6]1([H:11])[H:12])[H:7]>>[O-:1][N:2]([C+:3]1[C:4]([H:8])([H:9])[N:5]([H:10])[C:6]1([H:11])[H:12])[H:7]"
O        2.25593076      -0.89027589       1.13921022
N        1.62044897       0.17460504       0.55260722
C        0.42814576       0.11903067       0.15970158
C       -0.56959558       1.12143790      -0.34477463
N       -1.57128493       0.02569700      -0.35548587
C       -0.54371704      -1.00356132      -0.04773190
H        2.57491869       0.35965818       1.18483230
H       -0.31757685       1.52958168      -1.32919637
H       -0.81427992       1.94254972       0.33200764
H       -2.02766659      -0.10189973      -1.24665589
H       -0.27499153      -1.66564451      -0.87732306
H       -0.76033172      -1.61117875       0.83280877
12
Frame=5 idx=001653 GeodesicLength=0.1847872327061657 rxn_smarts="[O:1]([N:2]=[C:3]1[C:4]([H:8])([H:9])[N:5]([H:10])[C:6]1([H:11])[H:12])[H:7]>>[O-:1][N:2]([C+:3]1[C:4]([H:8])([H:9])[N:5]([H:10])[C:6]1([H:11])[H:12])[H:7]"
O        2.25102008      -0.88519961       1.14019144
N        1.62806109       0.17019758       0.53320198
C        0.42919272       0.11708691       0.15818766
C       -0.56833321       1.12081462      -0.34413828
N       -1.57105391       0.02587600      -0.35410225
C       -0.54387392      -1.00428933      -0.04802845
H        2.57111352       0.36377837       1.19985272
H       -0.31893982       1.52981265      -1.32889535
H       -0.81118075       1.94148699       0.33387250
H       -2.02829053      -0.10091981      -1.24495668
H       -0.27852306      -1.66701360      -0.87824003
H       -0.75919219      -1.61163077       0.83305474
12
Frame=6 idx=001653 GeodesicLength=0.22167290808543993 rxn_smarts="[O:1]([N:2]=[C:3]1[C:4]([H:8])([H:9])[N:5]([H:10])[C:6]1([H:11])[H:12])[H:7]>>[O-:1][N:2]([C+:3]1[C:4]([H:8])([H:9])[N:5]([H:10])[C:6]1([H:11])[H:12])[H:7]"
O        2.24651463      -0.88012321       1.14055025
N        1.63484078       0.16589772       0.51545238
C        0.42998303       0.11521584       0.15733493
C       -0.56712220       1.12019898      -0.34337690
N       -1.57083726       0.02602148      -0.35307812
C       -0.54415476      -1.00499428      -0.04814067
H        2.56799220       0.36774107       1.21321668
H       -0.31984111       1.53003394      -1.32834941
H       -0.80853610       1.94044169       0.33570354
H       -2.02847719      -0.10001177      -1.24384924
H       -0.28171357      -1.66834631      -0.87882992
H       -0.75864844      -1.61207516       0.83336648
12
Frame=7 idx=001653 GeodesicLength=0.25857699863245664 rxn_smarts="[O:1]([N:2]=[C:3]1[C:4]([H:8])([H:9])[N:5]([H:10])[C:6]1([H:11])[H:12])[H:7]>>[O-:1][N:2]([C+:3]1[C:4]([H:8])([H:9])[N:5]([H:10])[C:6]1([H:11])[H:12])[H:7]"
O        2.24243196      -0.87509050       1.14013386
N        1.64096262       0.16170910       0.49897681
C        0.43059578       0.11341546       0.15695719
C       -0.56594558       1.11959631      -0.34255861
N       -1.57062351       0.02615547      -0.35229559
C       -0.54451022      -1.00566772      -0.04809420
H        2.56523710       0.37152883       1.22564019
H       -0.32041757       1.53021023      -1.32767619
H       -0.80621606       1.93945031       0.33744047
H       -2.02835977      -0.09916795      -1.24313470
H       -0.28464251      -1.66965392      -0.87914460
H       -0.75851223      -1.61248562       0.83375539
12
Frame=8 idx=001653 GeodesicLength=0.29549275120698526 rxn_smarts="[O:1]([N:2]=[C:3]1[C:4]([H:8])([H:9])[N:5]([H:10])[C:6]1([H:11])[H:12])[H:7]>>[O-:1][N:2]([C+:3]1[C:4]([H:8])([H:9])[N:5]([H:10])[C:6]1([H:11])[H:12])[H:7]"
O        2.23854686      -0.86999898       1.13944232
N        1.64660421       0.15753054       0.48338404
C        0.43112287       0.11163408       0.15683659
C       -0.56477105       1.11899179      -0.34169829
N       -1.57040576       0.02628343      -0.35164252
C       -0.54490625      -1.00633511      -0.04798554
H        2.56278073       0.37525313       1.23728178
H       -0.32078523       1.53035847      -1.32691682
H       -0.80405576       1.93847367       0.33914178
H       -2.02808084      -0.09834059      -1.24262903
H       -0.28743066      -1.67093227      -0.87935264
H       -0.75861914      -1.61291816       0.83413833
12
Frame=9 idx=001653 GeodesicLength=0.33240859880245877 rxn_smarts="[O:1]([N:2]=[C:3]1[C:4]([H:8])([H:9])[N:5]([H:10])[C:6]1([H:11])[H:12])[H:7]>>[O-:1][N:2]([C+:3]1[C:4]([H:8])([H:9])[N:5]([H:10])[C:6]1([H:11])[H:12])[H:7]"
O        2.23476609      -0.86479681       1.13872824
N        1.65187119       0.15329318       0.46843419
C        0.43162574       0.10983203       0.15681414
C       -0.56357314       1.11837505      -0.34081491
N       -1.57017732       0.02641453      -0.35103938
C       -0.54532210      -1.00701304      -0.04787482
H        2.56052694       0.37900173       1.24831891
H       -0.32102120       1.53048401      -1.32610874
H       -0.80193273       1.93749172       0.34083102
H       -2.02773944      -0.09749438      -1.24219945
H       -0.29016682      -1.67218464      -0.87955654
H       -0.75885720      -1.61340339       0.83446735
12
Frame=10 idx=001653 GeodesicLength=0.3693421510026003 rxn_smarts="[O:1]([N:2]=[C:3]1[C:4]([H:8])([H:9])[N:5]([H:10])[C:6]1([H:11])[H:12])[H:7]>>[O-:1][N:2]([C+:3]1[C:4]([H:8])([H:9])[N:5]([H:10])[C:6]1([H:11])[H:12])[H:7]"
O        2.23100665      -0.85940957       1.13843192
N        1.65695304       0.14885513       0.45387027
C        0.43221435       0.10794202       0.15666605
C       -0.56234554       1.11774903      -0.33994404
N       -1.56997484       0.02658204      -0.35039043
C       -0.54572279      -1.00773262      -0.04784521
H        2.55839923       0.38287436       1.25892259
H       -0.32125794       1.53062077      -1.32534997
H       -0.79973110       1.93649629       0.34256860
H       -2.02752998      -0.09654703      -1.24171585
H       -0.29294703      -1.67343540      -0.87993184
H       -0.75906404      -1.61399502       0.83471790
12
Frame=11 idx=001653 GeodesicLength=0.4062373426666207 rxn_smarts="[O:1]([N:2]=[C:3]1[C:4]([H:8])([H:9])[N:5]([H:10])[C:6]1([H:11])[H:12])[H:7]>>[O-:1][N:2]([C+:3]1[C:4]([H:8])([H:9])[N:5]([H:10])[C:6]1([H:11])[H:12])[H:7]"
O        2.22766620      -0.85417873       1.13673643
N        1.66156632       0.14472730       0.43999043
C        0.43268305       0.10618950       0.15681423
C       -0.56109616       1.11712298      -0.33906915
N       -1.56968617       0.02670489      -0.34988227
C       -0.54616241      -1.00837109      -0.04762767
H        2.55606451       0.38645671       1.26966025
H       -0.32126727       1.53065380      -1.32450419
H       -0.79767537       1.93555057       0.34412105
H       -2.02699817      -0.09578084      -1.24140671
H       -0.29558105      -1.67467187      -0.87992553
H       -0.75951347      -1.61440322       0.83509311
12
Frame=12 idx=001653 GeodesicLength=0.443132064026174 rxn_smarts="[O:1]([N:2]=[C:3]1[C:4]([H:8])([H:9])[N:5]([H:10])[C:6]1([H:11])[H:12])[H:7]>>[O-:1][N:2]([C+:3]1[C:4]([H:8])([H:9])[N:5]([H:10])[C:6]1([H:11])[H:12])[H:7]"
O        2.22427607      -0.84870868       1.13585188
N        1.66609154       0.14028011       0.42628808
C        0.43327161       0.10429631       0.15672094
C       -0.55982109       1.11648877      -0.33821277
N       -1.56943948       0.02687780      -0.34928983
C       -0.54658122      -1.00908095      -0.04754773
H        2.55390893       0.39027442       1.27996755
H       -0.32134772       1.53074685      -1.32373238
H       -0.79548714       1.93456889       0.34577851
H       -2.02668126      -0.09485209      -1.24098701
H       -0.29832069      -1.67592066      -0.88019085
H       -0.75986954      -1.61497078       0.83535363
12
Frame=13 idx=001653 GeodesicLength=0.48007334752690767 rxn_smarts="[O:1]([N:2]=[C:3]1[C:4]([H:8])([H:9])[N:5]([H:10])[C:6]1([H:11])[H:12])[H:7]>>[O-:1][N:2]([C+:3]1[C:4]([H:8])([H:9])[N:5]([H:10])[C:6]1([H:11])[H:12])[H:7]"
O        2.22104490      -0.84320144       1.13432478
N        1.67029690       0.13593670       0.41299849
C        0.43380109       0.10246134       0.15674520
C       -0.55850697       1.11583322      -0.33733724
N       -1.56913766       0.02701994      -0.34877778
C       -0.54703119      -1.00975375      -0.04739204
H        2.55170874       0.39397716       1.29022044
H       -0.32128829       1.53078632      -1.32286557
H       -0.79332158       1.93356574       0.34737253
H       -2.02618693      -0.09401410      -1.24065951
H       -0.30101200      -1.67716502      -0.88027543
H       -0.76036704      -1.61544612       0.83564612
12
Frame=14 idx=001653 GeodesicLength=0.5169811853815145 rxn_smarts="[O:1]([N:2]=[C:3]1[C:4]([H:8])([H:9])[N:5]([H:10])[C:6]1([H:11])[H:12])[H:7]>>[O-:1][N:2]([C+:3]1[C:4]([H:8])([H:9])[N:5]([H:10])[C:6]1([H:11])[H:12])[H:7]"
O        2.21825058      -0.83783849       1.13210547
N        1.67427509       0.13171013       0.40008622
C        0.43427531       0.10069835       0.15693678
C       -0.55725752       1.11521778      -0.33648953
N       -1.56886888       0.02717311      -0.34838001
C       -0.54749792      -1.01038639      -0.04711256
H        2.54952672       0.39743423       1.30060946
H       -0.32117597       1.53083868      -1.32204235
H       -0.79137264       1.93263573       0.34888007
H       -2.02558551      -0.09322817      -1.24053344
H       -0.30357182      -1.67843264      -0.88016453
H       -0.76099741      -1.61582232       0.83610443
12
Frame=15 idx=001653 GeodesicLength=0.553883577841306 rxn_smarts="[O:1]([N:2]=[C:3]1[C:4]([H:8])([H:9])[N:5]([H:10])[C:6]1([H:11])[H:12])[H:7]>>[O-:1][N:2]([C+:3]1[C:4]([H:8])([H:9])[N:5]([H:10])[C:6]1([H:11])[H:12])[H:7]"
O        2.21568771      -0.83247720       1.12949318
N        1.67805657       0.12752500       0.38742246
C        0.43473701       0.09896500       0.15717285
C       -0.55601508       1.11461038      -0.33565473
N       -1.56859582       0.02732721      -0.34803280
C       -0.54797246      -1.01099802      -0.04677741
H        2.54731093       0.40076269       1.31106002
H       -0.32102132       1.53088953      -1.32122207
H       -0.78948637       1.93172181       0.35034399
H       -2.02491613      -0.09247266      -1.24048533
H       -0.30609212      -1.67971424      -0.87995041
H       -0.76169292      -1.61613951       0.83663025
12
Frame=16 idx=001653 GeodesicLength=0.5907843116092151 rxn_smarts="[O:1]([N:2]=[C:3]1[C:4]([H:8])([H:9])[N:5]([H:10])[C:6]1([H:11])[H:12])[H:7]>>[O-:1][N:2]([C+:3]1[C:4]([H:8])([H:9])[N:5]([H:10])[C:6]1([H:11])[H:12])[H:7]"
O        2.21338208      -0.82713750       1.12641802
N        1.68165758       0.12340926       0.37497151
C        0.43519011       0.09727303       0.15744690
C       -0.55478206       1.11401565      -0.33484229
N       -1.56831740       0.02748196      -0.34772842
C       -0.54844825      -1.01158282      -0.04637830
H        2.54500780       0.40392285       1.32167031
H       -0.32083461       1.53093524      -1.32042066
H       -0.78766363       1.93083573       0.35174858
H       -2.02418303      -0.09175881      -1.24050366
H       -0.30857283      -1.68101049      -0.87962187
H       -0.76243575      -1.61638409       0.83723987
