14
Frame=0 idx=001381 GeodesicLength=0.0 rxn_smarts="[C:1]([C:2](=[O:3])[C:4]1([H:10])[C:5]([H:11])([H:12])[C:6]1([H:13])[H:14])([H:7])([H:8])[H:9]>>[C:1](=[C:2]=[O:3])([H:7])[H:9].[C:4]1([H:8])([H:10])[C:5]([H:11])([H:12])[C:6]1([H:13])[H:14]"
C       -2.13869305       0.27771817       0.44306848
C       -0.91848485       0.88798215       0.21533038
O       -0.37302797       1.91104680       0.55290967
C        0.12424469      -0.34471340      -0.41984750
C        1.47175263       0.24634890      -0.74325022
C        1.41458769      -0.76660350       0.31831502
H       -2.40129598      -0.60209571      -0.12771978
H       -0.66552483      -0.43748373       0.62681442
H       -2.92801621       0.81173608       0.95786037
H       -0.30762107      -1.03056949      -1.13709011
H        1.57652340       1.28476936      -0.45341100
H        1.87863949      -0.03611452      -1.70516602
H        1.76773992      -1.77120929       0.12783907
H        1.49917618      -0.43081178       1.34434725
14
Frame=1 idx=001381 GeodesicLength=0.10285117124645361 rxn_smarts="[C:1]([C:2](=[O:3])[C:4]1([H:10])[C:5]([H:11])([H:12])[C:6]1([H:13])[H:14])([H:7])([H:8])[H:9]>>[C:1](=[C:2]=[O:3])([H:7])[H:9].[C:4]1([H:8])([H:10])[C:5]([H:11])([H:12])[C:6]1([H:13])[H:14]"
C       -2.14594984       0.28131376       0.44513263
C       -0.92531659       0.89672369       0.22349987
O       -0.38224357       1.91529422       0.57269451
C        0.13041569      -0.35791948      -0.40700443
C        1.46890247       0.24334325      -0.74888940
C        1.42951526      -0.76674484       0.31788294
H       -2.41903453      -0.56770084      -0.16653454
H       -0.68325833      -0.46166340       0.63877480
H       -2.93728445       0.81714276       0.95497178
H       -0.29745248      -1.05061535      -1.12051820
H        1.57727558       1.28216598      -0.46231614
H        1.86719334      -0.03775145      -1.71478591
H        1.79268519      -1.76747513       0.12576582
H        1.52455227      -0.42611316       1.34132627
14
Frame=2 idx=001381 GeodesicLength=0.20556051955893395 rxn_smarts="[C:1]([C:2](=[O:3])[C:4]1([H:10])[C:5]([H:11])([H:12])[C:6]1([H:13])[H:14])([H:7])([H:8])[H:9]>>[C:1](=[C:2]=[O:3])([H:7])[H:9].[C:4]1([H:8])([H:10])[C:5]([H:11])([H:12])[C:6]1([H:13])[H:14]"
C       -2.15322092       0.28497354       0.44599706
C       -0.93232717       0.90610777       0.23121578
O       -0.39157079       1.91958676       0.59320627
C        0.13672484      -0.37118518      -0.39395745
C        1.46585515       0.24013539      -0.75444889
C        1.44441138      -0.76680482       0.31747815
H       -2.43512464      -0.53232735      -0.20429170
H       -0.70191682      -0.48649693       0.65005286
H       -2.94630276       0.82172114       0.95237104
H       -0.28712855      -1.07060952      -1.10377563
H        1.57790577       1.27941047      -0.47143046
H        1.85541230      -0.03980977      -1.72422664
H        1.81747173      -1.76357936       0.12367308
H        1.54981046      -0.42112215       1.33813652
14
Frame=3 idx=001381 GeodesicLength=0.308176534192054 rxn_smarts="[C:1]([C:2](=[O:3])[C:4]1([H:10])[C:5]([H:11])([H:12])[C:6]1([H:13])[H:14])([H:7])([H:8])[H:9]>>[C:1](=[C:2]=[O:3])([H:7])[H:9].[C:4]1([H:8])([H:10])[C:5]([H:11])([H:12])[C:6]1([H:13])[H:14]"
C       -2.16043385       0.28872221       0.44580295
C       -0.93949692       0.91619605       0.23848944
O       -0.40100598       1.92391790       0.61449877
C        0.14317594      -0.38449830      -0.38066455
C        1.46259808       0.23672828      -0.75992628
C        1.45929988      -0.76678372       0.31708783
H       -2.44960729      -0.49614927      -0.24089726
H       -0.72153238      -0.51204227       0.66060062
H       -2.95512969       0.82557515       0.94981334
H       -0.27665376      -1.09051159      -1.08684322
H        1.57841160       1.27650077      -0.48075429
H        1.84325815      -0.04228158      -1.73349402
H        1.84210874      -1.75952635       0.12152664
H        1.57500750      -0.41584729       1.33476004
14
Frame=4 idx=001381 GeodesicLength=0.41075259941755066 rxn_smarts="[C:1]([C:2](=[O:3])[C:4]1([H:10])[C:5]([H:11])([H:12])[C:6]1([H:13])[H:14])([H:7])([H:8])[H:9]>>[C:1](=[C:2]=[O:3])([H:7])[H:9].[C:4]1([H:8])([H:10])[C:5]([H:11])([H:12])[C:6]1([H:13])[H:14]"
C       -2.16751334       0.29258063       0.44465864
C       -0.94681719       0.92704612       0.24530967
O       -0.41056123       1.92827721       0.63658863
C        0.14977518      -0.39784763      -0.36708822
C        1.45912223       0.23312691      -0.76531164
C        1.47419866      -0.76667945       0.31670562
H       -2.46253282      -0.45932181      -0.27626457
H       -0.74214682      -0.53838292       0.67034615
H       -2.96378789       0.82881569       0.94714499
H       -0.26601824      -1.11028490      -1.06971530
H        1.57879029       1.27343694      -0.49028006
H        1.83070445      -0.04515669      -1.74258262
H        1.86660361      -1.75531713       0.11930227
H        1.60018309      -0.41029298       1.33118644
14
Frame=5 idx=001381 GeodesicLength=0.5132999898601638 rxn_smarts="[C:1]([C:2](=[O:3])[C:4]1([H:10])[C:5]([H:11])([H:12])[C:6]1([H:13])[H:14])([H:7])([H:8])[H:9]>>[C:1](=[C:2]=[O:3])([H:7])[H:9].[C:4]1([H:8])([H:10])[C:5]([H:11])([H:12])[C:6]1([H:13])[H:14]"
C       -2.17439795       0.29657670       0.44265249
C       -0.95427517       0.93872969       0.25163849
O       -0.42026250       1.93267397       0.65944662
C        0.15652691      -0.41121684      -0.35319479
C        1.45542816       0.22933196      -0.77058989
C        1.48911484      -0.76648843       0.31633639
H       -2.47396577      -0.42196225      -0.31035776
H       -0.76380598      -0.56557847       0.67918191
H       -2.97225411       0.83146395       0.94433607
H       -0.25521515      -1.12989163      -1.05238425
H        1.57905849       1.27021598      -0.50000001
H        1.81773879      -0.04843991      -1.75147778
H        1.89094995      -1.75095598       0.11699677
H        1.62535950      -0.40445874       1.32741574
14
Frame=6 idx=001381 GeodesicLength=0.6158796983168249 rxn_smarts="[C:1]([C:2](=[O:3])[C:4]1([H:10])[C:5]([H:11])([H:12])[C:6]1([H:13])[H:14])([H:7])([H:8])[H:9]>>[C:1](=[C:2]=[O:3])([H:7])[H:9].[C:4]1([H:8])([H:10])[C:5]([H:11])([H:12])[C:6]1([H:13])[H:14]"
C       -2.18100641       0.30072112       0.43991252
C       -0.96186474       0.95131440       0.25745471
O       -0.43012342       1.93711955       0.68305832
C        0.16344114      -0.42459095      -0.33895558
C        1.45151189       0.22534799      -0.77574589
C        1.50405992      -0.76620567       0.31597965
H       -2.48398588      -0.38420688      -0.34310987
H       -0.78656294      -0.59372558       0.68700147
H       -2.98051791       0.83360207       0.94128327
H       -0.24423233      -1.14930007      -1.03485031
H        1.57921999       1.26683687      -0.50990524
H        1.80435111      -0.05212465      -1.76016266
H        1.91514908      -1.74644248       0.11459749
H        1.65056050      -0.39834572       1.32344213
14
Frame=7 idx=001381 GeodesicLength=0.7185141483607052 rxn_smarts="[C:1]([C:2](=[O:3])[C:4]1([H:10])[C:5]([H:11])([H:12])[C:6]1([H:13])[H:14])([H:7])([H:8])[H:9]>>[C:1](=[C:2]=[O:3])([H:7])[H:9].[C:4]1([H:8])([H:10])[C:5]([H:11])([H:12])[C:6]1([H:13])[H:14]"
C       -2.18725038       0.30501872       0.43654720
C       -0.96958122       0.96488627       0.26271365
O       -0.44018393       1.94164308       0.70733126
C        0.17052305      -0.43794647      -0.32434167
C        1.44738233       0.22117534      -0.78075315
C        1.51903645      -0.76582559       0.31564986
H       -2.49268178      -0.34615050      -0.37446382
H       -0.81048251      -0.62292703       0.69362375
H       -2.98853731       0.83524359       0.93801766
H       -0.23305593      -1.16846110      -1.01712831
H        1.57930280       1.26329538      -0.51998317
H        1.79054840      -0.05621848      -1.76860545
H        1.93918779      -1.74178090       0.11211597
H        1.67579225      -0.39195231       1.31927624
14
Frame=8 idx=001381 GeodesicLength=0.8212478042378334 rxn_smarts="[C:1]([C:2](=[O:3])[C:4]1([H:10])[C:5]([H:11])([H:12])[C:6]1([H:13])[H:14])([H:7])([H:8])[H:9]>>[C:1](=[C:2]=[O:3])([H:7])[H:9].[C:4]1([H:8])([H:10])[C:5]([H:11])([H:12])[C:6]1([H:13])[H:14]"
C       -2.19304533       0.30948826       0.43262636
C       -0.97742963       0.97952927       0.26735055
O       -0.45048289       1.94629037       0.73214660
C        0.17777675      -0.45126224      -0.30933974
C        1.44304700       0.21681729      -0.78558145
C        1.53403068      -0.76534227       0.31536662
H       -2.50014192      -0.30788229      -0.40433928
H       -0.83565261      -0.65330172       0.69884870
H       -2.99620211       0.83637969       0.93463455
H       -0.22166377      -1.18733880      -0.99924532
H        1.57932738       1.25958856      -0.53021193
H        1.77635710      -0.06072196      -1.77676448
H        1.96304718      -1.73697201       0.10957334
H        1.70103216      -0.38527215       1.31493549
14
Frame=9 idx=001381 GeodesicLength=0.9237123666695553 rxn_smarts="[C:1]([C:2](=[O:3])[C:4]1([H:10])[C:5]([H:11])([H:12])[C:6]1([H:13])[H:14])([H:7])([H:8])[H:9]>>[C:1](=[C:2]=[O:3])([H:7])[H:9].[C:4]1([H:8])([H:10])[C:5]([H:11])([H:12])[C:6]1([H:13])[H:14]"
C       -2.19821814       0.31407778       0.42836250
C       -0.98546254       0.99537615       0.27119941
O       -0.46116001       1.95119521       0.75709334
C        0.18516157      -0.46454482      -0.29386414
C        1.43849865       0.21223740      -0.79014734
C        1.54899735      -0.76475684       0.31522642
H       -2.50652743      -0.26928084      -0.43290970
H       -0.86200708      -0.68492398       0.70210066
H       -3.00331428       0.83678324       0.93171849
H       -0.21001429      -1.20582881      -0.98129490
H        1.57933686       1.25567910      -0.54055431
H        1.76181276      -0.06569899      -1.78453053
H        1.98666687      -1.73203617       0.10710245
H        1.72622970      -0.37827843       1.31049765
14
Frame=10 idx=001381 GeodesicLength=1.0262422994594629 rxn_smarts="[C:1]([C:2](=[O:3])[C:4]1([H:10])[C:5]([H:11])([H:12])[C:6]1([H:13])[H:14])([H:7])([H:8])[H:9]>>[C:1](=[C:2]=[O:3])([H:7])[H:9].[C:4]1([H:8])([H:10])[C:5]([H:11])([H:12])[C:6]1([H:13])[H:14]"
C       -2.20274091       0.31884412       0.42376579
C       -0.99363414       1.01249617       0.27428204
O       -0.47215740       1.95638239       0.78223373
C        0.19271759      -0.47773673      -0.27796973
C        1.43377772       0.20746914      -0.79445387
C        1.56394591      -0.76406137       0.31519780
H       -2.51194031      -0.23063837      -0.45983608
H       -0.88975044      -0.71791898       0.70335725
H       -3.00986573       0.83658149       0.92899722
H       -0.19809997      -1.22393049      -0.96326608
H        1.57936926       1.25158409      -0.55100197
H        1.74695954      -0.07110435      -1.79190470
H        2.01004432      -1.72697196       0.10465551
H        1.75137456      -0.37099517       1.30594310
14
Frame=11 idx=001381 GeodesicLength=1.128783953161734 rxn_smarts="[C:1]([C:2](=[O:3])[C:4]1([H:10])[C:5]([H:11])([H:12])[C:6]1([H:13])[H:14])([H:7])([H:8])[H:9]>>[C:1](=[C:2]=[O:3])([H:7])[H:9].[C:4]1([H:8])([H:10])[C:5]([H:11])([H:12])[C:6]1([H:13])[H:14]"
C       -2.20651819       0.32378063       0.41895983
C       -1.00194215       1.03099068       0.27654627
O       -0.48351808       1.96194778       0.80737495
C        0.20044242      -0.49081709      -0.26163478
C        1.42889817       0.20250527      -0.79846286
C        1.57885681      -0.76325062       0.31532095
H       -2.51654274      -0.19199227      -0.48507368
H       -0.91891928      -0.75236843       0.70227866
H       -3.01574572       0.83568061       0.92665597
H       -0.18589932      -1.24160054      -0.94518392
H        1.57946928       1.24728976      -0.56154061
H        1.73183329      -0.07695857      -1.79883539
H        2.03314711      -1.72178889       0.10229040
H        1.77643841      -0.36341831       1.30130421
14
Frame=12 idx=001381 GeodesicLength=1.2313481087105023 rxn_smarts="[C:1]([C:2](=[O:3])[C:4]1([H:10])[C:5]([H:11])([H:12])[C:6]1([H:13])[H:14])([H:7])([H:8])[H:9]>>[C:1](=[C:2]=[O:3])([H:7])[H:9].[C:4]1([H:8])([H:10])[C:5]([H:11])([H:12])[C:6]1([H:13])[H:14]"
C       -2.20942597       0.32887333       0.41405786
C       -1.01040296       1.05094621       0.27794237
O       -0.49527471       1.96800444       0.83228579
C        0.20833247      -0.50377199      -0.24484676
C        1.42387260       0.19734463      -0.80213150
C        1.59370673      -0.76231907       0.31564100
H       -2.52051110      -0.15336586      -0.50855849
H       -0.94958344      -0.78840363       0.69849618
H       -3.02080867       0.83401462       0.92491404
H       -0.17338624      -1.25881225      -0.92708110
H        1.57966597       1.24278584      -0.57215019
H        1.71648078      -0.08326819      -1.80526543
H        2.05595469      -1.71649065       0.10007201
H        1.80137985      -0.35553743       1.29662421
14
Frame=13 idx=001381 GeodesicLength=1.3339256886735054 rxn_smarts="[C:1]([C:2](=[O:3])[C:4]1([H:10])[C:5]([H:11])([H:12])[C:6]1([H:13])[H:14])([H:7])([H:8])[H:9]>>[C:1](=[C:2]=[O:3])([H:7])[H:9].[C:4]1([H:8])([H:10])[C:5]([H:11])([H:12])[C:6]1([H:13])[H:14]"
C       -2.21135433       0.33410968       0.40919877
C       -1.01901390       1.07250029       0.27839414
O       -0.50745261       1.97471099       0.85670371
C        0.21637595      -0.51657697      -0.22760476
C        1.41872921       0.19197604      -0.80541384
C        1.60845692      -0.76126549       0.31621507
H       -2.52401907      -0.11480416      -0.53017367
H       -0.98179781      -0.82610462       0.69152591
H       -3.02493995       0.83142717       0.92405799
H       -0.16053845      -1.27552255      -0.90900450
H        1.58002649       1.23805082      -0.58281547
H        1.70097092      -0.09006114      -1.81113097
H        2.07842235      -1.71109039       0.09808901
H        1.82613429      -0.34734966       1.29195862
14
Frame=14 idx=001381 GeodesicLength=1.436461608668906 rxn_smarts="[C:1]([C:2](=[O:3])[C:4]1([H:10])[C:5]([H:11])([H:12])[C:6]1([H:13])[H:14])([H:7])([H:8])[H:9]>>[C:1](=[C:2]=[O:3])([H:7])[H:9].[C:4]1([H:8])([H:10])[C:5]([H:11])([H:12])[C:6]1([H:13])[H:14]"
C       -2.21218384       0.33946258       0.40449719
C       -1.02780342       1.09573989       0.27782410
O       -0.52007473       1.98224545       0.88031644
C        0.22455250      -0.52923129      -0.20990892
C        1.41348288       0.18639308      -0.80825359
C        1.62306485      -0.76009095       0.31710827
H       -2.52729048      -0.07630477      -0.54982181
H       -1.01560952      -0.86551407       0.68086554
H       -3.02790795       0.82774998       0.92442636
H       -0.14733005      -1.29171843      -0.89100533
H        1.58058404       1.23306562      -0.59350393
H        1.68537733      -0.09734775      -1.81635836
H        2.10051759      -1.70559793       0.09643850
H        1.85062081      -0.33885142       1.28737555
14
Frame=15 idx=001381 GeodesicLength=1.5389156035841414 rxn_smarts="[C:1]([C:2](=[O:3])[C:4]1([H:10])[C:5]([H:11])([H:12])[C:6]1([H:13])[H:14])([H:7])([H:8])[H:9]>>[C:1](=[C:2]=[O:3])([H:7])[H:9].[C:4]1([H:8])([H:10])[C:5]([H:11])([H:12])[C:6]1([H:13])[H:14]"
C       -2.21177299       0.34489317       0.40008954
C       -1.03681362       1.12075362       0.27613561
O       -0.53314981       1.99082109       0.90275876
C        0.23283694      -0.54173700      -0.19177868
C        1.40815870       0.18058910      -0.81059053
C        1.63747592      -0.75879873       0.31839654
H       -2.53058031      -0.03788586      -0.56735600
H       -1.05105896      -0.90665706       0.66590848
H       -3.02947210       0.82281066       0.92642818
H       -0.13373117      -1.30739320      -0.87315016
H        1.58137786       1.22780968      -0.60417587
H        1.66980318      -0.10513763      -1.82086727
H        2.12220493      -1.70002246       0.09523860
H        1.87472143      -0.33004539       1.28296280
14
Frame=16 idx=001381 GeodesicLength=1.6412580880660197 rxn_smarts="[C:1]([C:2](=[O:3])[C:4]1([H:10])[C:5]([H:11])([H:12])[C:6]1([H:13])[H:14])([H:7])([H:8])[H:9]>>[C:1](=[C:2]=[O:3])([H:7])[H:9].[C:4]1([H:8])([H:10])[C:5]([H:11])([H:12])[C:6]1([H:13])[H:14]"
C       -2.20998089       0.35035736       0.39612122
C       -1.04608471       1.14764159       0.27323764
O       -0.54666887       2.00068290       0.92364825
C        0.24119385      -0.55410627      -0.17323795
C        1.40278060       0.17455083      -0.81236272
C        1.65162769      -0.75739630       0.32016505
H       -2.53416104       0.00043031      -0.58259247
H       -1.08816824      -0.94948386       0.64596521
H       -3.02938401       0.81638246       0.93049058
H       -0.11971644      -1.32255592      -0.85550346
H        1.58244916       1.22225471      -0.61479308
H        1.65435517      -0.11344676      -1.82457747
H        2.14344764      -1.69437670       0.09462146
H        1.89831011      -0.32093434       1.27881774
