11
Frame=0 idx=010846 GeodesicLength=0.0 rxn_smarts="[C:1](#[C:2][C@@:3]1([H:9])[N:4]([H:10])[C@:5]1([C:6]#[N:7])[H:11])[H:8]>>[C:1](/[C:2](=[C:3]1\[N:4]([H:10])[C@:5]1([C:6]#[N:7])[H:11])[H:9])[H:8]"
C        2.67715481       0.42700064       0.25250128
C        1.48421476       0.04602802      -0.08765734
C        0.16351284      -0.24704957       0.08772586
N       -0.73263323      -1.02469641       0.74960509
C       -1.23048781      -0.16105160      -0.35044290
C       -1.96753006       1.04484380      -0.03899525
N       -2.56921737       1.98731355       0.21565277
H        3.53292783       0.02018748      -0.28229028
H        1.19604208      -0.59217302      -1.05256738
H       -0.95064782      -0.78965881       1.71368475
H       -1.60333606      -0.71074406      -1.20721663
11
Frame=1 idx=010846 GeodesicLength=0.05571700434584208 rxn_smarts="[C:1](#[C:2][C@@:3]1([H:9])[N:4]([H:10])[C@:5]1([C:6]#[N:7])[H:11])[H:8]>>[C:1](/[C:2](=[C:3]1\[N:4]([H:10])[C@:5]1([C:6]#[N:7])[H:11])[H:9])[H:8]"
C        2.65735870       0.41136663       0.28808025
C        1.47431945       0.05874886      -0.10988330
C        0.16171655      -0.27518791       0.05584894
N       -0.73049599      -1.03042668       0.74920978
C       -1.24143786      -0.17423995      -0.34914743
C       -1.95356104       1.04625327      -0.03715290
N       -2.53017674       2.00526422       0.21377511
H        3.53369390       0.05757754      -0.25046437
H        1.18744985      -0.59393105      -1.08190061
H       -0.92092312      -0.77814627       1.71458520
H       -1.63794369      -0.72727867      -1.19295068
11
Frame=2 idx=010846 GeodesicLength=0.11200129626335033 rxn_smarts="[C:1](#[C:2][C@@:3]1([H:9])[N:4]([H:10])[C@:5]1([C:6]#[N:7])[H:11])[H:8]>>[C:1](/[C:2](=[C:3]1\[N:4]([H:10])[C@:5]1([C:6]#[N:7])[H:11])[H:9])[H:8]"
C        2.63362308       0.40132516       0.31787326
C        1.46406158       0.06709648      -0.13089182
C        0.15984559      -0.30549700       0.02409471
N       -0.72842576      -1.03704267       0.74847390
C       -1.25155685      -0.18699776      -0.34734125
C       -1.93731776       1.04822420      -0.03475833
N       -2.48709368       2.02407864       0.21150115
H        3.53230513       0.09714285      -0.21392869
H        1.17795110      -0.59783960      -1.11169109
H       -0.89084456      -0.76826837       1.71432481
H       -1.67254788      -0.74222195      -1.17765666
11
Frame=3 idx=010846 GeodesicLength=0.16847192579614226 rxn_smarts="[C:1](#[C:2][C@@:3]1([H:9])[N:4]([H:10])[C@:5]1([C:6]#[N:7])[H:11])[H:8]>>[C:1](/[C:2](=[C:3]1\[N:4]([H:10])[C@:5]1([C:6]#[N:7])[H:11])[H:9])[H:8]"
C        2.60851543       0.38801989       0.34701103
C        1.45394389       0.06957368      -0.14834152
C        0.15769369      -0.33780510      -0.00584183
N       -0.72779802      -1.04430885       0.74774703
C       -1.26041876      -0.19877875      -0.34531336
C       -1.91827923       1.05145022      -0.03300105
N       -2.44034270       2.04368955       0.20802704
H        3.52762535       0.14854245      -0.18185715
H        1.16783206      -0.60565000      -1.13939988
H       -0.86290907      -0.76000088       1.71314808
H       -1.70586263      -0.75473220      -1.16217840
11
Frame=4 idx=010846 GeodesicLength=0.2252499975061877 rxn_smarts="[C:1](#[C:2][C@@:3]1([H:9])[N:4]([H:10])[C@:5]1([C:6]#[N:7])[H:11])[H:8]>>[C:1](/[C:2](=[C:3]1\[N:4]([H:10])[C@:5]1([C:6]#[N:7])[H:11])[H:9])[H:8]"
C        2.58169273       0.37973629       0.37100211
C        1.44366056       0.07082076      -0.16587967
C        0.15562364      -0.36947302      -0.03546364
N       -0.72592710      -1.05140754       0.74662996
C       -1.26835830      -0.20973664      -0.34286146
C       -1.89871804       1.05449809      -0.03068393
N       -2.39321544       2.06218333       0.20436901
H        3.52063210       0.19629442      -0.14467051
H        1.15662569      -0.61433595      -1.16754900
H       -0.83383175      -0.75283037       1.71094207
H       -1.73818409      -0.76574938      -1.14583494
11
Frame=5 idx=010846 GeodesicLength=0.28205093785471635 rxn_smarts="[C:1](#[C:2][C@@:3]1([H:9])[N:4]([H:10])[C@:5]1([C:6]#[N:7])[H:11])[H:8]>>[C:1](/[C:2](=[C:3]1\[N:4]([H:10])[C@:5]1([C:6]#[N:7])[H:11])[H:9])[H:8]"
C        2.55480300       0.36970188       0.39339838
C        1.43380072       0.06869100      -0.18160315
C        0.15344880      -0.40095675      -0.06348936
N       -0.72432413      -1.05845720       0.74532538
C       -1.27512138      -0.21947884      -0.34026237
C       -1.87774577       1.05823934      -0.02864544
N       -2.34548110       2.08003190       0.20025746
H        3.51075415       0.24957374      -0.10918904
H        1.14457433      -0.62598533      -1.19420734
H       -0.80595565      -0.74690769       1.70790632
H       -1.76875298      -0.77445205      -1.12949084
11
Frame=6 idx=010846 GeodesicLength=0.3388642784940103 rxn_smarts="[C:1](#[C:2][C@@:3]1([H:9])[N:4]([H:10])[C@:5]1([C:6]#[N:7])[H:11])[H:8]>>[C:1](/[C:2](=[C:3]1\[N:4]([H:10])[C@:5]1([C:6]#[N:7])[H:11])[H:9])[H:8]"
C        2.52772015       0.36181669       0.41245984
C        1.42429393       0.06561781      -0.19721989
C        0.15139632      -0.43088122      -0.09052190
N       -0.72174601      -1.06502200       0.74372903
C       -1.28085444      -0.22816451      -0.33741117
C       -1.85654627       1.06196708      -0.02643241
N       -2.29895150       2.09637986       0.19611746
H        3.49850943       0.30075058      -0.07154690
H        1.13157972      -0.63915401      -1.22038672
H       -0.77787406      -0.74181604       1.70407827
H       -1.79752728      -0.78149424      -1.11286559
11
Frame=7 idx=010846 GeodesicLength=0.39563424879569115 rxn_smarts="[C:1](#[C:2][C@@:3]1([H:9])[N:4]([H:10])[C@:5]1([C:6]#[N:7])[H:11])[H:8]>>[C:1](/[C:2](=[C:3]1\[N:4]([H:10])[C@:5]1([C:6]#[N:7])[H:11])[H:9])[H:8]"
C        2.50064038       0.35675994       0.42834561
C        1.41522919       0.06245439      -0.21303178
C        0.14956539      -0.45873323      -0.11659141
N       -0.71795799      -1.07091375       0.74186994
C       -1.28559769      -0.23586668      -0.33434599
C       -1.83555292       1.06552986      -0.02412141
N       -2.25462306       2.11093809       0.19219268
H        3.48433675       0.34761068      -0.03166373
H        1.11774574      -0.65333889      -1.24616226
H       -0.74946059      -0.73724463       1.69954781
H       -1.82432521      -0.78719578      -1.09603947
11
Frame=8 idx=010846 GeodesicLength=0.4520512218596212 rxn_smarts="[C:1](#[C:2][C@@:3]1([H:9])[N:4]([H:10])[C@:5]1([C:6]#[N:7])[H:11])[H:8]>>[C:1](/[C:2](=[C:3]1\[N:4]([H:10])[C@:5]1([C:6]#[N:7])[H:11])[H:9])[H:8]"
C        2.47480044       0.35000600       0.44287883
C        1.40703166       0.05787294      -0.22779512
C        0.14787918      -0.48503780      -0.14111086
N       -0.71392796      -1.07620539       0.73991836
C       -1.28927441      -0.24240901      -0.33126171
C       -1.81409779       1.06951868      -0.02225652
N       -2.21277558       2.12401394       0.18848924
H        3.46811216       0.39556376       0.00697309
H        1.10319165      -0.66904459      -1.27081734
H       -0.72201279      -0.73309737       1.69452768
H       -1.84892657      -0.79118116      -1.07954565
11
Frame=9 idx=010846 GeodesicLength=0.5082399796408383 rxn_smarts="[C:1](#[C:2][C@@:3]1([H:9])[N:4]([H:10])[C@:5]1([C:6]#[N:7])[H:11])[H:8]>>[C:1](/[C:2](=[C:3]1\[N:4]([H:10])[C@:5]1([C:6]#[N:7])[H:11])[H:9])[H:8]"
C        2.44982486       0.34348518       0.45559553
C        1.39951453       0.05301429      -0.24223895
C        0.14639784      -0.50953014      -0.16448035
N       -0.70922607      -1.08083093       0.73786195
C       -1.29206058      -0.24805699      -0.32810931
C       -1.79269778       1.07355935      -0.02070159
N       -2.17348351       2.13561954       0.18511208
H        3.45018985       0.44158220       0.04584543
H        1.08799408      -0.68566928      -1.29477382
H       -0.69487822      -0.72917857       1.68906449
H       -1.87157502      -0.79399465      -1.06317548
11
Frame=10 idx=010846 GeodesicLength=0.5642440296620884 rxn_smarts="[C:1](#[C:2][C@@:3]1([H:9])[N:4]([H:10])[C@:5]1([C:6]#[N:7])[H:11])[H:8]>>[C:1](/[C:2](=[C:3]1\[N:4]([H:10])[C@:5]1([C:6]#[N:7])[H:11])[H:9])[H:8]"
C        2.42591383       0.33622150       0.46691278
C        1.39274349       0.04738817      -0.25620705
C        0.14507094      -0.53269645      -0.18676097
N       -0.70413378      -1.08497221       0.73574208
C       -1.29401800      -0.25289193      -0.32491871
C       -1.77104315       1.07778323      -0.01948512
N       -2.13612292       2.14617583       0.18199866
H        3.43019906       0.48748814       0.08457060
H        1.07211576      -0.70331528      -1.31813049
H       -0.66821064      -0.72552722       1.68323871
H       -1.89251460      -0.79565378      -1.04696049
11
Frame=11 idx=010846 GeodesicLength=0.6201870852058687 rxn_smarts="[C:1](#[C:2][C@@:3]1([H:9])[N:4]([H:10])[C@:5]1([C:6]#[N:7])[H:11])[H:8]>>[C:1](/[C:2](=[C:3]1\[N:4]([H:10])[C@:5]1([C:6]#[N:7])[H:11])[H:9])[H:8]"
C        2.40251336       0.33023324       0.47668130
C        1.38654926       0.04190006      -0.27014353
C        0.14396447      -0.55432259      -0.20822382
N       -0.69830238      -1.08856545       0.73356210
C       -1.29525900      -0.25712164      -0.32164817
C       -1.74955137       1.08191179      -0.01852891
N       -2.10094820       2.15559130       0.17917425
H        3.40882132       0.53033490       0.12395335
H        1.05563162      -0.72139719      -1.34116696
H       -0.64154792      -0.72193971       1.67706631
H       -1.91187116      -0.79662472      -1.03072591
11
Frame=12 idx=010846 GeodesicLength=0.6761232313851852 rxn_smarts="[C:1](#[C:2][C@@:3]1([H:9])[N:4]([H:10])[C@:5]1([C:6]#[N:7])[H:11])[H:8]>>[C:1](/[C:2](=[C:3]1\[N:4]([H:10])[C@:5]1([C:6]#[N:7])[H:11])[H:9])[H:8]"
C        2.37991756       0.32355396       0.48528465
C        1.38101624       0.03548375      -0.28385772
C        0.14293094      -0.57513859      -0.22887821
N       -0.69225425      -1.09197431       0.73126378
C       -1.29582987      -0.26071664      -0.31830682
C       -1.72759435       1.08621062      -0.01769530
N       -2.06642712       2.16455858       0.17651817
H        3.38494596       0.57425506       0.16343038
H        1.03848127      -0.74084502      -1.36373717
H       -0.61523414      -0.71888506       1.67057090
H       -1.92995224      -0.79650235      -1.01459265
11
Frame=13 idx=010846 GeodesicLength=0.7319756342871638 rxn_smarts="[C:1](#[C:2][C@@:3]1([H:9])[N:4]([H:10])[C@:5]1([C:6]#[N:7])[H:11])[H:8]>>[C:1](/[C:2](=[C:3]1\[N:4]([H:10])[C@:5]1([C:6]#[N:7])[H:11])[H:9])[H:8]"
C        2.35765838       0.31922206       0.49266122
C        1.37596001       0.03007078      -0.29750291
C        0.14222876      -0.59423406      -0.24880330
N       -0.68532247      -1.09466192       0.72900009
C       -1.29576519      -0.26388100      -0.31494256
C       -1.70619940       1.09026322      -0.01734794
N       -2.03498545       2.17217718       0.17429212
H        3.36075392       0.61261066       0.20327125
H        1.02093187      -0.75993973      -1.38599218
H       -0.58882624      -0.71543310       1.66382216
H       -1.94643420      -0.79619408      -0.99845795
11
Frame=14 idx=010846 GeodesicLength=0.7878036177142079 rxn_smarts="[C:1](#[C:2][C@@:3]1([H:9])[N:4]([H:10])[C@:5]1([C:6]#[N:7])[H:11])[H:8]>>[C:1](/[C:2](=[C:3]1\[N:4]([H:10])[C@:5]1([C:6]#[N:7])[H:11])[H:9])[H:8]"
C        2.33596059       0.31560402       0.49908810
C        1.37142827       0.02485102      -0.31095848
C        0.14174088      -0.61216591      -0.26803006
N       -0.67789451      -1.09692469       0.72671224
C       -1.29511414      -0.26658671      -0.31154648
C       -1.68489764       1.09427654      -0.01731322
N       -2.00546023       2.17900615       0.17234372
H        3.33547983       0.64866822       0.24312903
H        1.00289813      -0.77936822      -1.40786015
H       -0.56255484      -0.71198379       1.65683661
H       -1.96158634      -0.79537663      -0.98240131
11
Frame=15 idx=010846 GeodesicLength=0.843664783802001 rxn_smarts="[C:1](#[C:2][C@@:3]1([H:9])[N:4]([H:10])[C@:5]1([C:6]#[N:7])[H:11])[H:8]>>[C:1](/[C:2](=[C:3]1\[N:4]([H:10])[C@:5]1([C:6]#[N:7])[H:11])[H:9])[H:8]"
C        2.31509675       0.31133334       0.50474574
C        1.36752988       0.01890955      -0.32411147
C        0.14137068      -0.62953238      -0.28662388
N       -0.67031288      -1.09901051       0.72435716
C       -1.29386824      -0.26880510      -0.30815767
C       -1.66311958       1.09845740      -0.01758017
N       -1.97659702       2.18548252       0.17078897
H        3.30790188       0.68545009       0.28283780
H        0.98424466      -0.79972197      -1.42938317
H       -0.53659386      -0.70880787       1.64959902
H       -1.97565227      -0.79375508      -0.96647233
11
Frame=16 idx=010846 GeodesicLength=0.8996599788702525 rxn_smarts="[C:1](#[C:2][C@@:3]1([H:9])[N:4]([H:10])[C@:5]1([C:6]#[N:7])[H:11])[H:8]>>[C:1](/[C:2](=[C:3]1\[N:4]([H:10])[C@:5]1([C:6]#[N:7])[H:11])[H:9])[H:8]"
C        2.29425094       0.30889961       0.50970776
C        1.36401398       0.01345694      -0.33713136
C        0.14121631      -0.64586051      -0.30466927
N       -0.66221422      -1.10078339       0.72195634
C       -1.29213379      -0.27072951      -0.30473905
C       -1.64157062       1.10246576      -0.01809102
N       -1.94918656       2.19131485       0.16943462
H        3.27968153       0.71902656       0.32250929
H        0.96517569      -0.82025196      -1.45054177
H       -0.51066053      -0.70567319       1.64213599
H       -1.98857272      -0.79186516      -0.95057152
