16
Frame=0 idx=007183 GeodesicLength=0.0 rxn_smarts="[C:1]([c:2]1[c:3]([H:11])[c:4]([H:12])[c:5]([C:6]([H:13])([H:14])[H:15])[n:7]1[H:16])([H:8])([H:9])[H:10]>>[C:1]([C:2]1=[N:7][C@@:5]([C:6]([H:13])([H:14])[H:15])([H:16])[C:4]([H:12])=[C:3]1[H:11])([H:8])([H:9])[H:10]"
C       -2.54915472      -0.41842526       0.07199532
C       -1.12306387       0.02543158       0.11987488
C       -0.62561550       1.31087270       0.33033164
C        0.74823774       1.27239039       0.14500606
C        1.08714893      -0.05201621      -0.15486131
C        2.41192692      -0.74055381      -0.05957577
N       -0.12501504      -0.84556257      -0.13288870
H       -2.63903485      -1.45038965       0.41085132
H       -3.17262856       0.21165052       0.70730940
H       -2.95060494      -0.36542349      -0.94363812
H       -1.22061611       2.18568244       0.55348482
H        1.44336159       2.09455088       0.23104646
H        2.40229387      -1.67942554      -0.61325677
H        3.20654223      -0.10866499      -0.45693701
H        2.64537724      -0.97138961       0.98202698
H        0.46084513      -0.46872739      -1.19076918
16
Frame=1 idx=007183 GeodesicLength=0.04455831243200462 rxn_smarts="[C:1]([c:2]1[c:3]([H:11])[c:4]([H:12])[c:5]([C:6]([H:13])([H:14])[H:15])[n:7]1[H:16])([H:8])([H:9])[H:10]>>[C:1]([C:2]1=[N:7][C@@:5]([C:6]([H:13])([H:14])[H:15])([H:16])[C:4]([H:12])=[C:3]1[H:11])([H:8])([H:9])[H:10]"
C       -2.54803883      -0.41837858       0.07396106
C       -1.12268804       0.02713090       0.11678672
C       -0.62284815       1.31153496       0.33772300
C        0.74846804       1.27469460       0.13777134
C        1.08598610      -0.04946693      -0.17254691
C        2.40890550      -0.73925220      -0.05945524
N       -0.12528060      -0.83897105      -0.14698583
H       -2.64251309      -1.43293333       0.46137010
H       -3.18137222       0.23809312       0.67158207
H       -2.93805186      -0.41319810      -0.94731368
H       -1.21332999       2.18067458       0.59250119
H        1.44433967       2.09595408       0.22658252
H        2.41423269      -1.66670433      -0.63227231
H        3.21199219      -0.09954413      -0.42603660
H        2.61918812      -0.99081170       0.98228891
H        0.46101047      -0.47882187      -1.21595634
16
Frame=2 idx=007183 GeodesicLength=0.08905290925077151 rxn_smarts="[C:1]([c:2]1[c:3]([H:11])[c:4]([H:12])[c:5]([C:6]([H:13])([H:14])[H:15])[n:7]1[H:16])([H:8])([H:9])[H:10]>>[C:1]([C:2]1=[N:7][C@@:5]([C:6]([H:13])([H:14])[H:15])([H:16])[C:4]([H:12])=[C:3]1[H:11])([H:8])([H:9])[H:10]"
C       -2.54692534      -0.41825200       0.07583034
C       -1.12233535       0.02896255       0.11293911
C       -0.61995342       1.31199047       0.34546378
C        0.74862658       1.27704463       0.13058040
C        1.08480721      -0.04679799      -0.19023704
C        2.40565167      -0.73784536      -0.05917599
N       -0.12561797      -0.83222441      -0.16155810
H       -2.64602380      -1.41318198       0.51068882
H       -3.18927309       0.26294821       0.63481625
H       -2.92597576      -0.46106082      -0.94851698
H       -1.20546412       2.17456439       0.63195337
H        1.44517832       2.09750282       0.22168701
H        2.42651718      -1.65365553      -0.65023705
H        3.21639278      -0.09089436      -0.39484431
H        2.59285396      -1.00979162       0.98185452
H        0.46154116      -0.48930901      -1.24124414
16
Frame=3 idx=007183 GeodesicLength=0.13356575216874658 rxn_smarts="[C:1]([c:2]1[c:3]([H:11])[c:4]([H:12])[c:5]([C:6]([H:13])([H:14])[H:15])[n:7]1[H:16])([H:8])([H:9])[H:10]>>[C:1]([C:2]1=[N:7][C@@:5]([C:6]([H:13])([H:14])[H:15])([H:16])[C:4]([H:12])=[C:3]1[H:11])([H:8])([H:9])[H:10]"
C       -2.54584273      -0.41795496       0.07737781
C       -1.12203726       0.03099646       0.10814847
C       -0.61697221       1.31235175       0.35304776
C        0.74865077       1.27954629       0.12286423
C        1.08358950      -0.04399770      -0.20809563
C        2.40213670      -0.73626001      -0.05865492
N       -0.12603942      -0.82532446      -0.17653750
H       -2.64968771      -1.39080477       0.55910492
H       -3.19649020       0.28660508       0.59629024
H       -2.91416858      -0.50944004      -0.94752342
H       -1.19653692       2.16650440       0.67448078
H        1.44577814       2.09937443       0.21548382
H        2.43917027      -1.64034445      -0.66688321
H        3.21972561      -0.08266729      -0.36335949
H        2.56627695      -1.02803960       0.98089866
H        0.46244710      -0.50054515      -1.26664251
16
Frame=4 idx=007183 GeodesicLength=0.17803579386772286 rxn_smarts="[C:1]([c:2]1[c:3]([H:11])[c:4]([H:12])[c:5]([C:6]([H:13])([H:14])[H:15])[n:7]1[H:16])([H:8])([H:9])[H:10]>>[C:1]([C:2]1=[N:7][C@@:5]([C:6]([H:13])([H:14])[H:15])([H:16])[C:4]([H:12])=[C:3]1[H:11])([H:8])([H:9])[H:10]"
C       -2.54476785      -0.41753535       0.07882110
C       -1.12176350       0.03313852       0.10277987
C       -0.61385571       1.31243920       0.36110426
C        0.74857079       1.28209348       0.11521664
C        1.08235262      -0.04107466      -0.22594095
C        2.39839524      -0.73452640      -0.05805334
N       -0.12652573      -0.81828283      -0.19188577
H       -2.65349166      -1.36607838       0.60626159
H       -3.20291154       0.30873447       0.55664879
H       -2.90267126      -0.55777599      -0.94409173
H       -1.18696638       2.15704691       0.71725350
H        1.44619490       2.10138891       0.20904001
H        2.45211241      -1.62670780      -0.68254696
H        3.22196618      -0.07479667      -0.33177845
H        2.53967498      -1.04579684       0.97920597
H        0.46368648      -0.51226656      -1.29203455
16
Frame=5 idx=007183 GeodesicLength=0.22243313467995915 rxn_smarts="[C:1]([c:2]1[c:3]([H:11])[c:4]([H:12])[c:5]([C:6]([H:13])([H:14])[H:15])[n:7]1[H:16])([H:8])([H:9])[H:10]>>[C:1]([C:2]1=[N:7][C@@:5]([C:6]([H:13])([H:14])[H:15])([H:16])[C:4]([H:12])=[C:3]1[H:11])([H:8])([H:9])[H:10]"
C       -2.54369817      -0.41700163       0.08021252
C       -1.12149375       0.03532071       0.09710032
C       -0.61058488       1.31217795       0.36979809
C        0.74839185       1.28465186       0.10780954
C        1.08110599      -0.03804265      -0.24369011
C        2.39446401      -0.73264636      -0.05744553
N       -0.12705945      -0.81113110      -0.20747807
H       -2.65750314      -1.33925110       0.65180425
H       -3.20849757       0.32917674       0.51627140
H       -2.89145142      -0.60562029      -0.93824726
H       -1.17697695       2.14644978       0.75932713
H        1.44644820       2.10348106       0.20273546
H        2.46527315      -1.61280094      -0.69726418
H        3.22311647      -0.06726925      -0.30036029
H        2.51324895      -1.06301575       0.97672570
H        0.46521671      -0.52447905      -1.31729897
16
Frame=6 idx=007183 GeodesicLength=0.2667338916107066 rxn_smarts="[C:1]([c:2]1[c:3]([H:11])[c:4]([H:12])[c:5]([C:6]([H:13])([H:14])[H:15])[n:7]1[H:16])([H:8])([H:9])[H:10]>>[C:1]([C:2]1=[N:7][C@@:5]([C:6]([H:13])([H:14])[H:15])([H:16])[C:4]([H:12])=[C:3]1[H:11])([H:8])([H:9])[H:10]"
C       -2.54263437      -0.41632118       0.08149821
C       -1.12119757       0.03744599       0.09146551
C       -0.60715495       1.31151787       0.37916533
C        0.74808652       1.28720784       0.10060404
C        1.07983849      -0.03493579      -0.26128667
C        2.39038429      -0.73058677      -0.05687835
N       -0.12761807      -0.80394045      -0.22305336
H       -2.66191358      -1.31059378       0.69526824
H       -3.21322164       0.34787695       0.47540827
H       -2.88035805      -0.65246694      -0.93023299
H       -1.16665333       2.13477124       0.80065445
H        1.44650403       2.10563956       0.19653773
H        2.47856147      -1.59875420      -0.71091112
H        3.22317756      -0.06006142      -0.26950402
H        2.48725851      -1.07942577       0.97350955
H        0.46694069      -0.53737314      -1.34224482
16
Frame=7 idx=007183 GeodesicLength=0.3108778325463029 rxn_smarts="[C:1]([c:2]1[c:3]([H:11])[c:4]([H:12])[c:5]([C:6]([H:13])([H:14])[H:15])[n:7]1[H:16])([H:8])([H:9])[H:10]>>[C:1]([C:2]1=[N:7][C@@:5]([C:6]([H:13])([H:14])[H:15])([H:16])[C:4]([H:12])=[C:3]1[H:11])([H:8])([H:9])[H:10]"
C       -2.54154689      -0.41557736       0.08285763
C       -1.12081847       0.03938873       0.08631679
C       -0.60351308       1.31033737       0.38950654
C        0.74772429       1.28965947       0.09411841
C        1.07857725      -0.03176572      -0.27855611
C        2.38621596      -0.72840424      -0.05649157
N       -0.12817408      -0.79673292      -0.23850151
H       -2.66673152      -1.28069110       0.73633492
H       -3.21702566       0.36461441       0.43481566
H       -2.86939463      -0.69773074      -0.92013212
H       -1.15661274       2.12295361       0.83900602
H        1.44646984       2.10769808       0.19127349
H        2.49187249      -1.58454523      -0.72380340
H        3.22222950      -0.05316561      -0.23941224
H        2.46192947      -1.09527837       0.96939769
H        0.46879826      -0.55076039      -1.36673018
16
Frame=8 idx=007183 GeodesicLength=0.35495319919139506 rxn_smarts="[C:1]([c:2]1[c:3]([H:11])[c:4]([H:12])[c:5]([C:6]([H:13])([H:14])[H:15])[n:7]1[H:16])([H:8])([H:9])[H:10]>>[C:1]([C:2]1=[N:7][C@@:5]([C:6]([H:13])([H:14])[H:15])([H:16])[C:4]([H:12])=[C:3]1[H:11])([H:8])([H:9])[H:10]"
C       -2.54041359      -0.41479137       0.08432362
C       -1.12034311       0.04114171       0.08170064
C       -0.59970209       1.30870766       0.40061080
C        0.74729441       1.29202965       0.08834237
C        1.07732901      -0.02852375      -0.29553570
C        2.38197731      -0.72614617      -0.05628898
N       -0.12870920      -0.78950043      -0.25387140
H       -2.67191213      -1.24977184       0.77509259
H       -3.21993463       0.37949179       0.39464650
H       -2.85854067      -0.74140297      -0.90810548
H       -1.14700602       2.11125499       0.87452389
H        1.44633219       2.10967410       0.18698884
H        2.50522042      -1.57021828      -0.73603194
H        3.22035419      -0.04660533      -0.21004073
H        2.43723666      -1.11068805       0.96445021
H        0.47081724      -0.56465172      -1.39080524
16
Frame=9 idx=007183 GeodesicLength=0.3987449647833492 rxn_smarts="[C:1]([c:2]1[c:3]([H:11])[c:4]([H:12])[c:5]([C:6]([H:13])([H:14])[H:15])[n:7]1[H:16])([H:8])([H:9])[H:10]>>[C:1]([C:2]1=[N:7][C@@:5]([C:6]([H:13])([H:14])[H:15])([H:16])[C:4]([H:12])=[C:3]1[H:11])([H:8])([H:9])[H:10]"
C       -2.53926067      -0.41392821       0.08577116
C       -1.11971632       0.04254216       0.07804238
C       -0.59563647       1.30647979       0.41257350
C        0.74681647       1.29423278       0.08315206
C        1.07606618      -0.02524401      -0.31217526
C        2.37769408      -0.72369800      -0.05632297
N       -0.12923283      -0.78229640      -0.26883515
H       -2.67782400      -1.21807775       0.81113413
H       -3.22191560       0.39255811       0.35491502
H       -2.84761749      -0.78308845      -0.89453742
H       -1.13776021       2.09963305       0.90760296
H        1.44611740       2.11148461       0.18337630
H        2.51844135      -1.55581204      -0.74742036
H        3.21760478      -0.04029107      -0.18181709
H        2.41340552      -1.12522474       0.95870330
H        0.47281779      -0.57926984      -1.41416254
16
Frame=10 idx=007183 GeodesicLength=0.44251841145470044 rxn_smarts="[C:1]([c:2]1[c:3]([H:11])[c:4]([H:12])[c:5]([C:6]([H:13])([H:14])[H:15])[n:7]1[H:16])([H:8])([H:9])[H:10]>>[C:1]([C:2]1=[N:7][C@@:5]([C:6]([H:13])([H:14])[H:15])([H:16])[C:4]([H:12])=[C:3]1[H:11])([H:8])([H:9])[H:10]"
C       -2.53806016      -0.41304438       0.08731376
C       -1.11894750       0.04365579       0.07517647
C       -0.59139116       1.30380559       0.42518902
C        0.74629256       1.29633902       0.07869022
C        1.07481344      -0.02188751      -0.32852257
C        2.37337428      -0.72117820      -0.05658203
N       -0.12973069      -0.77507554      -0.28364703
H       -2.68428357      -1.18568054       0.84499943
H       -3.22304500       0.40401040       0.31561233
H       -2.83665735      -0.82319412      -0.87943658
H       -1.12905885       2.08841296       0.93819547
H        1.44579642       2.11324773       0.18052925
H        2.53165897      -1.54125528      -0.75833576
H        3.21407669      -0.03424783      -0.15430774
H        2.39022659      -1.13944350       0.95215399
H        0.47493534      -0.59446460      -1.43702824
16
Frame=11 idx=007183 GeodesicLength=0.4861546469890532 rxn_smarts="[C:1]([c:2]1[c:3]([H:11])[c:4]([H:12])[c:5]([C:6]([H:13])([H:14])[H:15])[n:7]1[H:16])([H:8])([H:9])[H:10]>>[C:1]([C:2]1=[N:7][C@@:5]([C:6]([H:13])([H:14])[H:15])([H:16])[C:4]([H:12])=[C:3]1[H:11])([H:8])([H:9])[H:10]"
C       -2.53679857      -0.41217225       0.08897986
C       -1.11795892       0.04430156       0.07361420
C       -0.58687060       1.30052777       0.43880667
C        0.74575827       1.29826642       0.07510870
C        1.07357031      -0.01849241      -0.34446075
C        2.36907712      -0.71859035      -0.05712215
N       -0.13018642      -0.76789597      -0.29807256
H       -2.69143265      -1.15332779       0.87616115
H       -3.22324704       0.41379154       0.27745036
H       -2.82564124      -0.86097403      -0.86326665
H       -1.12127277       2.07827312       0.96530574
H        1.44539976       2.11489877       0.17847865
H        2.54475648      -1.52662263      -0.76878794
H        3.20986504      -0.02848353      -0.12781944
H        2.36794257      -1.15322874       0.94481296
H        0.47703866      -0.61027149      -1.45918880
16
Frame=12 idx=007183 GeodesicLength=0.5296774861344007 rxn_smarts="[C:1]([c:2]1[c:3]([H:11])[c:4]([H:12])[c:5]([C:6]([H:13])([H:14])[H:15])[n:7]1[H:16])([H:8])([H:9])[H:10]>>[C:1]([C:2]1=[N:7][C@@:5]([C:6]([H:13])([H:14])[H:15])([H:16])[C:4]([H:12])=[C:3]1[H:11])([H:8])([H:9])[H:10]"
C       -2.53549000      -0.41127136       0.09069791
C       -1.11673720       0.04443825       0.07339094
C       -0.58206633       1.29661840       0.45340375
C        0.74517686       1.30002090       0.07226326
C        1.07231561      -0.01505742      -0.36003510
C        2.36481696      -0.71589599      -0.05796381
N       -0.13060318      -0.76076428      -0.31207177
H       -2.69945615      -1.12082814       0.90491784
H       -3.22253941       0.42220997       0.23995382
H       -2.81445301      -0.89677643      -0.84616733
H       -1.11425358       2.06899581       0.98974215
H        1.44486417       2.11647131       0.17696170
H        2.55777170      -1.51182979      -0.77887029
H        3.20502286      -0.02292225      -0.10230371
H        2.34653063      -1.16660034       0.93667716
H        0.47910008      -0.62680862      -1.48059652
16
Frame=13 idx=007183 GeodesicLength=0.573203257268867 rxn_smarts="[C:1]([c:2]1[c:3]([H:11])[c:4]([H:12])[c:5]([C:6]([H:13])([H:14])[H:15])[n:7]1[H:16])([H:8])([H:9])[H:10]>>[C:1]([C:2]1=[N:7][C@@:5]([C:6]([H:13])([H:14])[H:15])([H:16])[C:4]([H:12])=[C:3]1[H:11])([H:8])([H:9])[H:10]"
C       -2.53412871      -0.41036068       0.09248770
C       -1.11530595       0.04415385       0.07416457
C       -0.57701884       1.29220950       0.46865357
C        0.74454007       1.30168509       0.06997233
C        1.07105059      -0.01152081      -0.37539452
C        2.36053832      -0.71311173      -0.05904734
N       -0.13101513      -0.75358334      -0.32595321
H       -2.70820546      -1.08795096       0.93173596
H       -3.22094652       0.42940053       0.20283052
H       -2.80319659      -0.93113225      -0.82799926
H       -1.10778894       2.06031682       1.01229297
H        1.44420708       2.11801917       0.17596364
H        2.57074854      -1.49684348      -0.78860627
H        3.19957431      -0.01757980      -0.07744829
H        2.32570693      -1.17968216       0.92781859
H        0.48124031      -0.64401974      -1.50147095
16
Frame=14 idx=007183 GeodesicLength=0.6166674744162355 rxn_smarts="[C:1]([c:2]1[c:3]([H:11])[c:4]([H:12])[c:5]([C:6]([H:13])([H:14])[H:15])[n:7]1[H:16])([H:8])([H:9])[H:10]>>[C:1]([C:2]1=[N:7][C@@:5]([C:6]([H:13])([H:14])[H:15])([H:16])[C:4]([H:12])=[C:3]1[H:11])([H:8])([H:9])[H:10]"
C       -2.53271355      -0.40942083       0.09432204
C       -1.11364947       0.04342071       0.07592958
C       -0.57170829       1.28727989       0.48446373
C        0.74384897       1.30324569       0.06816590
C        1.06975261      -0.00785983      -0.39055726
C        2.35621076      -0.71018740      -0.06038463
N       -0.13145199      -0.74631115      -0.33973000
H       -2.71779048      -1.05443510       0.95681209
H       -3.21841884       0.43548007       0.16569291
H       -2.79182032      -0.96435184      -0.80868342
H       -1.10170863       2.05198352       1.03339860
H        1.44343238       2.11952156       0.17537490
H        2.58367687      -1.48149109      -0.79809366
H        3.19351548      -0.01239979      -0.05311578
H        2.30538622      -1.19253928       0.91815319
H        0.48343826      -0.66193513      -1.52174820
16
Frame=15 idx=007183 GeodesicLength=0.6601946221246783 rxn_smarts="[C:1]([c:2]1[c:3]([H:11])[c:4]([H:12])[c:5]([C:6]([H:13])([H:14])[H:15])[n:7]1[H:16])([H:8])([H:9])[H:10]>>[C:1]([C:2]1=[N:7][C@@:5]([C:6]([H:13])([H:14])[H:15])([H:16])[C:4]([H:12])=[C:3]1[H:11])([H:8])([H:9])[H:10]"
C       -2.53124911      -0.40844415       0.09620230
C       -1.11174357       0.04216817       0.07882685
C       -0.56614309       1.28182582       0.50096191
C        0.74305982       1.30473488       0.06683464
C        1.06842197      -0.00408069      -0.40554142
C        2.35188511      -0.70715567      -0.06199574
N       -0.13190016      -0.73897310      -0.35339404
H       -2.72827792      -1.02044413       0.98010747
H       -3.21493003       0.44054337       0.12864407
H       -2.78032693      -0.99632392      -0.78839295
H       -1.09611812       2.04415844       1.05303332
H        1.44247488       2.12104101       0.17516523
H        2.59659171      -1.46586575      -0.80736740
H        3.18690962      -0.00739416      -0.02938960
H        2.28564959      -1.20517498       0.90774683
H        0.48569623      -0.68061513      -1.54144147
16
Frame=16 idx=007183 GeodesicLength=0.7036578330304473 rxn_smarts="[C:1]([c:2]1[c:3]([H:11])[c:4]([H:12])[c:5]([C:6]([H:13])([H:14])[H:15])[n:7]1[H:16])([H:8])([H:9])[H:10]>>[C:1]([C:2]1=[N:7][C@@:5]([C:6]([H:13])([H:14])[H:15])([H:16])[C:4]([H:12])=[C:3]1[H:11])([H:8])([H:9])[H:10]"
C       -2.52971757      -0.40742221       0.09809417
C       -1.10954470       0.04031105       0.08295052
C       -0.56025534       1.27576788       0.51816210
C        0.74217346       1.30612261       0.06591247
C        1.06702836      -0.00017243      -0.42034681
C        2.34752146      -0.70394974      -0.06388308
N       -0.13239406      -0.73154587      -0.36691367
H       -2.73973606      -0.98604967       1.00150563
H       -3.21035815       0.44462991       0.09170316
H       -2.76873806      -1.02695303      -0.76724047
H       -1.09088807       2.03670095       1.07133816
H        1.44134665       2.12253465       0.17524251
H        2.60937511      -1.44995173      -0.81634536
H        3.17975643      -0.00250434      -0.00637678
H        2.26646882      -1.21740944       0.89662736
H        0.48796170      -0.70010859      -1.56042991
