11
Frame=0 idx=008691 GeodesicLength=0.0 rxn_smarts="[O:1]=[C:2]([c:3]1[c:4]([H:9])[n:5][c:6]([H:10])[n:7]1[H:11])[H:8]>>[H:8][H:9].[O:1]=[C-:2][C:3]1=[C:4]=[N+:5]=[C:6]([H:10])[N:7]1[H:11]"
O       -2.57976539      -1.00171621       0.04837111
C       -1.61108158      -0.38236342       0.01365774
C       -0.29087618      -0.07004486       0.00402487
C        0.28339558       1.23235326      -0.08381764
N        1.63825543       1.03031041      -0.05889713
C        1.86490491      -0.26190733       0.03384081
N        0.74222765      -0.99652485       0.07689109
H       -2.15460360       1.42026489      -0.12036032
H       -1.41113894       1.75654208      -0.13518058
H        2.84124056      -0.73040324       0.07359743
H        0.67744153      -1.99651070       0.14787266
11
Frame=1 idx=008691 GeodesicLength=0.07357129685942347 rxn_smarts="[O:1]=[C:2]([c:3]1[c:4]([H:9])[n:5][c:6]([H:10])[n:7]1[H:11])[H:8]>>[H:8][H:9].[O:1]=[C-:2][C:3]1=[C:4]=[N+:5]=[C:6]([H:10])[N:7]1[H:11]"
O       -2.57402136      -1.01292272       0.05850526
C       -1.61487981      -0.37945339      -0.01069946
C       -0.29182032      -0.07182824       0.03682067
C        0.27906062       1.23035088      -0.07550731
N        1.63456432       1.02994774      -0.06626722
C        1.86350362      -0.26163034       0.02938752
N        0.74206429      -0.99856765       0.06906322
H       -2.15505537       1.41807488      -0.11558498
H       -1.39942833       1.77212141      -0.14796428
H        2.84036605      -0.72789335       0.07862728
H        0.67564630      -1.99819923       0.14361929
11
Frame=2 idx=008691 GeodesicLength=0.14713975992410522 rxn_smarts="[O:1]=[C:2]([c:3]1[c:4]([H:9])[n:5][c:6]([H:10])[n:7]1[H:11])[H:8]>>[H:8][H:9].[O:1]=[C-:2][C:3]1=[C:4]=[N+:5]=[C:6]([H:10])[N:7]1[H:11]"
O       -2.56746486      -1.02329025       0.07045745
C       -1.61831631      -0.37608069      -0.02541080
C       -0.29283836      -0.07478397       0.05778833
C        0.27453235       1.22852640      -0.06079107
N        1.63038712       1.02965027      -0.07194441
C        1.86180667      -0.26125143       0.02581359
N        0.74163234      -1.00030590       0.06448333
H       -2.15554810       1.41402812      -0.13260975
H       -1.38730407       1.78893348      -0.14550825
H        2.83925872      -0.72570200       0.07724330
H        0.67385450      -1.99972402       0.14047830
11
Frame=3 idx=008691 GeodesicLength=0.22072274302010625 rxn_smarts="[O:1]=[C:2]([c:3]1[c:4]([H:9])[n:5][c:6]([H:10])[n:7]1[H:11])[H:8]>>[H:8][H:9].[O:1]=[C-:2][C:3]1=[C:4]=[N+:5]=[C:6]([H:10])[N:7]1[H:11]"
O       -2.56085013      -1.03348127       0.08086507
C       -1.62182791      -0.37255206      -0.03493551
C       -0.29390488      -0.07820889       0.07454374
C        0.26993893       1.22653360      -0.04691224
N        1.62596610       1.02951132      -0.07618543
C        1.86003248      -0.26075112       0.02297738
N        0.74115756      -1.00195692       0.06148819
H       -2.15588619       1.40974558      -0.15177881
H       -1.37491697       1.80594843      -0.14155227
H        2.83816340      -0.72345860       0.07452660
H        0.67212761      -2.00133007       0.13696330
11
Frame=4 idx=008691 GeodesicLength=0.29429348953569295 rxn_smarts="[O:1]=[C:2]([c:3]1[c:4]([H:9])[n:5][c:6]([H:10])[n:7]1[H:11])[H:8]>>[H:8][H:9].[O:1]=[C-:2][C:3]1=[C:4]=[N+:5]=[C:6]([H:10])[N:7]1[H:11]"
O       -2.55386946      -1.04464611       0.08555884
C       -1.62546628      -0.36875040      -0.04239773
C       -0.29502836      -0.08174500       0.08838993
C        0.26539910       1.22442794      -0.03544129
N        1.62155190       1.02954323      -0.07840411
C        1.85820105      -0.26015985       0.02127781
N        0.74057920      -1.00348285       0.05907012
H       -2.15732621       1.40713373      -0.14536837
H       -1.36119841       1.82167759      -0.15971325
H        2.83694614      -0.72106681       0.07466685
H        0.67021132      -2.00293146       0.13236119
11
Frame=5 idx=008691 GeodesicLength=0.3679396728368128 rxn_smarts="[O:1]=[C:2]([c:3]1[c:4]([H:9])[n:5][c:6]([H:10])[n:7]1[H:11])[H:8]>>[H:8][H:9].[O:1]=[C-:2][C:3]1=[C:4]=[N+:5]=[C:6]([H:10])[N:7]1[H:11]"
O       -2.54697203      -1.05511516       0.09326518
C       -1.62912074      -0.36505700      -0.04671221
C       -0.29616336      -0.08550389       0.10208433
C        0.26078446       1.22226931      -0.02191354
N        1.61680935       1.02955096      -0.08129804
C        1.85625742      -0.25957417       0.01843094
N        0.73998853      -1.00499872       0.05772017
H       -2.15823326       1.40256682      -0.16286613
H       -1.34750299       1.83912002      -0.15825112
H        2.83573411      -0.71872024       0.07101212
H        0.66841851      -2.00453792       0.12852830
11
Frame=6 idx=008691 GeodesicLength=0.441634755447522 rxn_smarts="[O:1]=[C:2]([c:3]1[c:4]([H:9])[n:5][c:6]([H:10])[n:7]1[H:11])[H:8]>>[H:8][H:9].[O:1]=[C-:2][C:3]1=[C:4]=[N+:5]=[C:6]([H:10])[N:7]1[H:11]"
O       -2.54007913      -1.06573756       0.09964787
C       -1.63284867      -0.36136386      -0.04928362
C       -0.29739205      -0.08933542       0.11571317
C        0.25610558       1.22012044      -0.00740420
N        1.61188417       1.02977134      -0.08233170
C        1.85419647      -0.25883113       0.01652641
N        0.73932992      -1.00640716       0.05776528
H       -2.15908632       1.39766363      -0.18163259
H       -1.33318726       1.85673871      -0.15780040
H        2.83449554      -0.71653779       0.06337374
H        0.66658174      -2.00608119       0.12542604
11
Frame=7 idx=008691 GeodesicLength=0.5152385176629407 rxn_smarts="[O:1]=[C:2]([c:3]1[c:4]([H:9])[n:5][c:6]([H:10])[n:7]1[H:11])[H:8]>>[H:8][H:9].[O:1]=[C-:2][C:3]1=[C:4]=[N+:5]=[C:6]([H:10])[N:7]1[H:11]"
O       -2.53288766      -1.07697271       0.10395323
C       -1.63671558      -0.35754963      -0.05049895
C       -0.29872885      -0.09315075       0.12890124
C        0.25134280       1.21797102       0.00701387
N        1.60695950       1.03027638      -0.08009196
C        1.85205078      -0.25791474       0.01645723
N        0.73857520      -1.00766578       0.05833781
H       -2.16095438       1.39331978      -0.18928421
H       -1.31734687       1.87372186      -0.16998115
H        2.83313905      -0.71446284       0.05424108
H        0.66456601      -2.00757258       0.12095181
11
Frame=8 idx=008691 GeodesicLength=0.589066510848636 rxn_smarts="[O:1]=[C:2]([c:3]1[c:4]([H:9])[n:5][c:6]([H:10])[n:7]1[H:11])[H:8]>>[H:8][H:9].[O:1]=[C-:2][C:3]1=[C:4]=[N+:5]=[C:6]([H:10])[N:7]1[H:11]"
O       -2.52565058      -1.08810556       0.10814874
C       -1.64061414      -0.35380745      -0.05080409
C       -0.30001244      -0.09703201       0.14108255
C        0.24666902       1.21564928       0.01956656
N        1.60186897       1.03048882      -0.08144192
C        1.84984980      -0.25712554       0.01469495
N        0.73780484      -1.00900237       0.05910009
H       -2.16248422       1.38786813      -0.20712955
H       -1.30169414       1.89224834      -0.16856385
H        2.83169843      -0.71217401       0.04673165
H        0.66256445      -2.00900762       0.11861487
11
Frame=9 idx=008691 GeodesicLength=0.6628016154722278 rxn_smarts="[O:1]=[C:2]([c:3]1[c:4]([H:9])[n:5][c:6]([H:10])[n:7]1[H:11])[H:8]>>[H:8][H:9].[O:1]=[C-:2][C:3]1=[C:4]=[N+:5]=[C:6]([H:10])[N:7]1[H:11]"
O       -2.51762631      -1.10064332       0.10833935
C       -1.64477236      -0.34972360      -0.05044670
C       -0.30123556      -0.10074249       0.15101104
C        0.24211625       1.21326007       0.02771664
N        1.59713386       1.03064415      -0.08263510
C        1.84771008      -0.25643588       0.01312230
N        0.73692526      -1.01028530       0.05809347
H       -2.16668661       1.38414038      -0.20115442
H       -1.28396922       1.90985259      -0.18493798
H        2.83019398      -0.70966720       0.04710544
H        0.66021063      -2.01039938       0.11378597
11
Frame=10 idx=008691 GeodesicLength=0.7365154041831016 rxn_smarts="[O:1]=[C:2]([c:3]1[c:4]([H:9])[n:5][c:6]([H:10])[n:7]1[H:11])[H:8]>>[H:8][H:9].[O:1]=[C-:2][C:3]1=[C:4]=[N+:5]=[C:6]([H:10])[N:7]1[H:11]"
O       -2.50970628      -1.11267306       0.10998812
C       -1.64892094      -0.34584505      -0.04886719
C       -0.30246136      -0.10451905       0.16134696
C        0.23759512       1.21081257       0.03689164
N        1.59205612       1.03063586      -0.08611020
C        1.84543667      -0.25579462       0.01023188
N        0.73602494      -1.01161305       0.05832477
H       -2.16997521       1.37847537      -0.21322323
H       -1.26660794       1.92944932      -0.18451441
H        2.82862749      -0.70716900       0.04445218
H        0.65793139      -2.01175930       0.11147948
11
Frame=11 idx=008691 GeodesicLength=0.8101933140085555 rxn_smarts="[O:1]=[C:2]([c:3]1[c:4]([H:9])[n:5][c:6]([H:10])[n:7]1[H:11])[H:8]>>[H:8][H:9].[O:1]=[C-:2][C:3]1=[C:4]=[N+:5]=[C:6]([H:10])[N:7]1[H:11]"
O       -2.50147136      -1.12512272       0.11024648
C       -1.65318803      -0.34193182      -0.04630946
C       -0.30371636      -0.10820879       0.17143284
C        0.23308598       1.20837203       0.04542883
N        1.58693378       1.03061360      -0.08955708
C        1.84309269      -0.25514501       0.00763751
N        0.73504939      -1.01288871       0.05902259
H       -2.17394666       1.37242702      -0.22468388
H       -1.24834135       1.94967411      -0.18413505
H        2.82698379      -0.70474171       0.04113530
H        0.65551812      -2.01304800       0.10978192
11
Frame=12 idx=008691 GeodesicLength=0.8839430908443376 rxn_smarts="[O:1]=[C:2]([c:3]1[c:4]([H:9])[n:5][c:6]([H:10])[n:7]1[H:11])[H:8]>>[H:8][H:9].[O:1]=[C-:2][C:3]1=[C:4]=[N+:5]=[C:6]([H:10])[N:7]1[H:11]"
O       -2.49313026      -1.13758417       0.11116199
C       -1.65760811      -0.33808544      -0.04227319
C       -0.30497341      -0.11186902       0.18155934
C        0.22860803       1.20592859       0.05388455
N        1.58167056       1.03056085      -0.09372831
C        1.84065088      -0.25450058       0.00454493
N        0.73399731      -1.01415508       0.05997497
H       -2.17783022       1.36522101      -0.24268228
H       -1.22962876       1.97109430      -0.17802517
H        2.82525173      -0.70227908       0.03738549
H        0.65299224      -2.01433138       0.10819767
11
Frame=13 idx=008691 GeodesicLength=0.957829886238862 rxn_smarts="[O:1]=[C:2]([c:3]1[c:4]([H:9])[n:5][c:6]([H:10])[n:7]1[H:11])[H:8]>>[H:8][H:9].[O:1]=[C-:2][C:3]1=[C:4]=[N+:5]=[C:6]([H:10])[N:7]1[H:11]"
O       -2.48340597      -1.15201709       0.10505575
C       -1.66223382      -0.33385389      -0.03776966
C       -0.30619839      -0.11512162       0.19008366
C        0.22423551       1.20353407       0.05816777
N        1.57686970       1.03032464      -0.09762004
C        1.83832783      -0.25398552       0.00296924
N        0.73284680      -1.01527531       0.06061025
H       -2.18608377       1.35999145      -0.23437976
H       -1.20787479       1.99178968      -0.19145922
H        2.82350750      -0.69992468       0.03911439
H        0.65000941      -2.01546173       0.10522762
11
Frame=14 idx=008691 GeodesicLength=1.0317911963095052 rxn_smarts="[O:1]=[C:2]([c:3]1[c:4]([H:9])[n:5][c:6]([H:10])[n:7]1[H:11])[H:8]>>[H:8][H:9].[O:1]=[C-:2][C:3]1=[C:4]=[N+:5]=[C:6]([H:10])[N:7]1[H:11]"
O       -2.47323738      -1.16680465       0.09735463
C       -1.66703498      -0.32965451      -0.03187483
C       -0.30741765      -0.11821289       0.19847468
C        0.21989692       1.20116963       0.06130346
N        1.57205720       1.02997226      -0.10251541
C        1.83596240      -0.25352368       0.00123801
N        0.73162085      -1.01636494       0.06176779
H       -2.19528747       1.35411854      -0.22696004
H       -1.18510523       2.01344560      -0.20274296
H        2.82170157      -0.69760969       0.04094732
H        0.64684377      -2.01653567       0.10300736
11
Frame=15 idx=008691 GeodesicLength=1.1056565350398406 rxn_smarts="[O:1]=[C:2]([c:3]1[c:4]([H:9])[n:5][c:6]([H:10])[n:7]1[H:11])[H:8]>>[H:8][H:9].[O:1]=[C-:2][C:3]1=[C:4]=[N+:5]=[C:6]([H:10])[N:7]1[H:11]"
O       -2.46312671      -1.18088418       0.09235209
C       -1.67190867      -0.32573459      -0.02419109
C       -0.30864300      -0.12129424       0.20762779
C        0.21561232       1.19876180       0.06571013
N        1.56673955       1.02938617      -0.10994385
C        1.83335804      -0.25316220      -0.00224179
N        0.73033448      -1.01752798       0.06419951
H       -2.20327644       1.34524177      -0.24071287
H       -1.16256156       2.03815978      -0.19539176
H        2.81975466      -0.69532756       0.03906591
H        0.64371734      -2.01761879       0.10352594
11
Frame=16 idx=008691 GeodesicLength=1.179552638853877 rxn_smarts="[O:1]=[C:2]([c:3]1[c:4]([H:9])[n:5][c:6]([H:10])[n:7]1[H:11])[H:8]>>[H:8][H:9].[O:1]=[C-:2][C:3]1=[C:4]=[N+:5]=[C:6]([H:10])[N:7]1[H:11]"
O       -2.45250514      -1.19521118       0.08584200
C       -1.67699480      -0.32182548      -0.01480160
C       -0.30986462      -0.12415696       0.21670989
C        0.21135464       1.19637530       0.06882307
N        1.56126751       1.02857379      -0.11898753
C        1.83063094      -0.25290432      -0.00622464
N        0.72895321      -1.01866737       0.06731980
H       -2.21190112       1.33498666      -0.25830375
H       -1.13905441       2.06456322      -0.18280497
H        2.81769452      -0.69310027       0.03682285
H        0.64041929      -2.01863339       0.10560488
