15
Frame=0 idx=011951 GeodesicLength=0.0 rxn_smarts="[C:1]([C@@:2]([O:3][H:12])([C:4]([O:5][C:6](=[O:7])[H:15])([H:13])[H:14])[H:11])([H:8])([H:9])[H:10]>>[C:1]([C:2](=[O:3])[C:4]([O:5][C:6](=[O:7])[H:15])([H:11])[H:14])([H:8])([H:9])[H:10].[H:12][H:13]"
C       -1.12009251       1.13464406      -1.07194890
C       -0.82755202       0.65530996       0.33948686
O       -1.81943822       0.44257729       1.14797088
C        0.27176262      -0.30090086       0.49724006
O        1.21188354      -0.44020583      -0.44150508
C        2.44541294      -0.94178112      -0.06978852
O        2.76349071      -1.19814022       1.03887100
H       -1.63801690       0.33260471      -1.60201720
H       -0.22424256       1.41060239      -1.63034419
H       -1.78898901       1.99137057      -1.01246875
H       -0.04132659       1.36923141       0.83698222
H       -1.67570463      -1.10886739       0.87201250
H       -1.14026924      -1.66243907       0.57031170
H        0.53056648      -0.63024087       1.49889228
H        3.05251543      -1.05376498      -0.97369492
15
Frame=1 idx=011951 GeodesicLength=0.11700433230591398 rxn_smarts="[C:1]([C@@:2]([O:3][H:12])([C:4]([O:5][C:6](=[O:7])[H:15])([H:13])[H:14])[H:11])([H:8])([H:9])[H:10]>>[C:1]([C:2](=[O:3])[C:4]([O:5][C:6](=[O:7])[H:15])([H:11])[H:14])([H:8])([H:9])[H:10].[H:12][H:13]"
C       -1.11630696       1.14000125      -1.07288458
C       -0.81979112       0.64788513       0.33188329
O       -1.80716728       0.46438260       1.15370181
C        0.25210942      -0.34512408       0.47687835
O        1.19891596      -0.50264086      -0.45912258
C        2.45948087      -0.90127763      -0.06721367
O        2.79533707      -1.07656944       1.05316138
H       -1.65001281       0.34945119      -1.60467414
H       -0.21883679       1.40404103      -1.63461225
H       -1.77026338       2.00738144      -1.00318342
H        0.01965648       1.31693782       0.83400050
H       -1.72376555      -1.08779107       0.90029448
H       -1.18302032      -1.66656794       0.58784010
H        0.49409784      -0.71193797       1.46982458
H        3.06956657      -1.03817146      -0.96589386
15
Frame=2 idx=011951 GeodesicLength=0.23331728491059928 rxn_smarts="[C:1]([C@@:2]([O:3][H:12])([C:4]([O:5][C:6](=[O:7])[H:15])([H:13])[H:14])[H:11])([H:8])([H:9])[H:10]>>[C:1]([C:2](=[O:3])[C:4]([O:5][C:6](=[O:7])[H:15])([H:11])[H:14])([H:8])([H:9])[H:10].[H:12][H:13]"
C       -1.11284717       1.14483838      -1.07393923
C       -0.81215511       0.64135453       0.32436740
O       -1.79385531       0.48302020       1.15871776
C        0.23449228      -0.38385556       0.45734581
O        1.19121622      -0.55606969      -0.47303276
C        2.46771886      -0.86654563      -0.06531160
O        2.81221987      -0.96770050       1.06274673
H       -1.65907717       0.36416467      -1.60758436
H       -0.21436427       1.39988333      -1.63821288
H       -1.75468374       2.02038810      -0.99481554
H        0.07510848       1.26618936       0.83093001
H       -1.76369183      -1.06731393       0.92994662
H       -1.21657931      -1.67054364       0.60371058
H        0.46135150      -0.78424889       1.44098589
H        3.08514672      -1.02356073      -0.95585444
15
Frame=3 idx=011951 GeodesicLength=0.34955680575685977 rxn_smarts="[C:1]([C@@:2]([O:3][H:12])([C:4]([O:5][C:6](=[O:7])[H:15])([H:13])[H:14])[H:11])([H:8])([H:9])[H:10]>>[C:1]([C:2](=[O:3])[C:4]([O:5][C:6](=[O:7])[H:15])([H:11])[H:14])([H:8])([H:9])[H:10].[H:12][H:13]"
C       -1.11050383       1.14975425      -1.07510145
C       -0.80504481       0.63588460       0.31690424
O       -1.78030552       0.49868225       1.16309834
C        0.21894554      -0.41723842       0.43836637
O        1.18807343      -0.60085987      -0.48433811
C        2.47293581      -0.83515161      -0.06340601
O        2.81901994      -0.87036344       1.06937454
H       -1.66607943       0.37728243      -1.61102736
H       -0.21148855       1.39905016      -1.64116375
H       -1.74329099       2.03098163      -0.98702852
H        0.12533301       1.21761132       0.82793988
H       -1.79660121      -1.04776943       0.96054431
H       -1.24194876      -1.67472532       0.61705976
H        0.43179092      -0.84821494       1.41237666
H        3.09916445      -1.01492362      -0.94359890
15
Frame=4 idx=011951 GeodesicLength=0.46562520993315426 rxn_smarts="[C:1]([C@@:2]([O:3][H:12])([C:4]([O:5][C:6](=[O:7])[H:15])([H:13])[H:14])[H:11])([H:8])([H:9])[H:10]>>[C:1]([C:2](=[O:3])[C:4]([O:5][C:6](=[O:7])[H:15])([H:11])[H:14])([H:8])([H:9])[H:10].[H:12][H:13]"
C       -1.10892108       1.15434082      -1.07669644
C       -0.79813069       0.63133146       0.30932623
O       -1.76631126       0.51320670       1.16716961
C        0.20469757      -0.44697646       0.41999948
O        1.18760193      -0.64097835      -0.49370781
C        2.47561344      -0.80891521      -0.06127048
O        2.81852467      -0.78552560       1.07406967
H       -1.67199735       0.38878158      -1.61473854
H       -0.20967233       1.39959780      -1.64429864
H       -1.73452900       2.03980099      -0.98030352
H        0.17205239       1.17055590       0.82429996
H       -1.82445400      -1.02788925       0.99321543
H       -1.26225321      -1.67885301       0.62882236
H        0.40409600      -0.90580756       1.38439471
H        3.11368291      -1.00266981      -0.93028202
15
Frame=5 idx=011951 GeodesicLength=0.5817725082067347 rxn_smarts="[C:1]([C@@:2]([O:3][H:12])([C:4]([O:5][C:6](=[O:7])[H:15])([H:13])[H:14])[H:11])([H:8])([H:9])[H:10]>>[C:1]([C:2](=[O:3])[C:4]([O:5][C:6](=[O:7])[H:15])([H:11])[H:14])([H:8])([H:9])[H:10].[H:12][H:13]"
C       -1.10866910       1.15940072      -1.07813195
C       -0.79189691       0.62776084       0.30176344
O       -1.75254626       0.52546691       1.17061548
C        0.19213698      -0.47246501       0.40189780
O        1.18989775      -0.67488474      -0.50158669
C        2.47725558      -0.78347158      -0.05910455
O        2.81348927      -0.70741814       1.07710479
H       -1.67660628       0.39934522      -1.61884419
H       -0.20956688       1.40344654      -1.64652289
H       -1.72966481       2.04712864      -0.97354719
H        0.21449231       1.12580236       0.82076306
H       -1.84709972      -1.00900853       1.02652002
H       -1.27637359      -1.68365233       0.63707549
H        0.37862044      -0.95737061       1.35627191
H        3.12653123      -1.00008030      -0.91427454
15
Frame=6 idx=011951 GeodesicLength=0.6977166478627889 rxn_smarts="[C:1]([C@@:2]([O:3][H:12])([C:4]([O:5][C:6](=[O:7])[H:15])([H:13])[H:14])[H:11])([H:8])([H:9])[H:10]>>[C:1]([C:2](=[O:3])[C:4]([O:5][C:6](=[O:7])[H:15])([H:11])[H:14])([H:8])([H:9])[H:10].[H:12][H:13]"
C       -1.10894784       1.16410402      -1.08002029
C       -0.78580812       0.62491043       0.29405804
O       -1.73856860       0.53753702       1.17381017
C        0.18036128      -0.49557668       0.38450526
O        1.19342164      -0.70678136      -0.50798288
C        2.47751731      -0.76255402      -0.05646393
O        2.80500620      -0.63915462       1.07937726
H       -1.68062778       0.40861455      -1.62318118
H       -0.21009302       1.40785536      -1.64903169
H       -1.72650995       2.05327214      -0.96785154
H        0.25452502       1.08219219       0.81660708
H       -1.86627678      -0.98923538       1.06215864
H       -1.28778802      -1.68850299       0.64337254
H        0.35389925      -1.00465821       1.32896237
H        3.13988942      -0.99202243      -0.89831983
15
Frame=7 idx=011951 GeodesicLength=0.8135603223556533 rxn_smarts="[C:1]([C@@:2]([O:3][H:12])([C:4]([O:5][C:6](=[O:7])[H:15])([H:13])[H:14])[H:11])([H:8])([H:9])[H:10]>>[C:1]([C:2](=[O:3])[C:4]([O:5][C:6](=[O:7])[H:15])([H:11])[H:14])([H:8])([H:9])[H:10].[H:12][H:13]"
C       -1.10990963       1.16870320      -1.08214747
C       -0.78002004       0.62274239       0.28626035
O       -1.72460732       0.54909876       1.17666552
C        0.16944601      -0.51628786       0.36770367
O        1.19813451      -0.73637142      -0.51304281
C        2.47703113      -0.74435730      -0.05338931
O        2.79434820      -0.57801926       1.08109519
H       -1.68405012       0.41687595      -1.62777596
H       -0.21142492       1.41334896      -1.65146196
H       -1.72534594       2.05838457      -0.96281053
H        0.29202250       1.03990057       0.81217155
H       -1.88199147      -0.96892416       1.09972618
H       -1.29644079      -1.69369809       0.64683643
H        0.32990968      -1.04813971       1.30216813
H        3.15289821      -0.98325661      -0.88199896
15
Frame=8 idx=011951 GeodesicLength=0.9292831834762901 rxn_smarts="[C:1]([C@@:2]([O:3][H:12])([C:4]([O:5][C:6](=[O:7])[H:15])([H:13])[H:14])[H:11])([H:8])([H:9])[H:10]>>[C:1]([C:2](=[O:3])[C:4]([O:5][C:6](=[O:7])[H:15])([H:11])[H:14])([H:8])([H:9])[H:10].[H:12][H:13]"
C       -1.11136652       1.17308291      -1.08457038
C       -0.77446668       0.62115163       0.27836521
O       -1.71066211       0.56048010       1.17920739
C        0.15920140      -0.53504682       0.35159699
O        1.20367784      -0.76450853      -0.51672026
C        2.47596366      -0.72892343      -0.04976635
O        2.78226915      -0.52349195       1.08258723
H       -1.68694939       0.42413938      -1.63263204
H       -0.21330561       1.41948793      -1.65391401
H       -1.72570816       2.06256920      -0.95853119
H        0.32736568       0.99869801       0.80751677
H       -1.89459984      -0.94774739       1.13949319
H       -1.30316630      -1.69923033       0.64736540
H        0.30624008      -1.08846203       1.27601150
H        3.16550681      -0.97219867      -0.86600946
15
Frame=9 idx=011951 GeodesicLength=1.0450095521968796 rxn_smarts="[C:1]([C@@:2]([O:3][H:12])([C:4]([O:5][C:6](=[O:7])[H:15])([H:13])[H:14])[H:11])([H:8])([H:9])[H:10]>>[C:1]([C:2](=[O:3])[C:4]([O:5][C:6](=[O:7])[H:15])([H:11])[H:14])([H:8])([H:9])[H:10].[H:12][H:13]"
C       -1.11380491       1.17764751      -1.08703775
C       -0.76942667       0.62020045       0.27041755
O       -1.69703384       0.57112148       1.18142422
C        0.14988931      -0.55150031       0.33587991
O        1.21031096      -0.79014608      -0.51935889
C        2.47487782      -0.71404655      -0.04599148
O        2.76953400      -0.47299047       1.08363962
H       -1.68949510       0.43077952      -1.63778125
H       -0.21632277       1.42722815      -1.65602506
H       -1.72843916       2.06595283      -0.95445442
H        0.36026029       0.95902161       0.80290899
H       -1.90383890      -0.92636691       1.18110474
H       -1.30734946      -1.70544004       0.64394504
H        0.28332160      -1.12572298       1.24989621
H        3.17751682      -0.96573820      -0.84856741
15
Frame=10 idx=011951 GeodesicLength=1.1605988765093866 rxn_smarts="[C:1]([C@@:2]([O:3][H:12])([C:4]([O:5][C:6](=[O:7])[H:15])([H:13])[H:14])[H:11])([H:8])([H:9])[H:10]>>[C:1]([C:2](=[O:3])[C:4]([O:5][C:6](=[O:7])[H:15])([H:11])[H:14])([H:8])([H:9])[H:10].[H:12][H:13]"
C       -1.11663296       1.18192076      -1.08981601
C       -0.76459730       0.61969151       0.26235476
O       -1.68344631       0.58187929       1.18335205
C        0.14106130      -0.56651812       0.32085719
O        1.21742298      -0.81511541      -0.52065095
C        2.47346905      -0.70154949      -0.04158827
O        2.75629437      -0.42788840       1.08486421
H       -1.69167849       0.43651834      -1.64318486
H       -0.21975391       1.43525484      -1.65822225
H       -1.73231272       2.06854249      -0.95113346
H        0.39144688       0.92019861       0.79822162
H       -1.91010179      -0.90371103       1.22540141
H       -1.31054567      -1.71206623       0.63704042
H        0.26026341      -1.16072172       1.22431251
H        3.18911115      -0.95643543      -0.83180838
15
Frame=11 idx=011951 GeodesicLength=1.276113373562491 rxn_smarts="[C:1]([C@@:2]([O:3][H:12])([C:4]([O:5][C:6](=[O:7])[H:15])([H:13])[H:14])[H:11])([H:8])([H:9])[H:10]>>[C:1]([C:2](=[O:3])[C:4]([O:5][C:6](=[O:7])[H:15])([H:11])[H:14])([H:8])([H:9])[H:10].[H:12][H:13]"
C       -1.11998573       1.18599110      -1.09284764
C       -0.76005625       0.61960029       0.25416849
O       -1.66997119       0.59264958       1.18498201
C        0.13275105      -0.58011904       0.30640311
O        1.22505170      -0.83924733      -0.52069057
C        2.47193642      -0.69072632      -0.03660216
O        2.74285890      -0.38716085       1.08634162
H       -1.69360439       0.44147925      -1.64885284
H       -0.22377177       1.44375632      -1.66043995
H       -1.73750514       2.07038539      -0.94841092
H        0.42093467       0.88227256       0.79356892
H       -1.91311890      -0.87977216       1.27257536
H       -1.31277358      -1.71923410       0.62608545
H        0.23704644      -1.19371225       1.19898422
H        3.20020777      -0.94616243      -0.81526511
15
Frame=12 idx=011951 GeodesicLength=1.3915739423700138 rxn_smarts="[C:1]([C@@:2]([O:3][H:12])([C:4]([O:5][C:6](=[O:7])[H:15])([H:13])[H:14])[H:11])([H:8])([H:9])[H:10]>>[C:1]([C:2](=[O:3])[C:4]([O:5][C:6](=[O:7])[H:15])([H:11])[H:14])([H:8])([H:9])[H:10].[H:12][H:13]"
C       -1.12398941       1.18991375      -1.09610642
C       -0.75587113       0.61989987       0.24583737
O       -1.65666448       0.60337458       1.18631710
C        0.12496239      -0.59234636       0.29238764
O        1.23321121      -0.86244324      -0.51957612
C        2.47040999      -0.68109275      -0.03104972
O        2.72941530      -0.35003801       1.08816720
H       -1.69541378       0.44575765      -1.65479875
H       -0.22853797       1.45284202      -1.66267072
H       -1.74414493       2.07151806      -0.94617362
H        0.44876961       0.84525794       0.78902345
H       -1.91251628      -0.85444862       1.32298962
H       -1.31411018      -1.72703400       0.61051182
H        0.21360379      -1.22494227       1.17362962
H        3.21087586      -0.93621863      -0.79848847
15
Frame=13 idx=011951 GeodesicLength=1.506989416553468 rxn_smarts="[C:1]([C@@:2]([O:3][H:12])([C:4]([O:5][C:6](=[O:7])[H:15])([H:13])[H:14])[H:11])([H:8])([H:9])[H:10]>>[C:1]([C:2](=[O:3])[C:4]([O:5][C:6](=[O:7])[H:15])([H:11])[H:14])([H:8])([H:9])[H:10].[H:12][H:13]"
C       -1.12864858       1.19364153      -1.09962839
C       -0.75205095       0.62052577       0.23731505
O       -1.64352106       0.61413278       1.18733226
C        0.11761595      -0.60337383       0.27873690
O        1.24182921      -0.88491164      -0.51730806
C        2.46889997      -0.67267047      -0.02479362
O        2.71600172      -0.31627107       1.09056393
H       -1.69721917       0.44937682      -1.66103109
H       -0.23406974       1.46236189      -1.66499466
H       -1.75212768       2.07195976      -0.94443978
H        0.47507159       0.80902249       0.78461391
H       -1.90780774      -0.82735516       1.37724340
H       -1.31481551      -1.73549438       0.58982307
H        0.18968605      -1.25473143       1.14804739
H        3.22115596      -0.92621307      -0.78148030
15
Frame=14 idx=011951 GeodesicLength=1.622367166673911 rxn_smarts="[C:1]([C@@:2]([O:3][H:12])([C:4]([O:5][C:6](=[O:7])[H:15])([H:13])[H:14])[H:11])([H:8])([H:9])[H:10]>>[C:1]([C:2](=[O:3])[C:4]([O:5][C:6](=[O:7])[H:15])([H:11])[H:14])([H:8])([H:9])[H:10].[H:12][H:13]"
C       -1.13405715       1.19717157      -1.10343916
C       -0.74865694       0.62142611       0.22854308
O       -1.63059086       0.62489866       1.18798413
C        0.11066119      -0.61329573       0.26531125
O        1.25088839      -0.90668056      -0.51393379
C        2.46742893      -0.66533444      -0.01770500
O        2.70258783      -0.28548793       1.09373314
H       -1.69918270       0.45239294      -1.66757708
H       -0.24049040       1.47228718      -1.66747810
H       -1.76148771       2.07173122      -0.94317721
H        0.49987909       0.77349478       0.78036715
H       -1.89820422      -0.79810178       1.43607107
H       -1.31499226      -1.74466660       0.56331722
H        0.16508309      -1.28334929       1.12190599
H        3.23113371      -0.91648612      -0.76392269
15
Frame=15 idx=011951 GeodesicLength=1.7377169072501761 rxn_smarts="[C:1]([C@@:2]([O:3][H:12])([C:4]([O:5][C:6](=[O:7])[H:15])([H:13])[H:14])[H:11])([H:8])([H:9])[H:10]>>[C:1]([C:2](=[O:3])[C:4]([O:5][C:6](=[O:7])[H:15])([H:11])[H:14])([H:8])([H:9])[H:10].[H:12][H:13]"
C       -1.14035220       1.20050354      -1.10757809
C       -0.74578818       0.62254013       0.21943904
O       -1.61797454       0.63558686       1.18818988
C        0.10403212      -0.62219429       0.25192438
O        1.26037843      -0.92773783      -0.50951739
C        2.46598982      -0.65898281      -0.00960391
O        2.68904366      -0.25739877       1.09793115
H       -1.70150173       0.45486890      -1.67448698
H       -0.24797133       1.48260731      -1.67019751
H       -1.77231071       2.07084521      -0.94235670
H        0.52317764       0.73859915       0.77629211
H       -1.88251012      -0.76612795       1.50043754
H       -1.31468005      -1.75460623       0.53010815
H        0.13953756      -1.31106569       1.09477387
H        3.24092963      -0.90743752      -0.74535553
15
Frame=16 idx=011951 GeodesicLength=1.8530554321697 rxn_smarts="[C:1]([C@@:2]([O:3][H:12])([C:4]([O:5][C:6](=[O:7])[H:15])([H:13])[H:14])[H:11])([H:8])([H:9])[H:10]>>[C:1]([C:2](=[O:3])[C:4]([O:5][C:6](=[O:7])[H:15])([H:11])[H:14])([H:8])([H:9])[H:10].[H:12][H:13]"
C       -1.14772573       1.20364476      -1.11210401
C       -0.74360401       0.62378769       0.20988804
O       -1.60587110       0.64599721       1.18780429
C        0.09763447      -0.63014639       0.23832588
O        1.27028879      -0.94803315      -0.50414071
C        2.46453307      -0.65354070      -0.00023824
O        2.67511546      -0.23179193       1.10349355
H       -1.70441104       0.45688441      -1.68185864
H       -0.25673827       1.49334787      -1.67323166
H       -1.78475166       2.06930553      -0.94195017
H        0.54487706       0.70425009       0.77237717
H       -1.85892105      -0.73060928       1.57161269
H       -1.31383877      -1.76537713       0.48906427
H        0.11272148      -1.33815883       1.06608458
H        3.25069130      -0.89956015      -0.72512704
