17
Frame=0 idx=009548 GeodesicLength=0.0 rxn_smarts="[C:1]([O:2][C@@:3]1([H:11])[C@@:4]2([H:12])[C:5]([H:13])([H:14])[C:6]([H:15])([H:16])[C@@:7]12[H:17])([H:8])([H:9])[H:10]>>[C:1]([O:2][C:3]([C@@:4]1([H:12])[C:5]([H:13])([H:14])[C:6]([H:15])([H:16])[C:7]1)([H:11])[H:17])([H:8])([H:9])[H:10]"
C        2.35813202       0.01809171       0.53651092
O        1.00545974      -0.30292461       0.76755695
C        0.37771483      -0.84488264      -0.34012996
C       -1.14661600      -0.88525951      -0.24625642
C       -1.68555619       0.22281830       0.65936020
C       -1.29142629       1.19679223      -0.46927849
C       -1.02721581       0.03357135      -1.44960384
H        2.75266052       0.43173941       1.46267707
H        2.45737827       0.76236167      -0.26266879
H        2.93900040      -0.87090822       0.26440374
H        0.76050763      -1.82525038      -0.63746540
H       -1.56637612      -1.88680594      -0.28230004
H       -2.76512571       0.15022876       0.78692634
H       -1.21367463       0.34042683       1.63428612
H       -2.10173959       1.80911804      -0.87124905
H       -0.44902828       1.86078936      -0.27314154
H        0.59590521      -0.20990630      -1.27962775
17
Frame=1 idx=009548 GeodesicLength=0.06797981922556538 rxn_smarts="[C:1]([O:2][C@@:3]1([H:11])[C@@:4]2([H:12])[C:5]([H:13])([H:14])[C:6]([H:15])([H:16])[C@@:7]12[H:17])([H:8])([H:9])[H:10]>>[C:1]([O:2][C:3]([C@@:4]1([H:12])[C:5]([H:13])([H:14])[C:6]([H:15])([H:16])[C:7]1)([H:11])[H:17])([H:8])([H:9])[H:10]"
C        2.36410263       0.01771899       0.53320679
O        1.00714589      -0.28467546       0.76153885
C        0.37896810      -0.84232924      -0.33914058
C       -1.14320753      -0.88286910      -0.24605858
C       -1.69264506       0.21921228       0.66038098
C       -1.29951095       1.20092407      -0.46197588
C       -1.01502428       0.04568113      -1.44141350
H        2.75675588       0.44765552       1.45278566
H        2.47636069       0.74364887      -0.28099902
H        2.93745111      -0.88312897       0.28480743
H        0.76142429      -1.82935110      -0.61444001
H       -1.56711559      -1.88190580      -0.29932376
H       -2.77225721       0.14001841       0.78360938
H       -1.22558276       0.33532608       1.63781481
H       -2.10849231       1.81444778      -0.86424124
H       -0.45695059       1.86297602      -0.25772757
H        0.59857769      -0.22334949      -1.30882377
17
Frame=2 idx=009548 GeodesicLength=0.13586102118992588 rxn_smarts="[C:1]([O:2][C@@:3]1([H:11])[C@@:4]2([H:12])[C:5]([H:13])([H:14])[C:6]([H:15])([H:16])[C@@:7]12[H:17])([H:8])([H:9])[H:10]>>[C:1]([O:2][C:3]([C@@:4]1([H:12])[C:5]([H:13])([H:14])[C:6]([H:15])([H:16])[C:7]1)([H:11])[H:17])([H:8])([H:9])[H:10]"
C        2.36975829       0.01765774       0.52983615
O        1.00893014      -0.26693462       0.75543669
C        0.38022593      -0.84020132      -0.33795576
C       -1.13985706      -0.88047198      -0.24594949
C       -1.69955185       0.21557684       0.66135486
C       -1.30717240       1.20504962      -0.45453503
C       -1.00224072       0.05803299      -1.43289980
H        2.76078112       0.46389246       1.44237508
H        2.49432055       0.72492935      -0.29890954
H        2.93573260      -0.89411807       0.30512071
H        0.76220722      -1.83340332      -0.59116596
H       -1.56804025      -1.87661785      -0.31683667
H       -2.77918711       0.13003499       0.78008571
H       -1.23732460       0.32989871       1.64130835
H       -2.11467799       1.81990103      -0.85717966
H       -0.46450918       1.86503329      -0.24184143
H        0.60060532      -0.23825987      -1.33824422
17
Frame=3 idx=009548 GeodesicLength=0.20368690388212635 rxn_smarts="[C:1]([O:2][C@@:3]1([H:11])[C@@:4]2([H:12])[C:5]([H:13])([H:14])[C:6]([H:15])([H:16])[C@@:7]12[H:17])([H:8])([H:9])[H:10]>>[C:1]([O:2][C:3]([C@@:4]1([H:12])[C:5]([H:13])([H:14])[C:6]([H:15])([H:16])[C:7]1)([H:11])[H:17])([H:8])([H:9])[H:10]"
C        2.37511754       0.01789511       0.52639061
O        1.01081527      -0.24971692       0.74930341
C        0.38149757      -0.83848756      -0.33653994
C       -1.13655363      -0.87806808      -0.24592857
C       -1.70629409       0.21191579       0.66226591
C       -1.31441307       1.20916756      -0.44696813
C       -0.98881803       0.07062036      -1.42403730
H        2.76476773       0.48039791       1.43144344
H        2.51125501       0.70624087      -0.31639926
H        2.93389053      -0.90390198       0.32527979
H        0.76286463      -1.83739054      -0.56764271
H       -1.56910865      -1.87092234      -0.33483584
H       -2.78593691       0.12027550       0.77631690
H       -1.24893884       0.32415829       1.64475746
H       -2.12029606       1.82546197      -0.85010152
H       -0.47173420       1.86696924      -0.22545807
H        0.60188520      -0.25461519      -1.36784617
17
Frame=4 idx=009548 GeodesicLength=0.27147931160190203 rxn_smarts="[C:1]([O:2][C@@:3]1([H:11])[C@@:4]2([H:12])[C:5]([H:13])([H:14])[C:6]([H:15])([H:16])[C@@:7]12[H:17])([H:8])([H:9])[H:10]>>[C:1]([O:2][C:3]([C@@:4]1([H:12])[C:5]([H:13])([H:14])[C:6]([H:15])([H:16])[C:7]1)([H:11])[H:17])([H:8])([H:9])[H:10]"
C        2.38020584       0.01841083       0.52286672
O        1.01280275      -0.23303474       0.74319262
C        0.38279286      -0.83716888      -0.33486368
C       -1.13328480      -0.87565802      -0.24599209
C       -1.71288966       0.20823362       0.66309855
C       -1.32124030       1.21327400      -0.43928984
C       -0.97471840       0.08343090      -1.41479918
H        2.76873781       0.49712512       1.41999498
H        2.52718683       0.68760374      -0.33348139
H        2.93197245      -0.91252160       0.34523896
H        0.76340554      -1.84128394      -0.54389026
H       -1.57026685      -1.86480103      -0.35330963
H       -2.79252707       0.11073493       0.77226668
H       -1.26046397       0.31812326       1.64815173
H       -2.12535227       1.83111012      -0.84304617
H       -0.47866278       1.86878964      -0.20855923
H        0.60230201      -0.27236794      -1.39757876
17
Frame=5 idx=009548 GeodesicLength=0.33925878836985585 rxn_smarts="[C:1]([O:2][C@@:3]1([H:11])[C@@:4]2([H:12])[C:5]([H:13])([H:14])[C:6]([H:15])([H:16])[C@@:7]12[H:17])([H:8])([H:9])[H:10]>>[C:1]([O:2][C:3]([C@@:4]1([H:12])[C:5]([H:13])([H:14])[C:6]([H:15])([H:16])[C:7]1)([H:11])[H:17])([H:8])([H:9])[H:10]"
C        2.38503343       0.01919353       0.51926652
O        1.01489644      -0.21692594       0.73716510
C        0.38412105      -0.83624064      -0.33289652
C       -1.13004041      -0.87324806      -0.24612804
C       -1.71934933       0.20454118       0.66383638
C       -1.32764560       1.21735972      -0.43152535
C       -0.95990657       0.09643334      -1.40515777
H        2.77272205       0.51400054       1.40805141
H        2.54208377       0.66908326      -0.35011944
H        2.93001595      -0.91998169       0.36490275
H        0.76384957      -1.84507300      -0.51995246
H       -1.57146739      -1.85823819      -0.37222372
H       -2.79897156       0.10142504       0.76789974
H       -1.27193096       0.31182238       1.65147876
H       -2.12982989       1.83682822      -0.83606431
H       -0.48530777       1.87048603      -0.19114423
H        0.60172723      -0.29146571      -1.42738882
17
Frame=6 idx=009548 GeodesicLength=0.4070636203348172 rxn_smarts="[C:1]([O:2][C@@:3]1([H:11])[C@@:4]2([H:12])[C:5]([H:13])([H:14])[C:6]([H:15])([H:16])[C@@:7]12[H:17])([H:8])([H:9])[H:10]>>[C:1]([O:2][C:3]([C@@:4]1([H:12])[C:5]([H:13])([H:14])[C:6]([H:15])([H:16])[C:7]1)([H:11])[H:17])([H:8])([H:9])[H:10]"
C        2.38962944       0.02021547       0.51559617
O        1.01709844      -0.20139969       0.73127572
C        0.38549250      -0.83567640      -0.33061555
C       -1.12680388      -0.87084112      -0.24632147
C       -1.72568873       0.20084654       0.66446456
C       -1.33364160       1.22141420      -0.42370142
C       -0.94437087       0.10959624      -1.39508775
H        2.77674209       0.53096377       1.39563459
H        2.55598833       0.65070017      -0.36631953
H        2.92807477      -0.92634412       0.38423549
H        0.76421471      -1.84872775      -0.49587994
H       -1.57265447      -1.85123253      -0.39154179
H       -2.80528607       0.09234242       0.76318658
H       -1.28337468       0.30528918       1.65472593
H       -2.13374082       1.84258901      -0.82920387
H       -0.49170901       1.87205594      -0.17322249
H        0.60002985      -0.31179134      -1.45722522
17
Frame=7 idx=009548 GeodesicLength=0.4749106995172064 rxn_smarts="[C:1]([O:2][C@@:3]1([H:11])[C@@:4]2([H:12])[C:5]([H:13])([H:14])[C:6]([H:15])([H:16])[C@@:7]12[H:17])([H:8])([H:9])[H:10]>>[C:1]([O:2][C:3]([C@@:4]1([H:12])[C:5]([H:13])([H:14])[C:6]([H:15])([H:16])[C:7]1)([H:11])[H:17])([H:8])([H:9])[H:10]"
C        2.39401716       0.02145314       0.51186788
O        1.01941367      -0.18648554       0.72558051
C        0.38692096      -0.83546062      -0.32800543
C       -1.12356102      -0.86844565      -0.24655204
C       -1.73191609       0.19716220       0.66496813
C       -1.33922896       1.22542343      -0.41585571
C       -0.92811101       0.12287349      -1.38456832
H        2.78082200       0.54793396       1.38278740
H        2.56890143       0.63250898      -0.38204263
H        2.92618929      -0.93163879       0.40316185
H        0.76452683      -1.85223501      -0.47173775
H       -1.57377994      -1.84378931      -0.41120215
H       -2.81148046       0.08349601       0.75810279
H       -1.29481918       0.29856514       1.65787858
H       -2.13708179       1.84837030      -0.82251957
H       -0.49788550       1.87348551      -0.15482424
H        0.59707260      -0.33321724      -1.48703929
17
Frame=8 idx=009548 GeodesicLength=0.5427936743552843 rxn_smarts="[C:1]([O:2][C@@:3]1([H:11])[C@@:4]2([H:12])[C:5]([H:13])([H:14])[C:6]([H:15])([H:16])[C@@:7]12[H:17])([H:8])([H:9])[H:10]>>[C:1]([O:2][C:3]([C@@:4]1([H:12])[C:5]([H:13])([H:14])[C:6]([H:15])([H:16])[C:7]1)([H:11])[H:17])([H:8])([H:9])[H:10]"
C        2.39821661       0.02287756       0.50810108
O        1.02184254      -0.17220253       0.72013327
C        0.38841431      -0.83556334      -0.32505913
C       -1.12029623      -0.86607174      -0.24678983
C       -1.73803976       0.19350374       0.66533513
C       -1.34441681       1.22936778      -0.40803027
C       -0.91115014       0.13620418      -1.37358092
H        2.78497221       0.56483095       1.36956761
H        2.58086119       0.61455084      -0.39727036
H        2.92441218      -0.93593435       0.42163792
H        0.76482065      -1.85556649      -0.44763066
H       -1.57478403      -1.83592113      -0.43112580
H       -2.81755961       0.07489305       0.75263265
H       -1.30628624       0.29170437       1.66092275
H       -2.13985975       1.85414076      -0.81606752
H       -0.50386491       1.87475820      -0.13599860
H        0.59271777      -0.35557185      -1.51677733
17
Frame=9 idx=009548 GeodesicLength=0.6102857459481792 rxn_smarts="[C:1]([O:2][C@@:3]1([H:11])[C@@:4]2([H:12])[C:5]([H:13])([H:14])[C:6]([H:15])([H:16])[C@@:7]12[H:17])([H:8])([H:9])[H:10]>>[C:1]([O:2][C:3]([C@@:4]1([H:12])[C:5]([H:13])([H:14])[C:6]([H:15])([H:16])[C:7]1)([H:11])[H:17])([H:8])([H:9])[H:10]"
C        2.40225946       0.02444158       0.50436415
O        1.02438748      -0.15855849       0.71490294
C        0.38999017      -0.83589794      -0.32189135
C       -1.11699644      -0.86372336      -0.24698615
C       -1.74404440       0.18990083       0.66557759
C       -1.34925965       1.23322868      -0.40028779
C       -0.89363621       0.14949788      -1.36214060
H        2.78918228       0.58154180       1.35609540
H        2.59203775       0.59682301      -0.41189072
H        2.92271614      -0.93930533       0.43968190
H        0.76515657      -1.85862510      -0.42382353
H       -1.57562853      -1.82768483      -0.45115482
H       -2.82349809       0.06653776       0.74684318
H       -1.31772826       0.28480359       1.66384585
H       -2.14215557       1.85985174      -0.80989394
H       -0.50970912       1.87587047      -0.11689721
H        0.58692642      -0.37870229      -1.54634490
17
Frame=10 idx=009548 GeodesicLength=0.6778580925451942 rxn_smarts="[C:1]([O:2][C@@:3]1([H:11])[C@@:4]2([H:12])[C:5]([H:13])([H:14])[C:6]([H:15])([H:16])[C@@:7]12[H:17])([H:8])([H:9])[H:10]>>[C:1]([O:2][C:3]([C@@:4]1([H:12])[C:5]([H:13])([H:14])[C:6]([H:15])([H:16])[C:7]1)([H:11])[H:17])([H:8])([H:9])[H:10]"
C        2.40616335       0.02613709       0.50063280
O        1.02704951      -0.14558068       0.71002076
C        0.39165268      -0.83650550      -0.31838151
C       -1.11364431      -0.86142573      -0.24712517
C       -1.74995671       0.18635050       0.66566247
C       -1.35371281       1.23698210      -0.39265676
C       -0.87550110       0.16271376      -1.35021910
H        2.79348965       0.59802621       1.34238197
H        2.60232714       0.57941799      -0.42595982
H        2.92120713      -0.94179951       0.45718487
H        0.76554545      -1.86148097      -0.40023418
H       -1.57626243      -1.81907325      -0.47126956
H       -2.82932994       0.05843907       0.74064553
H       -1.32922911       0.27787175       1.66663609
H       -2.14389361       1.86549936      -0.80405728
H       -0.51538620       1.87678166      -0.09749695
H        0.57948132      -0.40235385      -1.57576416
17
Frame=11 idx=009548 GeodesicLength=0.7454942870300172 rxn_smarts="[C:1]([O:2][C@@:3]1([H:11])[C@@:4]2([H:12])[C:5]([H:13])([H:14])[C:6]([H:15])([H:16])[C@@:7]12[H:17])([H:8])([H:9])[H:10]>>[C:1]([O:2][C:3]([C@@:4]1([H:12])[C:5]([H:13])([H:14])[C:6]([H:15])([H:16])[C:7]1)([H:11])[H:17])([H:8])([H:9])[H:10]"
C        2.40995316       0.02793181       0.49694041
O        1.02982835      -0.13327984       0.70552527
C        0.39341203      -0.83735649      -0.31454312
C       -1.11022581      -0.85919623      -0.24717027
C       -1.75577925       0.18286689       0.66558252
C       -1.35778527       1.24060503      -0.38518738
C       -0.85681706       0.17577567      -1.33782129
H        2.79789967       0.61421332       1.32850718
H        2.61177700       0.56237948      -0.43944530
H        2.91992162      -0.94349639       0.47411866
H        0.76602842      -1.86412435      -0.37696728
H       -1.57664182      -1.81012406      -0.49135887
H       -2.83505470       0.05060326       0.73404143
H       -1.34079920       0.27096830       1.66928202
H       -2.14508287       1.87105871      -0.79860339
H       -0.52090583       1.87746520      -0.07788637
H        0.57027156      -0.42629032      -1.60501421
17
Frame=12 idx=009548 GeodesicLength=0.8131881695847595 rxn_smarts="[C:1]([O:2][C@@:3]1([H:11])[C@@:4]2([H:12])[C:5]([H:13])([H:14])[C:6]([H:15])([H:16])[C@@:7]12[H:17])([H:8])([H:9])[H:10]>>[C:1]([O:2][C:3]([C@@:4]1([H:12])[C:5]([H:13])([H:14])[C:6]([H:15])([H:16])[C:7]1)([H:11])[H:17])([H:8])([H:9])[H:10]"
C        2.41364408       0.02980673       0.49331817
O        1.03272675      -0.12167528       0.70145206
C        0.39528013      -0.83843558      -0.31038663
C       -1.10672779      -0.85705621      -0.24708314
C       -1.76150890       0.17946524       0.66533136
C       -1.36147507       1.24407251      -0.37793383
C       -0.83765914       0.18860131      -1.32495716
H        2.80242846       0.63001308       1.31455925
H        2.62040349       0.54577223      -0.45228812
H        2.91888243      -0.94443460       0.49043310
H        0.76664753      -1.86656475      -0.35411237
H       -1.57674643      -1.80088756      -0.51131330
H       -2.84066802       0.04304498       0.72703610
H       -1.35243990       0.26415282       1.67177148
H       -2.14572001       1.87651112      -0.79357684
H       -0.52626079       1.87788865      -0.05816445
H        0.55919317      -0.45027468      -1.63408568
17
Frame=13 idx=009548 GeodesicLength=0.880941732845876 rxn_smarts="[C:1]([O:2][C@@:3]1([H:11])[C@@:4]2([H:12])[C:5]([H:13])([H:14])[C:6]([H:15])([H:16])[C@@:7]12[H:17])([H:8])([H:9])[H:10]>>[C:1]([O:2][C:3]([C@@:4]1([H:12])[C:5]([H:13])([H:14])[C:6]([H:15])([H:16])[C:7]1)([H:11])[H:17])([H:8])([H:9])[H:10]"
C        2.41726327       0.03172560       0.48979806
O        1.03574480      -0.11076144       0.69783505
C        0.39726526      -0.83971493      -0.30592273
C       -1.10313676      -0.85502584      -0.24682697
C       -1.76714847       0.17615710       0.66490309
C       -1.36479100       1.24736032      -0.37094667
C       -0.81811331       0.20111247      -1.31163957
H        2.80707082       0.64536558       1.30062326
H        2.62826885       0.52962787      -0.46447802
H        2.91811865      -0.94470594       0.50611830
H        0.76744446      -1.86880058      -0.33175791
H       -1.57653631      -1.79141716      -0.53101284
H       -2.84616879       0.03576619       0.71963567
H       -1.36416157       0.25748339       1.67409362
H       -2.14581551       1.88183387      -0.78901558
H       -0.53145870       1.87802751      -0.03842932
H        0.54615430      -0.47403402      -1.66297744
17
Frame=14 idx=009548 GeodesicLength=0.9487473800140243 rxn_smarts="[C:1]([O:2][C@@:3]1([H:11])[C@@:4]2([H:12])[C:5]([H:13])([H:14])[C:6]([H:15])([H:16])[C@@:7]12[H:17])([H:8])([H:9])[H:10]>>[C:1]([O:2][C:3]([C@@:4]1([H:12])[C:5]([H:13])([H:14])[C:6]([H:15])([H:16])[C:7]1)([H:11])[H:17])([H:8])([H:9])[H:10]"
C        2.42082801       0.03366708       0.48641306
O        1.03887596      -0.10053687       0.69470716
C        0.39937262      -0.84117237      -0.30116478
C       -1.09944132      -0.85313082      -0.24635615
C       -1.77269836       0.17295546       0.66429525
C       -1.36773667       1.25044371      -0.36427468
C       -0.79826436       0.21321939      -1.29789392
H        2.81182532       0.66020298       1.28679321
H        2.63542735       0.51400162      -0.47598956
H        2.91765990      -0.94439508       0.52114916
H        0.76845822      -1.87084124      -0.30999157
H       -1.57598167      -1.78177055      -0.55033551
H       -2.85155321       0.02877442       0.71184921
H       -1.37597272       0.25102243       1.67624244
H       -2.14537248       1.88700388      -0.78495776
H       -0.53649418       1.87785425      -0.01878887
H        0.53106758      -0.49729828      -1.69169668
17
Frame=15 idx=009548 GeodesicLength=1.0165935134038055 rxn_smarts="[C:1]([O:2][C@@:3]1([H:11])[C@@:4]2([H:12])[C:5]([H:13])([H:14])[C:6]([H:15])([H:16])[C@@:7]12[H:17])([H:8])([H:9])[H:10]>>[C:1]([O:2][C:3]([C@@:4]1([H:12])[C:5]([H:13])([H:14])[C:6]([H:15])([H:16])[C:7]1)([H:11])[H:17])([H:8])([H:9])[H:10]"
C        2.42435624       0.03560976       0.48319193
O        1.04211535      -0.09099397       0.69209321
C        0.40160638      -0.84278969      -0.29612720
C       -1.09563280      -0.85139627      -0.24563024
C       -1.77815869       0.16987050       0.66350768
C       -1.37031496       1.25330166      -0.35796059
C       -0.77819951       0.22484416      -1.28374977
H        2.81667253       0.67448350       1.27316525
H        2.64194212       0.49893559      -0.48682149
H        2.91752971      -0.94358959       0.53552038
H        0.76972749      -1.87270014      -0.28889015
H       -1.57506236      -1.77201074      -0.56916512
H       -2.85681810       0.02207333       0.70369088
H       -1.38787971       0.24482437       1.67821422
H       -2.14439495       1.89200486      -0.78143013
H       -0.54135942       1.87734885       0.00065574
H        0.51387071      -0.51981616      -1.72026459
17
Frame=16 idx=009548 GeodesicLength=1.0844482481039575 rxn_smarts="[C:1]([O:2][C@@:3]1([H:11])[C@@:4]2([H:12])[C:5]([H:13])([H:14])[C:6]([H:15])([H:16])[C@@:7]12[H:17])([H:8])([H:9])[H:10]>>[C:1]([O:2][C:3]([C@@:4]1([H:12])[C:5]([H:13])([H:14])[C:6]([H:15])([H:16])[C:7]1)([H:11])[H:17])([H:8])([H:9])[H:10]"
C        2.42786050       0.03754038       0.48016280
O        1.04545616      -0.08212757       0.69001161
C        0.40397010      -0.84455656      -0.29082602
C       -1.09170494      -0.84984842      -0.24461096
C       -1.78352756       0.16691182       0.66254092
C       -1.37252474       1.25591654      -0.35204302
C       -0.75799826       0.23591403      -1.26924194
H        2.82159593       0.68816368       1.25983509
H        2.64786092       0.48449266      -0.49696339
H        2.91775120      -0.94236311       0.54921247
H        0.77128468      -1.87440027      -0.26851147
H       -1.57377122      -1.76220189      -0.58739456
H       -2.86195878       0.01566912       0.69517565
H       -1.39988613       0.23893942       1.68000713
H       -2.14288227       1.89682329      -0.77845669
H       -0.54603965       1.87649586       0.01980722
H        0.49451405      -0.54136898      -1.74870484
