15
Frame=0 idx=000249 GeodesicLength=0.0 rxn_smarts="[C:1]([C:2]([C:3]([C:4]([C:5]#[N:6])([H:14])[H:15])([H:12])[H:13])([H:10])[H:11])([H:7])([H:8])[H:9]>>[C:1](/[C:2](=[C:3](/[C:4]([C:5]#[N:6])([H:14])[H:15])[H:13])[H:10])([H:8])([H:9])[H:11].[H:7][H:12]"
C       -2.10349800      -0.02217273       0.32692317
C       -0.83302666       0.64151596       0.05226774
C        0.26788525      -0.11825506      -0.37122006
C        1.65515990       0.46470390      -0.42739955
C        2.68141678      -0.54299037      -0.15361692
N        3.48306662      -1.33775823       0.04894481
H       -1.08439903      -1.25669175       1.26017422
H       -2.89197167       0.52959757       0.82614842
H       -2.41990295      -0.81074823      -0.34624079
H       -0.62728219       1.51077085       0.67244968
H       -1.57636189       0.98676694      -0.79191015
H       -0.29154850      -1.24146853       1.02555997
H        0.08525913      -0.96635462      -1.02310206
H        1.76783055       1.26444267       0.30832655
H        1.88737269       0.89864157      -1.40730499
15
Frame=1 idx=000249 GeodesicLength=0.08238846714345895 rxn_smarts="[C:1]([C:2]([C:3]([C:4]([C:5]#[N:6])([H:14])[H:15])([H:12])[H:13])([H:10])[H:11])([H:7])([H:8])[H:9]>>[C:1](/[C:2](=[C:3](/[C:4]([C:5]#[N:6])([H:14])[H:15])[H:13])[H:10])([H:8])([H:9])[H:11].[H:7][H:12]"
C       -2.10120041      -0.02075092       0.32674575
C       -0.83193643       0.64905346       0.04442430
C        0.26904590      -0.11919001      -0.36728109
C        1.65640750       0.46456838      -0.42454460
C        2.68130217      -0.54358603      -0.14776518
N        3.47571311      -1.34392224       0.06141506
H       -1.08556411      -1.26177291       1.25668609
H       -2.88210090       0.52650587       0.84279528
H       -2.41866995      -0.80962135      -0.34605710
H       -0.62576261       1.51974011       0.66264852
H       -1.60334797       0.98542569      -0.79641364
H       -0.27644138      -1.24890436       1.01555711
H        0.08598429      -0.95900338      -1.03019631
H        1.76981739       1.26675486       0.30831352
H        1.88675340       0.89470281      -1.40632769
15
Frame=2 idx=000249 GeodesicLength=0.16462846356172445 rxn_smarts="[C:1]([C:2]([C:3]([C:4]([C:5]#[N:6])([H:14])[H:15])([H:12])[H:13])([H:10])[H:11])([H:7])([H:8])[H:9]>>[C:1](/[C:2](=[C:3](/[C:4]([C:5]#[N:6])([H:14])[H:15])[H:13])[H:10])([H:8])([H:9])[H:11].[H:7][H:12]"
C       -2.09888640      -0.01926176       0.32645738
C       -0.83084344       0.65654060       0.03625010
C        0.27019243      -0.12020243      -0.36331383
C        1.65763729       0.46439855      -0.42170921
C        2.68124697      -0.54413638      -0.14195086
N        3.46839949      -1.34990389       0.07388988
H       -1.08719143      -1.26686116       1.25331431
H       -2.87184154       0.52346884       0.85922098
H       -2.41746127      -0.80845249      -0.34593989
H       -0.62414916       1.52848022       0.65275852
H       -1.63068694       0.98432598      -0.80037460
H       -0.26112138      -1.25644177       1.00551474
H        0.08685170      -0.95173848      -1.03703459
H        1.77176490       1.26903399       0.30826533
H        1.88608877       0.89075019      -1.40534825
15
Frame=3 idx=000249 GeodesicLength=0.246766730714797 rxn_smarts="[C:1]([C:2]([C:3]([C:4]([C:5]#[N:6])([H:14])[H:15])([H:12])[H:13])([H:10])[H:11])([H:7])([H:8])[H:9]>>[C:1](/[C:2](=[C:3](/[C:4]([C:5]#[N:6])([H:14])[H:15])[H:13])[H:10])([H:8])([H:9])[H:11].[H:7][H:12]"
C       -2.09655988      -0.01770156       0.32605281
C       -0.82974374       0.66396658       0.02774622
C        0.27132559      -0.12129748      -0.35930448
C        1.65884885       0.46419261      -0.41888597
C        2.68125853      -0.54464010      -0.13618098
N        3.46114002      -1.35569097       0.08633969
H       -1.08932153      -1.27195893       1.25007268
H       -2.86119605       0.52049050       0.87540562
H       -2.41627950      -0.80723070      -0.34590143
H       -0.62244779       1.53700312       0.64275333
H       -1.65837672       0.98347672      -0.80377378
H       -0.24555872      -1.26409338       0.99543824
H        0.08786614      -0.94457973      -1.04359864
H        1.77367305       1.27127319       0.30819395
H        1.88537175       0.88679014      -1.40435724
15
Frame=4 idx=000249 GeodesicLength=0.3288908338980746 rxn_smarts="[C:1]([C:2]([C:3]([C:4]([C:5]#[N:6])([H:14])[H:15])([H:12])[H:13])([H:10])[H:11])([H:7])([H:8])[H:9]>>[C:1](/[C:2](=[C:3](/[C:4]([C:5]#[N:6])([H:14])[H:15])[H:13])[H:10])([H:8])([H:9])[H:11].[H:7][H:12]"
C       -2.09422486      -0.01606602       0.32552628
C       -0.82863147       0.67131736       0.01892176
C        0.27244739      -0.12248128      -0.35523474
C        1.66004157       0.46395085      -0.41606714
C        2.68134772      -0.54509020      -0.13046219
N        3.45395301      -1.36127698       0.09872524
H       -1.09200920      -1.27706861       1.24697881
H       -2.85017375       0.51758137       0.89132259
H       -2.41512671      -0.80594524      -0.34595591
H       -0.62066425       1.54531916       0.63261138
H       -1.68641156       0.98288286      -0.80659702
H       -0.22971554      -1.27187461       0.98533322
H        0.08903408      -0.93754765      -1.04986572
H        1.77554157       1.27346956       0.30810977
H        1.88459200       0.88282941      -1.40334634
15
Frame=5 idx=000249 GeodesicLength=0.41102976990762574 rxn_smarts="[C:1]([C:2]([C:3]([C:4]([C:5]#[N:6])([H:14])[H:15])([H:12])[H:13])([H:10])[H:11])([H:7])([H:8])[H:9]>>[C:1](/[C:2](=[C:3](/[C:4]([C:5]#[N:6])([H:14])[H:15])[H:13])[H:10])([H:8])([H:9])[H:11].[H:7][H:12]"
C       -2.09188498      -0.01435802       0.32487525
C       -0.82750417       0.67857979       0.00978518
C        0.27355912      -0.12375784      -0.35108705
C        1.66121352       0.46367625      -0.41324703
C        2.68152328      -0.54547508      -0.12479825
N        3.44685526      -1.36666771       0.11100768
H       -1.09530336      -1.28219275       1.24405089
H       -2.83879231       0.51475933       0.90693955
H       -2.41400342      -0.80458991      -0.34611884
H       -0.61880777       1.55343491       0.62231788
H       -1.71477292       0.98255109      -0.80882592
H       -0.21355099      -1.27980058       0.97520576
H        0.09036212      -0.93065953      -1.05581294
H        1.77736835       1.27562624       0.30801929
H        1.88373829       0.87887381      -1.40231146
15
Frame=6 idx=000249 GeodesicLength=0.4932576465396603 rxn_smarts="[C:1]([C:2]([C:3]([C:4]([C:5]#[N:6])([H:14])[H:15])([H:12])[H:13])([H:10])[H:11])([H:7])([H:8])[H:9]>>[C:1](/[C:2](=[C:3](/[C:4]([C:5]#[N:6])([H:14])[H:15])[H:13])[H:10])([H:8])([H:9])[H:11].[H:7][H:12]"
C       -2.08954661      -0.01256909       0.32409162
C       -0.82635129       0.68573885       0.00035097
C        0.27466298      -0.12513503      -0.34684287
C        1.66236452       0.46336574      -0.41042516
C        2.68179763      -0.54579105      -0.11920268
N        3.43986723      -1.37183567       0.12317905
H       -1.09926851      -1.28733793       1.24130028
H       -2.82705964       0.51203081       0.92223753
H       -2.41291545      -0.80314355      -0.34641150
H       -0.61687609       1.56135616       0.61186071
H       -1.74345910       0.98248978      -0.81043390
H       -0.19702224      -1.28789471       0.96505210
H        0.09185241      -0.92393696      -1.06142154
H        1.77915612       1.27774156       0.30791968
H        1.88279804       0.87492110      -1.40125430
15
Frame=7 idx=000249 GeodesicLength=0.5755786372524601 rxn_smarts="[C:1]([C:2]([C:3]([C:4]([C:5]#[N:6])([H:14])[H:15])([H:12])[H:13])([H:10])[H:11])([H:7])([H:8])[H:9]>>[C:1](/[C:2](=[C:3](/[C:4]([C:5]#[N:6])([H:14])[H:15])[H:13])[H:10])([H:8])([H:9])[H:11].[H:7][H:12]"
C       -2.08721349      -0.01069718       0.32317115
C       -0.82516705       0.69277929      -0.00936646
C        0.27576051      -0.12661813      -0.34248262
C        1.66349245       0.46302148      -0.40759933
C        2.68218165      -0.54602491      -0.11368240
N        3.43300727      -1.37677928       0.13521593
H       -1.10396097      -1.29251259       1.23873485
H       -2.81499357       0.50941166       0.93718930
H       -2.41186580      -0.80159329      -0.34685205
H       -0.61487425       1.56908849       0.60122815
H       -1.77245385       0.98270615      -0.81139752
H       -0.18008364      -1.29617548       0.95487543
H        0.09350981      -0.91739904      -1.06666820
H        1.78090353       1.27982111       0.30780945
H        1.88175742       0.87097169      -1.40017569
15
Frame=8 idx=000249 GeodesicLength=0.6580184923553142 rxn_smarts="[C:1]([C:2]([C:3]([C:4]([C:5]#[N:6])([H:14])[H:15])([H:12])[H:13])([H:10])[H:11])([H:7])([H:8])[H:9]>>[C:1](/[C:2](=[C:3](/[C:4]([C:5]#[N:6])([H:14])[H:15])[H:13])[H:10])([H:8])([H:9])[H:11].[H:7][H:12]"
C       -2.08489406      -0.00873769       0.32210665
C       -0.82394205       0.69968663      -0.01934814
C        0.27685358      -0.12821371      -0.33798419
C        1.66459630       0.46264363      -0.40477193
C        2.68268935      -0.54616587      -0.10825025
N        3.42629648      -1.38148248       0.14711079
H       -1.10945154      -1.29772394       1.23636612
H       -2.80261112       0.50690799       0.95177351
H       -2.41086072      -0.79991913      -0.34746598
H       -0.61280181       1.57663486       0.59041825
H       -1.80173843       0.98320978      -0.81169241
H       -0.16268535      -1.30466653       0.94467220
H        0.09533553      -0.91106542      -1.07152973
H        1.78261350       1.28187080       0.30767850
H        1.88060034       0.86702106      -1.39908340
15
Frame=9 idx=000249 GeodesicLength=0.7405826587114815 rxn_smarts="[C:1]([C:2]([C:3]([C:4]([C:5]#[N:6])([H:14])[H:15])([H:12])[H:13])([H:10])[H:11])([H:7])([H:8])[H:9]>>[C:1](/[C:2](=[C:3](/[C:4]([C:5]#[N:6])([H:14])[H:15])[H:13])[H:10])([H:8])([H:9])[H:11].[H:7][H:12]"
C       -2.08258954      -0.00668744       0.32089269
C       -0.82266666       0.70644690      -0.02956907
C        0.27794622      -0.12992463      -0.33332440
C        1.66567505       0.46223535      -0.40194112
C        2.68333233      -0.54620095      -0.10291565
N        3.41975341      -1.38594769       0.15884154
H       -1.11580503      -1.30297193       1.23420371
H       -2.78993479       0.50454197       0.96596171
H       -2.40989961      -0.79811017      -0.34827158
H       -0.61066178       1.58400227       0.57942836
H       -1.83130732       0.98398830      -0.81130409
H       -0.14477716      -1.31339234       0.93443691
H        0.09733345      -0.90494752      -1.07598467
H        1.78428929       1.28389804       0.30752502
H        1.87931214       0.86306986      -1.39797935
15
Frame=10 idx=000249 GeodesicLength=0.8233027481347818 rxn_smarts="[C:1]([C:2]([C:3]([C:4]([C:5]#[N:6])([H:14])[H:15])([H:12])[H:13])([H:10])[H:11])([H:7])([H:8])[H:9]>>[C:1](/[C:2](=[C:3](/[C:4]([C:5]#[N:6])([H:14])[H:15])[H:13])[H:10])([H:8])([H:9])[H:11].[H:7][H:12]"
C       -2.08031501      -0.00453745       0.31951424
C       -0.82132775       0.71304184      -0.04000447
C        0.27904076      -0.13176363      -0.32847193
C        1.66672726       0.46179299      -0.39911139
C        2.68413067      -0.54611927      -0.09770229
N        3.41341124      -1.39013891       0.17039407
H       -1.12312032      -1.30826167       1.23226467
H       -2.77699382       0.50231950       0.97972044
H       -2.40899091      -0.79613951      -0.34930538
H       -0.60844844       1.59118446       0.56826831
H       -1.86112815       0.98505950      -0.81019935
H       -0.12629348      -1.32237777       0.92417139
H        0.09950414      -0.89907541      -1.07999783
H        1.78593561       1.28590572       0.30733358
H        1.87786819       0.85910961      -1.39687408
15
Frame=11 idx=000249 GeodesicLength=0.9061445354894293 rxn_smarts="[C:1]([C:2]([C:3]([C:4]([C:5]#[N:6])([H:14])[H:15])([H:12])[H:13])([H:10])[H:11])([H:7])([H:8])[H:9]>>[C:1](/[C:2](=[C:3](/[C:4]([C:5]#[N:6])([H:14])[H:15])[H:13])[H:10])([H:8])([H:9])[H:11].[H:7][H:12]"
C       -2.07808263      -0.00228478       0.31796174
C       -0.81991577       0.71945517      -0.05062496
C        0.28013983      -0.13373980      -0.32339128
C        1.66775010       0.46131741      -0.39628321
C        2.68510252      -0.54590476      -0.09263017
N        3.40729941      -1.39404488       0.18173494
H       -1.13148668      -1.31359574       1.23056499
H       -2.76382529       0.50025408       0.99301468
H       -2.40813835      -0.79398877      -0.35059888
H       -0.60616394       1.59818052       0.55694868
H       -1.89115678       0.98642824      -0.80836819
H       -0.10716953      -1.33164312       0.91388149
H        0.10184851      -0.89347104      -1.08353117
H        1.78755643       1.28790057       0.30709522
H        1.87624216       0.85513689      -1.39577388
15
Frame=12 idx=000249 GeodesicLength=0.9890868985008319 rxn_smarts="[C:1]([C:2]([C:3]([C:4]([C:5]#[N:6])([H:14])[H:15])([H:12])[H:13])([H:10])[H:11])([H:7])([H:8])[H:9]>>[C:1](/[C:2](=[C:3](/[C:4]([C:5]#[N:6])([H:14])[H:15])[H:13])[H:10])([H:8])([H:9])[H:11].[H:7][H:12]"
C       -2.07590504       0.00007881       0.31622052
C       -0.81841562       0.72567206      -0.06139733
C        0.28124778      -0.13586181      -0.31804500
C        1.66874296       0.46080755      -0.39345898
C        2.68626846      -0.54554499      -0.08772297
N        3.40145173      -1.39764481       0.19284046
H       -1.14100345      -1.31896881       1.22912264
H       -2.75046788       0.49835522       1.00581013
H       -2.40734592      -0.79163865      -0.35218547
H       -0.60380455       1.60498893       0.54548640
H       -1.92136444       0.98809427      -0.80579550
H       -0.08733886      -1.34121551       0.90356452
H        0.10436568      -0.88815615      -1.08654907
H        1.78916065       1.28988824       0.30679722
H        1.87440851       0.85114565      -1.39468755
15
Frame=13 idx=000249 GeodesicLength=1.07206893384165 rxn_smarts="[C:1]([C:2]([C:3]([C:4]([C:5]#[N:6])([H:14])[H:15])([H:12])[H:13])([H:10])[H:11])([H:7])([H:8])[H:9]>>[C:1](/[C:2](=[C:3](/[C:4]([C:5]#[N:6])([H:14])[H:15])[H:13])[H:10])([H:8])([H:9])[H:11].[H:7][H:12]"
C       -2.07379368       0.00255759       0.31427804
C       -0.81681421       0.73167626      -0.07228453
C        0.28236850      -0.13813789      -0.31239445
C        1.66970332       0.46026463      -0.39064001
C        2.68764857      -0.54502272      -0.08300510
N        3.39589905      -1.40092954       0.20367531
H       -1.15176823      -1.32437145       1.22795939
H       -2.73696848       0.49664251       1.01806028
H       -2.40661335      -0.78907541      -0.35409564
H       -0.60136930       1.61160473       0.53390411
H       -1.95171184       0.99005297      -0.80247151
H       -0.06672982      -1.35112037       0.89321873
H        0.10705613      -0.88314977      -1.08901205
H        1.79075484       1.29187607       0.30642937
H        1.87233850       0.84713239      -1.39362194
15
Frame=14 idx=000249 GeodesicLength=1.1550561236594055 rxn_smarts="[C:1]([C:2]([C:3]([C:4]([C:5]#[N:6])([H:14])[H:15])([H:12])[H:13])([H:10])[H:11])([H:7])([H:8])[H:9]>>[C:1](/[C:2](=[C:3](/[C:4]([C:5]#[N:6])([H:14])[H:15])[H:13])[H:10])([H:8])([H:9])[H:11].[H:7][H:12]"
C       -2.07176914       0.00516073       0.31211531
C       -0.81509229       0.73745583      -0.08324586
C        0.28350698      -0.14057820      -0.30639154
C        1.67063190       0.45968556      -0.38782922
C        2.68926961      -0.54432583      -0.07850935
N        3.39068352      -1.40387404       0.21420709
H       -1.16389665      -1.32979251       1.22709994
H       -2.72338212       0.49512267       1.02972574
H       -2.40594389      -0.78627692      -0.35637133
H       -0.59885195       1.61802441       0.52223380
H       -1.98216538       0.99229980      -0.79839187
H       -0.04526277      -1.36138383       0.88284241
H        0.10991602      -0.87847452      -1.09087375
H        1.79235444       1.29386808       0.30597625
H        1.87000172       0.84308878      -1.39258763
15
Frame=15 idx=000249 GeodesicLength=1.237971653820066 rxn_smarts="[C:1]([C:2]([C:3]([C:4]([C:5]#[N:6])([H:14])[H:15])([H:12])[H:13])([H:10])[H:11])([H:7])([H:8])[H:9]>>[C:1](/[C:2](=[C:3](/[C:4]([C:5]#[N:6])([H:14])[H:15])[H:13])[H:10])([H:8])([H:9])[H:11].[H:7][H:12]"
C       -2.06984951       0.00789528       0.30971407
C       -0.81323255       0.74299800      -0.09423570
C        0.28466819      -0.14319227      -0.29998392
C        1.67152727       0.45906948      -0.38502827
C        2.69115726      -0.54343757      -0.07426941
N        3.38584563      -1.40646428       0.22438873
H       -1.17750665      -1.33521514       1.22656994
H       -2.70977225       0.49380967       1.04075713
H       -2.40533518      -0.78322768      -0.35905131
H       -0.59624929       1.62424067       0.51051577
H       -2.01267629       0.99482508      -0.79356178
H       -0.02285380      -1.37202904       0.87243729
H        0.11294188      -0.87415088      -1.09208267
H        1.79397276       1.29587056       0.30542397
H        1.86736253       0.83900811      -1.39159384
15
Frame=16 idx=000249 GeodesicLength=1.3207527979186549 rxn_smarts="[C:1]([C:2]([C:3]([C:4]([C:5]#[N:6])([H:14])[H:15])([H:12])[H:13])([H:10])[H:11])([H:7])([H:8])[H:9]>>[C:1](/[C:2](=[C:3](/[C:4]([C:5]#[N:6])([H:14])[H:15])[H:13])[H:10])([H:8])([H:9])[H:11].[H:7][H:12]"
C       -2.06805638       0.01077061       0.30705140
C       -0.81121260       0.74829328      -0.10520336
C        0.28585848      -0.14598886      -0.29311384
C        1.67239049       0.45841413      -0.38223998
C        2.69334217      -0.54234353      -0.07032496
N        3.38142995      -1.40868391       0.23417331
H       -1.19272722      -1.34061427       1.22639922
H       -2.69621060       0.49271192       1.05110629
H       -2.40478387      -0.77991199      -0.36217922
H       -0.59355492       1.63024679       0.49880043
H       -2.04320609       0.99761255      -0.78799259
H        0.00058648      -1.38307972       0.86200201
H        0.11612864      -0.87019775      -1.09258340
H        1.79563020       1.29788846       0.30475646
H        1.86438528       0.83488230      -1.39065178
