13
Frame=0 idx=008305 GeodesicLength=0.0 rxn_smarts="[C:1]([O:2][c:3]1[c:4]([H:11])[n:5]([H:12])[c:6]([H:13])[n:7]1)([H:8])([H:9])[H:10]>>[C:1]([O:2][C:3]1=[N:7][C:6]([H:13])=[N:5][C:4]1([H:11])[H:12])([H:8])([H:9])[H:10]"
C        2.21301857       0.26055052      -0.39300130
O        1.24071146      -0.74745411      -0.14261042
C        0.00186216      -0.31836501       0.08103474
C       -1.09430253      -1.14672720       0.31864670
N       -2.22350604      -0.25034155       0.54964794
C       -1.66894450       0.95221435       0.35401828
N       -0.35920921       0.96484109       0.10739692
H        1.95079962       0.83841492      -1.28063942
H        3.15087319      -0.26700745      -0.54735933
H        2.29453960       0.93859605       0.45763650
H       -1.14960067      -2.18540294       0.59971496
H       -2.09071310      -0.89221277      -0.48238318
H       -2.26552858       1.85289404       0.37789758
13
Frame=1 idx=008305 GeodesicLength=0.04197123404436182 rxn_smarts="[C:1]([O:2][c:3]1[c:4]([H:11])[n:5]([H:12])[c:6]([H:13])[n:7]1)([H:8])([H:9])[H:10]>>[C:1]([O:2][C:3]1=[N:7][C:6]([H:13])=[N:5][C:4]1([H:11])[H:12])([H:8])([H:9])[H:10]"
C        2.21549220       0.26082669      -0.39030677
O        1.23850652      -0.74711395      -0.15842055
C       -0.00028084      -0.31682049       0.06260509
C       -1.09580465      -1.14604317       0.31166275
N       -2.21696054      -0.24860222       0.55602939
C       -1.66747750       0.95347172       0.35583330
N       -0.35833557       0.96628949       0.09722857
H        1.96083184       0.84944775      -1.27305562
H        3.15303577      -0.26747517      -0.54402846
H        2.29297616       0.92907426       0.46843698
H       -1.14099655      -2.17921018       0.61462658
H       -2.11554261      -0.90720796      -0.47791133
H       -2.26544423       1.85336321       0.37730008
13
Frame=2 idx=008305 GeodesicLength=0.08393179683708984 rxn_smarts="[C:1]([O:2][c:3]1[c:4]([H:11])[n:5]([H:12])[c:6]([H:13])[n:7]1)([H:8])([H:9])[H:10]>>[C:1]([O:2][C:3]1=[N:7][C:6]([H:13])=[N:5][C:4]1([H:11])[H:12])([H:8])([H:9])[H:10]"
C        2.21779686       0.26100063      -0.38764586
O        1.23627036      -0.74661680      -0.17412764
C       -0.00239723      -0.31513152       0.04467714
C       -1.09727118      -1.14530103       0.30465100
N       -2.21037756      -0.24684715       0.56176731
C       -1.66590153       0.95479811       0.35769301
N       -0.35729816       0.96785764       0.08788876
H        1.97046167       0.86040835      -1.26519489
H        3.15494920      -0.26808779      -0.54106595
H        2.29143823       0.91925969       0.47912639
H       -1.13197435      -2.17258055       0.62894724
H       -2.14025838      -0.92254561      -0.47278343
H       -2.26543793       1.85378603       0.37606692
13
Frame=3 idx=008305 GeodesicLength=0.12589301002765288 rxn_smarts="[C:1]([O:2][c:3]1[c:4]([H:11])[n:5]([H:12])[c:6]([H:13])[n:7]1)([H:8])([H:9])[H:10]>>[C:1]([O:2][C:3]1=[N:7][C:6]([H:13])=[N:5][C:4]1([H:11])[H:12])([H:8])([H:9])[H:10]"
C        2.21992847       0.26107512      -0.38508758
O        1.23407489      -0.74594879      -0.18931557
C       -0.00439816      -0.31327420       0.02774326
C       -1.09872529      -1.14450560       0.29762054
N       -2.20387471      -0.24509797       0.56662783
C       -1.66424547       0.95619084       0.35964671
N       -0.35604690       0.96955764       0.07970036
H        1.97948475       0.87104678      -1.25724668
H        3.15660566      -0.26883748      -0.53858241
H        2.29007271       0.90939710       0.48944237
H       -1.12272276      -2.16559407       0.64248057
H       -2.16464159      -0.93816918      -0.46728237
H       -2.26551160       1.85415981       0.37425297
13
Frame=4 idx=008305 GeodesicLength=0.16787804746403295 rxn_smarts="[C:1]([O:2][c:3]1[c:4]([H:11])[n:5]([H:12])[c:6]([H:13])[n:7]1)([H:8])([H:9])[H:10]>>[C:1]([O:2][C:3]1=[N:7][C:6]([H:13])=[N:5][C:4]1([H:11])[H:12])([H:8])([H:9])[H:10]"
C        2.22190572       0.26106296      -0.38268025
O        1.23198009      -0.74511305      -0.20368537
C       -0.00621484      -0.31124233       0.01212662
C       -1.10019254      -1.14366055       0.29057553
N       -2.19755030      -0.24336718       0.57047556
C       -1.66253528       0.95764316       0.36173908
N       -0.35455092       0.97138591       0.07284529
H        1.98779127       0.88118869      -1.24937368
H        3.15802727      -0.26970228      -0.53663196
H        2.28899715       0.89969227       0.49920304
H       -1.11342067      -2.15833449       0.65509585
H       -2.18857500      -0.95404656      -0.46161670
H       -2.26566196       1.85449346       0.37192698
13
Frame=5 idx=008305 GeodesicLength=0.20985009662653978 rxn_smarts="[C:1]([O:2][c:3]1[c:4]([H:11])[n:5]([H:12])[c:6]([H:13])[n:7]1)([H:8])([H:9])[H:10]>>[C:1]([O:2][C:3]1=[N:7][C:6]([H:13])=[N:5][C:4]1([H:11])[H:12])([H:8])([H:9])[H:10]"
C        2.22375445       0.26098118      -0.38045443
O        1.23003153      -0.74412346      -0.21702251
C       -0.00780020      -0.30904077      -0.00197905
C       -1.10168521      -1.14276247       0.28351418
N       -2.19148273      -0.24166054       0.57323670
C       -1.66079751       0.95914407       0.36399798
N       -0.35280309       0.97332836       0.06739357
H        1.99533252       0.89070906      -1.24171607
H        3.15924982      -0.27065438      -0.53522033
H        2.28829214       0.89031918       0.50828465
H       -1.10423451      -2.15088005       0.66670274
H       -2.21199081      -0.97016075      -0.45592244
H       -2.26586640       1.85480056       0.36918500
13
Frame=6 idx=008305 GeodesicLength=0.2518349982192719 rxn_smarts="[C:1]([O:2][c:3]1[c:4]([H:11])[n:5]([H:12])[c:6]([H:13])[n:7]1)([H:8])([H:9])[H:10]>>[C:1]([O:2][C:3]1=[N:7][C:6]([H:13])=[N:5][C:4]1([H:11])[H:12])([H:8])([H:9])[H:10]"
C        2.22550845       0.26085340      -0.37845385
O        1.22830486      -0.74300020      -0.22898156
C       -0.00908347      -0.30667459      -0.01430015
C       -1.10324122      -1.14182229       0.27641916
N       -2.18578188      -0.23999958       0.57480372
C       -1.65905204       0.96068345       0.36647854
N       -0.35077939       0.97538058       0.06344674
H        2.00202800       0.89940191      -1.23449325
H        3.16032029      -0.27166219      -0.53434192
H        2.28806865       0.88155878       0.51649041
H       -1.09537983      -2.14333708       0.67717494
H       -2.23481675      -0.98647978      -0.45043175
H       -2.26609567       1.85509759       0.36618897
13
Frame=7 idx=008305 GeodesicLength=0.29378830712133136 rxn_smarts="[C:1]([O:2][c:3]1[c:4]([H:11])[n:5]([H:12])[c:6]([H:13])[n:7]1)([H:8])([H:9])[H:10]>>[C:1]([O:2][C:3]1=[N:7][C:6]([H:13])=[N:5][C:4]1([H:11])[H:12])([H:8])([H:9])[H:10]"
C        2.22721266       0.26070799      -0.37670745
O        1.22686577      -0.74177212      -0.23927086
C       -0.01000697      -0.30415987      -0.02466957
C       -1.10488125      -1.14085357       0.26925778
N       -2.18059548      -0.23839679       0.57515613
C       -1.65732637       0.96225514       0.36926970
N       -0.34846034       0.97753431       0.06096696
H        2.00786772       0.90708131      -1.22792702
H        3.16129822      -0.27269042      -0.53392699
H        2.28840278       0.87369111       0.52365643
H       -1.08707077      -2.13582108       0.68638398
H       -2.25699564      -1.00298555      -0.44531706
H       -2.26631031       1.85540955       0.36312797
13
Frame=8 idx=008305 GeodesicLength=0.3350757684495776 rxn_smarts="[C:1]([O:2][c:3]1[c:4]([H:11])[n:5]([H:12])[c:6]([H:13])[n:7]1)([H:8])([H:9])[H:10]>>[C:1]([O:2][C:3]1=[N:7][C:6]([H:13])=[N:5][C:4]1([H:11])[H:12])([H:8])([H:9])[H:10]"
C        2.22880903       0.26056714      -0.37539920
O        1.22579625      -0.74050091      -0.24729834
C       -0.01043995      -0.30155314      -0.03222603
C       -1.10677076      -1.13993849       0.26192419
N       -2.17600170      -0.23694685       0.57326880
C       -1.65562785       0.96377758       0.37230932
N       -0.34570893       0.97969949       0.06132803
H        2.01226979       0.91362131      -1.22221054
H        3.16208133      -0.27367447      -0.53458549
H        2.28971676       0.86691231       0.52947304
H       -1.07950272      -2.12825564       0.69485408
H       -2.27816842      -1.01943269      -0.44132778
H       -2.26645283       1.85572437       0.35988992
13
Frame=9 idx=008305 GeodesicLength=0.37639003076898764 rxn_smarts="[C:1]([O:2][c:3]1[c:4]([H:11])[n:5]([H:12])[c:6]([H:13])[n:7]1)([H:8])([H:9])[H:10]>>[C:1]([O:2][C:3]1=[N:7][C:6]([H:13])=[N:5][C:4]1([H:11])[H:12])([H:8])([H:9])[H:10]"
C        2.23042044       0.26045616      -0.37431621
O        1.22504996      -0.73919558      -0.25363180
C       -0.01052419      -0.29886436      -0.03808181
C       -1.10876784      -1.13899836       0.25445340
N       -2.17190950      -0.23552399       0.57017322
C       -1.65395604       0.96531171       0.37565588
N       -0.34272448       0.98190470       0.06278707
H        2.01597345       0.91912713      -1.21729198
H        3.16287834      -0.27461393      -0.53549203
H        2.29154675       0.86121152       0.53427533
H       -1.07263723      -2.12076780       0.70221201
H       -2.29888757      -1.03615266      -0.43774434
H       -2.26646210       1.85610545       0.35700125
13
Frame=10 idx=008305 GeodesicLength=0.4179914446822803 rxn_smarts="[C:1]([O:2][c:3]1[c:4]([H:11])[n:5]([H:12])[c:6]([H:13])[n:7]1)([H:8])([H:9])[H:10]>>[C:1]([O:2][C:3]1=[N:7][C:6]([H:13])=[N:5][C:4]1([H:11])[H:12])([H:8])([H:9])[H:10]"
C        2.23206182       0.26037475      -0.37335913
O        1.22450905      -0.73784771      -0.25897062
C       -0.01038032      -0.29609761      -0.04291334
C       -1.11085161      -1.13803022       0.24685737
N       -2.16812920      -0.23405423       0.56619290
C       -1.65226446       0.96687220       0.37918788
N       -0.33956983       0.98414655       0.06496467
H        2.01928415       0.92405159      -1.21281571
H        3.16369949      -0.27551607      -0.53655507
H        2.29371471       0.85613639       0.53849284
H       -1.06623316      -2.11323376       0.70873634
H       -2.31951240      -1.05334045      -0.43409506
H       -2.26632823       1.85653855       0.35427693
13
Frame=11 idx=008305 GeodesicLength=0.45939135073497495 rxn_smarts="[C:1]([O:2][c:3]1[c:4]([H:11])[n:5]([H:12])[c:6]([H:13])[n:7]1)([H:8])([H:9])[H:10]>>[C:1]([O:2][C:3]1=[N:7][C:6]([H:13])=[N:5][C:4]1([H:11])[H:12])([H:8])([H:9])[H:10]"
C        2.23372909       0.26032452      -0.37243367
O        1.22406931      -0.73644895      -0.26386853
C       -0.01013073      -0.29326792      -0.04729305
C       -1.11294292      -1.13699244       0.23910331
N       -2.16462476      -0.23256294       0.56170634
C       -1.65054893       0.96847115       0.38282086
N       -0.33633968       0.98640813       0.06744519
H        2.02245319       0.92872230      -1.20851122
H        3.16455059      -0.27637817      -0.53763475
H        2.29601208       0.85135212       0.54246564
H       -1.06012692      -2.10566533       0.71448293
H       -2.34014726      -1.07108129      -0.42980585
H       -2.26595306       1.85711882       0.35152279
13
Frame=12 idx=008305 GeodesicLength=0.5008650365496597 rxn_smarts="[C:1]([O:2][c:3]1[c:4]([H:11])[n:5]([H:12])[c:6]([H:13])[n:7]1)([H:8])([H:9])[H:10]>>[C:1]([O:2][C:3]1=[N:7][C:6]([H:13])=[N:5][C:4]1([H:11])[H:12])([H:8])([H:9])[H:10]"
C        2.23538803       0.26031228      -0.37174769
O        1.22390327      -0.73506800      -0.26727940
C       -0.00954634      -0.29040649      -0.05007855
C       -1.11516784      -1.13594395       0.23117205
N       -2.16146400      -0.23103606       0.55558234
C       -1.64883789       0.97004914       0.38663081
N       -0.33285026       0.98865675       0.07130232
H        2.02488431       0.93260267      -1.20487753
H        3.16536385      -0.27717521      -0.53913787
H        2.29887716       0.84745742       0.54557475
H       -1.05469063      -2.09802112       0.71967148
H       -2.36042961      -1.08916405      -0.42596727
H       -2.26543005       1.85773661       0.34915456
13
Frame=13 idx=008305 GeodesicLength=0.5422939446627227 rxn_smarts="[C:1]([O:2][c:3]1[c:4]([H:11])[n:5]([H:12])[c:6]([H:13])[n:7]1)([H:8])([H:9])[H:10]>>[C:1]([O:2][C:3]1=[N:7][C:6]([H:13])=[N:5][C:4]1([H:11])[H:12])([H:8])([H:9])[H:10]"
C        2.23708475       0.26035620      -0.37124353
O        1.22396986      -0.73368548      -0.26957727
C       -0.00869628      -0.28751396      -0.05162846
C       -1.11747815      -1.13486160       0.22306694
N       -2.15876167      -0.22947376       0.54831557
C       -1.64715987       0.97162475       0.39059966
N       -0.32914486       0.99089339       0.07624093
H        2.02679256       0.93594139      -1.20174796
H        3.16619713      -0.27788911      -0.54098723
H        2.30222728       0.84423783       0.54805742
H       -1.04991117      -2.09037559       0.72419674
H       -2.38045217      -1.10774283      -0.42219622
H       -2.26466741       1.85848877       0.34690341
13
Frame=14 idx=008305 GeodesicLength=0.5837268525688059 rxn_smarts="[C:1]([O:2][c:3]1[c:4]([H:11])[n:5]([H:12])[c:6]([H:13])[n:7]1)([H:8])([H:9])[H:10]>>[C:1]([O:2][C:3]1=[N:7][C:6]([H:13])=[N:5][C:4]1([H:11])[H:12])([H:8])([H:9])[H:10]"
C        2.23881087       0.26044246      -0.37083275
O        1.22417183      -0.73228843      -0.27127690
C       -0.00768057      -0.28458849      -0.05248392
C       -1.11983407      -1.13372512       0.21476228
N       -2.15634497      -0.22782973       0.54003324
C       -1.64548002       0.97320905       0.39465956
N       -0.32528173       0.99311599       0.08190193
H        2.02840989       0.93903004      -1.19884874
H        3.16704027      -0.27853914      -0.54306300
H        2.30587671       0.84135855       0.55022047
H       -1.04557154      -2.08261452       0.72823856
H       -2.40043574      -1.12695433      -0.41803503
H       -2.26368094       1.85938367       0.34472431
13
Frame=15 idx=008305 GeodesicLength=0.6251644890903534 rxn_smarts="[C:1]([O:2][c:3]1[c:4]([H:11])[n:5]([H:12])[c:6]([H:13])[n:7]1)([H:8])([H:9])[H:10]>>[C:1]([O:2][C:3]1=[N:7][C:6]([H:13])=[N:5][C:4]1([H:11])[H:12])([H:8])([H:9])[H:10]"
C        2.24056611       0.26056472      -0.37048181
O        1.22445944      -0.73086792      -0.27264038
C       -0.00654978      -0.28162432      -0.05289832
C       -1.12221908      -1.13252254       0.20624949
N       -2.15418233      -0.22606766       0.53072449
C       -1.64380641       0.97480922       0.39873732
N       -0.32127587       0.99532364       0.08819056
H        2.02984085       0.94203716      -1.19603446
H        3.16788535      -0.27913720      -0.54535007
H        2.30976086       0.83862937       0.55222156
H       -1.04158584      -2.07465636       0.73192632
H       -2.42043712      -1.14691261      -0.41325241
H       -2.26245619       1.86042448       0.34260771
13
Frame=16 idx=008305 GeodesicLength=0.6665963372580089 rxn_smarts="[C:1]([O:2][c:3]1[c:4]([H:11])[n:5]([H:12])[c:6]([H:13])[n:7]1)([H:8])([H:9])[H:10]>>[C:1]([O:2][C:3]1=[N:7][C:6]([H:13])=[N:5][C:4]1([H:11])[H:12])([H:8])([H:9])[H:10]"
C        2.24234952       0.26071286      -0.37015899
O        1.22476598      -0.72940190      -0.27401382
C       -0.00535593      -0.27860552      -0.05312251
C       -1.12461337      -1.13123999       0.19753835
N       -2.15224489      -0.22416160       0.52036191
C       -1.64215372       0.97643017       0.40274641
N       -0.31712594       0.99751079       0.09510542
H        2.03118455       0.94521509      -1.19307746
H        3.16870979      -0.27969234      -0.54792149
H        2.31384591       0.83575278       0.55426960
H       -1.03784858      -2.06640411       0.73542945
H       -2.44050779      -1.16774349      -0.40756069
H       -2.26100552       1.86162725       0.34040381
