14
Frame=0 idx=008283 GeodesicLength=0.0 rxn_smarts="[C:1]([C@@:2]1([H:11])[C:3]([H:12])([H:13])[N:4]([H:14])[C:5](=[O:6])[O:7]1)([H:8])([H:9])[H:10]>>[C:1]([C@@:2]1([H:11])[C:3]([H:12])=[N:4][C:5](=[O:6])[O:7]1)([H:8])([H:9])[H:10].[H:13][H:14]"
C       -1.44507663      -0.94128467       0.04179741
C       -0.29221979      -0.20134882      -0.61716449
C        0.08814583       1.01323686       0.21843533
N        1.21701580       0.68612554       0.99026748
C        1.72548108      -0.46989431       0.44208119
O        2.71748777      -1.06165364       0.73283562
O        0.89588866      -0.95329270      -0.58559555
H       -1.22835664      -1.13238079       1.09412033
H       -1.58516556      -1.89868830      -0.45797006
H       -2.37089191      -0.36762583      -0.03393767
H       -0.53235428       0.04679177      -1.65266516
H       -0.68575130       1.61182953       0.69558240
H        0.39808018       1.96334345      -0.72807014
H        1.09771682       1.70484188      -0.13971670
14
Frame=1 idx=008283 GeodesicLength=0.10730529125949255 rxn_smarts="[C:1]([C@@:2]1([H:11])[C:3]([H:12])([H:13])[N:4]([H:14])[C:5](=[O:6])[O:7]1)([H:8])([H:9])[H:10]>>[C:1]([C@@:2]1([H:11])[C:3]([H:12])=[N:4][C:5](=[O:6])[O:7]1)([H:8])([H:9])[H:10].[H:13][H:14]"
C       -1.44959905      -0.94468054       0.04077636
C       -0.29291992      -0.20636947      -0.61258020
C        0.08702591       1.01044803       0.21902932
N        1.22279378       0.69055496       0.97796420
C        1.72657459      -0.47450629       0.44084863
O        2.71929520      -1.06298930       0.73548331
O        0.89326840      -0.96321314      -0.57708847
H       -1.23628335      -1.13720175       1.09355177
H       -1.59141883      -1.90095153      -0.46073029
H       -2.37311998      -0.36772455      -0.03797798
H       -0.52763415       0.03996874      -1.64985827
H       -0.68583743       1.60243388       0.70616073
H        0.39296466       1.98211151      -0.73026845
H        1.11489017       1.73211943      -0.14531067
14
Frame=2 idx=008283 GeodesicLength=0.21438965497120002 rxn_smarts="[C:1]([C@@:2]1([H:11])[C:3]([H:12])([H:13])[N:4]([H:14])[C:5](=[O:6])[O:7]1)([H:8])([H:9])[H:10]>>[C:1]([C@@:2]1([H:11])[C:3]([H:12])=[N:4][C:5](=[O:6])[O:7]1)([H:8])([H:9])[H:10].[H:13][H:14]"
C       -1.45430213      -0.94819338       0.03970082
C       -0.29370798      -0.21161371      -0.60792660
C        0.08565617       1.00741017       0.21973785
N        1.22878434       0.69524100       0.96496030
C        1.72751595      -0.47924828       0.43980220
O        2.72130889      -1.06400293       0.73793396
O        0.89050089      -0.97338461      -0.56823422
H       -1.24456889      -1.14215902       1.09294766
H       -1.59783916      -1.90332045      -0.46355905
H       -2.37547536      -0.36791066      -0.04218824
H       -0.52281964       0.03295242      -1.64698264
H       -0.68580198       1.59298160       0.71687026
H        0.38800157       2.00113776      -0.73204557
H        1.13274732       1.76011009      -0.15101673
14
Frame=3 idx=008283 GeodesicLength=0.3213620850499046 rxn_smarts="[C:1]([C@@:2]1([H:11])[C:3]([H:12])([H:13])[N:4]([H:14])[C:5](=[O:6])[O:7]1)([H:8])([H:9])[H:10]>>[C:1]([C@@:2]1([H:11])[C:3]([H:12])=[N:4][C:5](=[O:6])[O:7]1)([H:8])([H:9])[H:10].[H:13][H:14]"
C       -1.45919372      -0.95184146       0.03856583
C       -0.29459822      -0.21708907      -0.60320117
C        0.08400220       1.00411055       0.22057923
N        1.23500068       0.70022450       0.95115509
C        1.72828728      -0.48410225       0.43895969
O        2.72349123      -1.06469419       0.74021807
O        0.88757871      -0.98379953      -0.55901421
H       -1.25322524      -1.14727802       1.09230051
H       -1.60442464      -1.90581122      -0.46646800
H       -2.37796785      -0.36820937      -0.04657010
H       -0.51792090       0.02573591      -1.64403251
H       -0.68566235       1.58344729       0.72777028
H        0.38322589       2.02044789      -0.73334634
H        1.15140694       1.78885897      -0.15691637
14
Frame=4 idx=008283 GeodesicLength=0.42832802282712 rxn_smarts="[C:1]([C@@:2]1([H:11])[C:3]([H:12])([H:13])[N:4]([H:14])[C:5](=[O:6])[O:7]1)([H:8])([H:9])[H:10]>>[C:1]([C@@:2]1([H:11])[C:3]([H:12])=[N:4][C:5](=[O:6])[O:7]1)([H:8])([H:9])[H:10].[H:13][H:14]"
C       -1.46428562      -0.95564515       0.03736450
C       -0.29560694      -0.22280459      -0.59839926
C        0.08202585       1.00053188       0.22158013
N        1.24144957       0.70554687       0.93642894
C        1.72886702      -0.48904604       0.43834597
O        2.72581143      -1.06504887       0.74236598
O        0.88449262      -0.99445139      -0.54940267
H       -1.26227111      -1.15258888       1.09160049
H       -1.61117605      -1.90844127      -0.46947320
H       -2.38061063      -0.36864706      -0.05112843
H       -0.51294712       0.01831221      -1.64099969
H       -0.68543073       1.57380139       0.73892963
H        0.37867841       2.04007106      -0.73410152
H        1.17100329       1.81840982      -0.16311085
14
Frame=5 idx=008283 GeodesicLength=0.535353480357677 rxn_smarts="[C:1]([C@@:2]1([H:11])[C:3]([H:12])([H:13])[N:4]([H:14])[C:5](=[O:6])[O:7]1)([H:8])([H:9])[H:10]>>[C:1]([C@@:2]1([H:11])[C:3]([H:12])=[N:4][C:5](=[O:6])[O:7]1)([H:8])([H:9])[H:10].[H:13][H:14]"
C       -1.46958883      -0.95962615       0.03609018
C       -0.29675003      -0.22877074      -0.59351665
C        0.07969328       0.99665501       0.22276797
N        1.24813689       0.71124346       0.92066054
C        1.72923667      -0.49405535       0.43798030
O        2.72823414      -1.06505343       0.74440947
O        0.88123415      -1.00533442      -0.53937558
H       -1.27172430      -1.15812167       1.09083894
H       -1.61809339      -1.91122949      -0.47258945
H       -2.38341656      -0.36925130      -0.05586723
H       -0.50790842       0.01067378      -1.63787726
H       -0.68512302       1.56402245       0.75041322
H        0.37439835       2.06003576      -0.73424468
H        1.19167105       1.84881209      -0.16968978
14
Frame=6 idx=008283 GeodesicLength=0.6425047570842413 rxn_smarts="[C:1]([C@@:2]1([H:11])[C:3]([H:12])([H:13])[N:4]([H:14])[C:5](=[O:6])[O:7]1)([H:8])([H:9])[H:10]>>[C:1]([C@@:2]1([H:11])[C:3]([H:12])=[N:4][C:5](=[O:6])[O:7]1)([H:8])([H:9])[H:10].[H:13][H:14]"
C       -1.47511887      -0.96381027       0.03473330
C       -0.29804938      -0.23499713      -0.58854805
C        0.07695608       0.99246059       0.22417697
N        1.25505809       0.71736076       0.90368716
C        1.72937199      -0.49908870       0.43788917
O        2.73071464      -1.06467875       0.74639874
O        0.87779205      -1.01643791      -0.52889901
H       -1.28160932      -1.16391596       1.09000196
H       -1.62517729      -1.91419770      -0.47583875
H       -2.38640304      -0.37005526      -0.06079311
H       -0.50281711       0.00281406      -1.63465534
H       -0.68474336       1.55405619       0.76232225
H        0.37045304       2.08038049      -0.73367347
H        1.21357247       1.88010961      -0.17680184
14
Frame=7 idx=008283 GeodesicLength=0.7498075756941285 rxn_smarts="[C:1]([C@@:2]1([H:11])[C:3]([H:12])([H:13])[N:4]([H:14])[C:5](=[O:6])[O:7]1)([H:8])([H:9])[H:10]>>[C:1]([C@@:2]1([H:11])[C:3]([H:12])=[N:4][C:5](=[O:6])[O:7]1)([H:8])([H:9])[H:10].[H:13][H:14]"
C       -1.48089083      -0.96822436       0.03328514
C       -0.29952773      -0.24149467      -0.58348942
C        0.07376995       0.98792788       0.22583843
N        1.26219670       0.72393591       0.88535198
C        1.72925080      -0.50410310       0.43809092
O        2.73321147      -1.06388923       0.74838034
O        0.87415467      -1.02775144      -0.51794207
H       -1.29194821      -1.17000896       1.08907767
H       -1.63242843      -1.91736960      -0.47923971
H       -2.38958885      -0.37109238      -0.06591031
H       -0.49768882      -0.00527559      -1.63132691
H       -0.68429464       1.54385473       0.77474620
H        0.36691323       2.10114195      -0.73229550
H        1.23687067       1.91234889      -0.18456677
14
Frame=8 idx=008283 GeodesicLength=0.8573004698983604 rxn_smarts="[C:1]([C@@:2]1([H:11])[C:3]([H:12])([H:13])[N:4]([H:14])[C:5](=[O:6])[O:7]1)([H:8])([H:9])[H:10]>>[C:1]([C@@:2]1([H:11])[C:3]([H:12])=[N:4][C:5](=[O:6])[O:7]1)([H:8])([H:9])[H:10].[H:13][H:14]"
C       -1.48692749      -0.97289880       0.03173327
C       -0.30121095      -0.24827878      -0.57833304
C        0.07008703       0.98302723       0.22779972
N        1.26952045       0.73100304       0.86545909
C        1.72885058      -0.50903793       0.43860659
O        2.73568821      -1.06262103       0.75040522
O        0.87030711      -1.03926947      -0.50645809
H       -1.30277734      -1.17644669       1.08804982
H       -1.63985276      -1.92077074      -0.48281924
H       -2.39299763      -0.37239699      -0.07122914
H       -0.49253575      -0.01360568      -1.62788102
H       -0.68377375       1.53335945       0.78779829
H        0.36386825       2.12236452      -0.72998846
H        1.26175403       1.94557187      -0.19314302
14
Frame=9 idx=008283 GeodesicLength=0.9649275991444273 rxn_smarts="[C:1]([C@@:2]1([H:11])[C:3]([H:12])([H:13])[N:4]([H:14])[C:5](=[O:6])[O:7]1)([H:8])([H:9])[H:10]>>[C:1]([C@@:2]1([H:11])[C:3]([H:12])=[N:4][C:5](=[O:6])[O:7]1)([H:8])([H:9])[H:10].[H:13][H:14]"
C       -1.49325497      -0.97786695       0.03006266
C       -0.30312868      -0.25536675      -0.57306718
C        0.06585164       0.97771988       0.23011603
N        1.27699384       0.73859310       0.84380142
C        1.72815162      -0.51381183       0.43944473
O        2.73810790      -1.06078744       0.75252907
O        0.86623152      -1.05098767      -0.49438845
H       -1.31414214      -1.18327958       1.08689982
H       -1.64745822      -1.92442763      -0.48660755
H       -2.39665675      -0.37400602      -0.07676575
H       -0.48737215      -0.02218160      -1.62430282
H       -0.68317169       1.52250391       0.80159235
H        0.36145488       2.14408686      -0.72658508
H        1.28839320       1.97981173      -0.20272925
14
Frame=10 idx=008283 GeodesicLength=1.0726658633622106 rxn_smarts="[C:1]([C@@:2]1([H:11])[C:3]([H:12])([H:13])[N:4]([H:14])[C:5](=[O:6])[O:7]1)([H:8])([H:9])[H:10]>>[C:1]([C@@:2]1([H:11])[C:3]([H:12])=[N:4][C:5](=[O:6])[O:7]1)([H:8])([H:9])[H:10].[H:13][H:14]"
C       -1.49989609      -0.98316251       0.02826699
C       -0.30531510      -0.26277855      -0.56769401
C        0.06101943       0.97198312       0.23281132
N        1.28451762       0.74670923       0.82019165
C        1.72713645      -0.51834742       0.44060172
O        2.74043725      -1.05829648       0.75478792
O        0.86190992      -1.06289450      -0.48169118
H       -1.32606956      -1.19054411       1.08561660
H       -1.65524925      -1.92837591      -0.49061423
H       -2.40059195      -0.37595932      -0.08252127
H       -0.48222601      -0.03103319      -1.62059069
H       -0.68248745       1.51122137       0.81622306
H        0.35982627       2.16635788      -0.72197104
H        1.31698848       2.01512038      -0.21341686
14
Frame=11 idx=008283 GeodesicLength=1.1805086819328128 rxn_smarts="[C:1]([C@@:2]1([H:11])[C:3]([H:12])([H:13])[N:4]([H:14])[C:5](=[O:6])[O:7]1)([H:8])([H:9])[H:10]>>[C:1]([C@@:2]1([H:11])[C:3]([H:12])=[N:4][C:5](=[O:6])[O:7]1)([H:8])([H:9])[H:10].[H:13][H:14]"
C       -1.50687334      -0.98882438       0.02634264
C       -0.30780876      -0.27053694      -0.56221952
C        0.05554681       0.96578717       0.23590499
N        1.29197255       0.75533974       0.79442503
C        1.72579752      -0.52253750       0.44203616
O        2.74262455      -1.05504615       0.75724319
O        0.85732314      -1.07497793      -0.46832481
H       -1.33858319      -1.19827933       1.08419324
H       -1.66323018      -1.93265665      -0.49484292
H       -2.40483075      -0.37830406      -0.08849142
H       -0.47713668      -0.04019058      -1.61674730
H       -0.68170520       1.49944863       0.83176857
H        0.35913994       2.18923015      -0.71602601
H        1.34776358       2.05154783      -0.22526185
14
Frame=12 idx=008283 GeodesicLength=1.2883841161395992 rxn_smarts="[C:1]([C@@:2]1([H:11])[C:3]([H:12])([H:13])[N:4]([H:14])[C:5](=[O:6])[O:7]1)([H:8])([H:9])[H:10]>>[C:1]([C@@:2]1([H:11])[C:3]([H:12])=[N:4][C:5](=[O:6])[O:7]1)([H:8])([H:9])[H:10].[H:13][H:14]"
C       -1.51421785      -0.99489375       0.02428730
C       -0.31065477      -0.27867162      -0.55664965
C        0.04938588       0.95910121       0.23941348
N        1.29919371       0.76444985       0.76630717
C        1.72413069      -0.52625456       0.44369301
O        2.74464237      -1.05088208       0.75992144
O        0.85244630      -1.08722831      -0.45423229
H       -1.35171785      -1.20651852       1.08262516
H       -1.67141130      -1.93731770      -0.49929004
H       -2.40940856      -0.38108822      -0.09467779
H       -0.47214683      -0.04969783      -1.61277533
H       -0.68080517       1.48711536       0.84829190
H        0.35963750       2.21275347      -0.70860737
H        1.38092588       2.08913269      -0.23830699
14
Frame=13 idx=008283 GeodesicLength=1.3962050314153887 rxn_smarts="[C:1]([C@@:2]1([H:11])[C:3]([H:12])([H:13])[N:4]([H:14])[C:5](=[O:6])[O:7]1)([H:8])([H:9])[H:10]>>[C:1]([C@@:2]1([H:11])[C:3]([H:12])=[N:4][C:5](=[O:6])[O:7]1)([H:8])([H:9])[H:10].[H:13][H:14]"
C       -1.52195744      -1.00141234       0.02211082
C       -0.31390406      -0.28721792      -0.55099833
C        0.04249486       0.95189848       0.24331712
N        1.30597834       0.77397717       0.73570251
C        1.72213883      -0.52936415       0.44547374
O        2.74647489      -1.04563331       0.76281144
O        0.84725175      -1.09963520      -0.43936854
H       -1.36549406      -1.21527551       1.08092123
H       -1.67979920      -1.94241638      -0.50392115
H       -2.41435961      -0.38436488      -0.10107252
H       -0.46731796      -0.05961540      -1.60868745
H       -0.67978865       1.47417691       0.86578369
H        0.36159956       2.23696714      -0.69960874
H        1.41668276       2.12791541      -0.25246382
14
Frame=14 idx=008283 GeodesicLength=1.5039159555521389 rxn_smarts="[C:1]([C@@:2]1([H:11])[C:3]([H:12])([H:13])[N:4]([H:14])[C:5](=[O:6])[O:7]1)([H:8])([H:9])[H:10]>>[C:1]([C@@:2]1([H:11])[C:3]([H:12])=[N:4][C:5](=[O:6])[O:7]1)([H:8])([H:9])[H:10].[H:13][H:14]"
C       -1.53011898      -1.00843136       0.01983669
C       -0.31761682      -0.29621682      -0.54529557
C        0.03483372       0.94416493       0.24756206
N        1.31205447       0.78382949       0.70248499
C        1.71983577      -0.53170380       0.44722853
O        2.74809293      -1.03910543       0.76589337
O        0.84171169      -1.11217689      -0.42370213
H       -1.37991515      -1.22455304       1.07910752
H       -1.68839762      -1.94803190      -0.50867176
H       -2.41972486      -0.38820554      -0.10765143
H       -0.46273775      -0.07002900      -1.60451275
H       -0.67865274       1.46060854       0.88417930
H        0.36536134       2.26192155      -0.68893779
H        1.45527399       2.16792925      -0.26752104
14
Frame=15 idx=008283 GeodesicLength=1.611470342067496 rxn_smarts="[C:1]([C@@:2]1([H:11])[C:3]([H:12])([H:13])[N:4]([H:14])[C:5](=[O:6])[O:7]1)([H:8])([H:9])[H:10]>>[C:1]([C@@:2]1([H:11])[C:3]([H:12])=[N:4][C:5](=[O:6])[O:7]1)([H:8])([H:9])[H:10].[H:13][H:14]"
C       -1.53872666      -1.01600455       0.01750494
C       -0.32186070      -0.30571616      -0.53957994
C        0.02636793       0.93589223       0.25205372
N        1.31710017       0.79389057       0.66660056
C        1.71723782      -0.53310649       0.44876211
O        2.74948849      -1.03107210       0.76908797
O        0.83579686      -1.12482674      -0.40721449
H       -1.39496768      -1.23433202       1.07723008
H       -1.69720726      -1.95425720      -0.51343794
H       -2.42554668      -0.39269152      -0.11438060
H       -0.45851745      -0.08104564      -1.60029323
H       -0.67742401       1.44642112       0.90332465
H        0.37131221       2.28766066      -0.67654773
H        1.49694696       2.20918783      -0.28311012
14
Frame=16 idx=008283 GeodesicLength=1.7188379527128324 rxn_smarts="[C:1]([C@@:2]1([H:11])[C:3]([H:12])([H:13])[N:4]([H:14])[C:5](=[O:6])[O:7]1)([H:8])([H:9])[H:10]>>[C:1]([C@@:2]1([H:11])[C:3]([H:12])=[N:4][C:5](=[O:6])[O:7]1)([H:8])([H:9])[H:10].[H:13][H:14]"
C       -1.54779695      -1.02419132       0.01517513
C       -0.32670824      -0.31576463      -0.53390632
C        0.01706720       0.92709597       0.25664548
N        1.32076136       0.80402354       0.62805527
C        1.71436584      -0.53340181       0.44983015
O        2.75064780      -1.02130570       0.77228637
O        0.82948371      -1.13754005      -0.38991623
H       -1.41060823      -1.24457100       1.07536002
H       -1.70621931      -1.96120687      -0.51807307
H       -2.43187085      -0.39792339      -0.12120635
H       -0.45479678      -0.09279446      -1.59608905
H       -0.67614182       1.43166864       0.92297372
H        0.37985434       2.31424017      -0.66244889
H        1.54196194       2.25167091      -0.29868622
