9
Frame=0 idx=004293 GeodesicLength=0.0 rxn_smarts="[N:1]([C:2]([C:3](=[N+:4]=[N-:5])[H:9])=[O:6])([H:7])[H:8]>>[N:1]([C:2]([C:3]#[N+:4][N-:5][H:9])=[O:6])([H:7])[H:8]"
N       -1.30136294      -0.01269643      -0.01472546
C       -0.26313088      -0.87537717       0.04065536
C        1.12779736      -0.37170841      -0.29616231
N        1.59225748       0.43078015       0.77162610
N        1.39374927       1.40816696       0.04683138
O       -0.34120146      -2.05560029       0.28311482
H       -2.21379994      -0.36271981       0.22209955
H       -1.16608297       0.98200631      -0.04193491
H        1.17177412       0.85714869      -1.01150449
9
Frame=1 idx=004293 GeodesicLength=0.09762910026123145 rxn_smarts="[N:1]([C:2]([C:3](=[N+:4]=[N-:5])[H:9])=[O:6])([H:7])[H:8]>>[N:1]([C:2]([C:3]#[N+:4][N-:5][H:9])=[O:6])([H:7])[H:8]"
N       -1.31571548      -0.02065852      -0.01756775
C       -0.27001819      -0.87443788       0.04391514
C        1.10728614      -0.36177458      -0.31968015
N        1.62111951       0.39661274       0.74294687
N        1.43616558       1.41561286       0.08033109
O       -0.33795646      -2.04536840       0.33152932
H       -2.22771245      -0.37975704       0.20652517
H       -1.18885086       0.97431871      -0.06197560
H        1.17568221       0.89545212      -1.00602410
9
Frame=2 idx=004293 GeodesicLength=0.19529424293445619 rxn_smarts="[N:1]([C:2]([C:3](=[N+:4]=[N-:5])[H:9])=[O:6])([H:7])[H:8]>>[N:1]([C:2]([C:3]#[N+:4][N-:5][H:9])=[O:6])([H:7])[H:8]"
N       -1.33098527      -0.02889703      -0.01969946
C       -0.27708565      -0.87276326       0.04845953
C        1.08565595      -0.35030464      -0.34217899
N        1.64984878       0.36269934       0.71180852
N        1.48190336       1.42025677       0.11446543
O       -0.33384533      -2.03326218       0.37881928
H       -2.24187978      -0.39802860       0.19186151
H       -1.21347078       0.96590202      -0.08482359
H        1.17985871       0.93439758      -0.99871223
9
Frame=3 idx=004293 GeodesicLength=0.29296709712104363 rxn_smarts="[N:1]([C:2]([C:3](=[N+:4]=[N-:5])[H:9])=[O:6])([H:7])[H:8]>>[N:1]([C:2]([C:3]#[N+:4][N-:5][H:9])=[O:6])([H:7])[H:8]"
N       -1.34725136      -0.03762659      -0.02183319
C       -0.28437584      -0.87022978       0.05377036
C        1.06295382      -0.33706232      -0.36306896
N        1.67736822       0.32963096       0.67885110
N        1.53187964       1.42194653       0.14872960
O       -0.32903337      -2.01939803       0.42411403
H       -2.25590505      -0.41735863       0.17994509
H       -1.24008131       0.95628275      -0.11122762
H        1.18444524       0.97381511      -0.98928040
9
Frame=4 idx=004293 GeodesicLength=0.3904402849958613 rxn_smarts="[N:1]([C:2]([C:3](=[N+:4]=[N-:5])[H:9])=[O:6])([H:7])[H:8]>>[N:1]([C:2]([C:3]#[N+:4][N-:5][H:9])=[O:6])([H:7])[H:8]"
N       -1.36439669      -0.04641239      -0.02277212
C       -0.29175412      -0.86655366       0.06051321
C        1.03917874      -0.32196426      -0.38274400
N        1.70484343       0.29678510       0.64304382
N        1.58549843       1.42003355       0.18325281
O       -0.32333183      -2.00352672       0.46878757
H       -2.27024005      -0.43819797       0.16784297
H       -1.26888585       0.94556042      -0.14028673
H        1.18908794       1.01427592      -0.97763753
9
Frame=5 idx=004293 GeodesicLength=0.48781845596696316 rxn_smarts="[N:1]([C:2]([C:3](=[N+:4]=[N-:5])[H:9])=[O:6])([H:7])[H:8]>>[N:1]([C:2]([C:3]#[N+:4][N-:5][H:9])=[O:6])([H:7])[H:8]"
N       -1.38267689      -0.05593040      -0.02465386
C       -0.29938642      -0.86162072       0.06792459
C        1.01443849      -0.30466490      -0.40000536
N        1.73032312       0.26553988       0.60596936
N        1.64476411       1.41463640       0.21666162
O       -0.31716586      -1.98597282       0.51100949
H       -2.28435619      -0.46019687       0.15888242
H       -1.30005872       0.93298774      -0.17241288
H        1.19411835       1.05522169      -0.96337538
9
Frame=6 idx=004293 GeodesicLength=0.5849287770558953 rxn_smarts="[N:1]([C:2]([C:3](=[N+:4]=[N-:5])[H:9])=[O:6])([H:7])[H:8]>>[N:1]([C:2]([C:3]#[N+:4][N-:5][H:9])=[O:6])([H:7])[H:8]"
N       -1.40202291      -0.06569409      -0.02647813
C       -0.30709091      -0.85523902       0.07651946
C        0.98893016      -0.28507875      -0.41542602
N        1.75505258       0.23496877       0.56646283
N        1.70843653       1.40488256       0.24941763
O       -0.31026272      -1.96652330       0.55238236
H       -2.29863585      -0.48354789       0.15090972
H       -1.33384375       0.91858134      -0.20748588
H        1.19943688       1.09765038      -0.94630197
9
Frame=7 idx=004293 GeodesicLength=0.682050997905514 rxn_smarts="[N:1]([C:2]([C:3](=[N+:4]=[N-:5])[H:9])=[O:6])([H:7])[H:8]>>[N:1]([C:2]([C:3]#[N+:4][N-:5][H:9])=[O:6])([H:7])[H:8]"
N       -1.42275531      -0.07617179      -0.02862452
C       -0.31513535      -0.84709318       0.08638453
C        0.96235087      -0.26266536      -0.42823759
N        1.77828481       0.20587374       0.52515084
N        1.77929869       1.39061834       0.27967728
O       -0.30299113      -1.94511363       0.59256020
H       -2.31325548      -0.50901582       0.14336731
H       -1.37055031       0.90195846      -0.24483295
H        1.20475321       1.14160923      -0.92544508
9
Frame=8 idx=004293 GeodesicLength=0.7785888060003258 rxn_smarts="[N:1]([C:2]([C:3](=[N+:4]=[N-:5])[H:9])=[O:6])([H:7])[H:8]>>[N:1]([C:2]([C:3]#[N+:4][N-:5][H:9])=[O:6])([H:7])[H:8]"
N       -1.44442228      -0.08710729      -0.03187936
C       -0.32323267      -0.83718904       0.09663723
C        0.93504206      -0.23722859      -0.43904992
N        1.80021456       0.17733092       0.48119711
N        1.85438488       1.37038209       0.30895597
O       -0.29486213      -1.92117680       0.63220931
H       -2.32745785      -0.53522039       0.13918304
H       -1.41006807       0.88206900      -0.28724263
H        1.21040150       1.18814011      -0.90001074
9
Frame=9 idx=004293 GeodesicLength=0.8748776904436653 rxn_smarts="[N:1]([C:2]([C:3](=[N+:4]=[N-:5])[H:9])=[O:6])([H:7])[H:8]>>[N:1]([C:2]([C:3]#[N+:4][N-:5][H:9])=[O:6])([H:7])[H:8]"
N       -1.46781443      -0.09940245      -0.03664773
C       -0.33184975      -0.82465319       0.10908870
C        0.90651917      -0.20815759      -0.44611326
N        1.82033917       0.15093673       0.43546102
N        1.93846032       1.34429945       0.33266609
O       -0.28674951      -1.89462580       0.67134835
H       -2.34219021      -0.56461301       0.13294117
H       -1.45266481       0.85953354      -0.32977170
H        1.21595004       1.23668232      -0.86897264
9
Frame=10 idx=004293 GeodesicLength=0.970112827022619 rxn_smarts="[N:1]([C:2]([C:3](=[N+:4]=[N-:5])[H:9])=[O:6])([H:7])[H:8]>>[N:1]([C:2]([C:3]#[N+:4][N-:5][H:9])=[O:6])([H:7])[H:8]"
N       -1.49189796      -0.11300061      -0.04458848
C       -0.34063130      -0.81019173       0.12130298
C        0.87757055      -0.17533250      -0.45030013
N        1.83813270       0.12604550       0.38744360
N        2.02641554       1.31100233       0.35328125
O       -0.27814965      -1.86541062       0.70971885
H       -2.35619383      -0.59401059       0.13215189
H       -1.49775954       0.83255186      -0.37781257
H        1.22251348       1.28834636      -0.83119740
9
Frame=11 idx=004293 GeodesicLength=1.0645577038702383 rxn_smarts="[N:1]([C:2]([C:3](=[N+:4]=[N-:5])[H:9])=[O:6])([H:7])[H:8]>>[N:1]([C:2]([C:3]#[N+:4][N-:5][H:9])=[O:6])([H:7])[H:8]"
N       -1.51726018      -0.12876350      -0.05611564
C       -0.34987199      -0.79330084       0.13439813
C        0.84792216      -0.13818673      -0.45046668
N        1.85372616       0.10335832       0.33706456
N        2.12075384       1.27003539       0.36731903
O       -0.26942611      -1.83301730       0.74821567
H       -2.37026351      -0.62473070       0.13315576
H       -1.54522699       0.80132267      -0.42901411
H        1.22964660       1.34328269      -0.78455672
9
Frame=12 idx=004293 GeodesicLength=1.1579669873694276 rxn_smarts="[N:1]([C:2]([C:3](=[N+:4]=[N-:5])[H:9])=[O:6])([H:7])[H:8]>>[N:1]([C:2]([C:3]#[N+:4][N-:5][H:9])=[O:6])([H:7])[H:8]"
N       -1.54394534      -0.14707014      -0.07083198
C       -0.35985262      -0.77250611       0.15067013
C        0.81708354      -0.09574314      -0.44509162
N        1.86654354       0.08344678       0.28428584
N        2.22342167       1.21987689       0.36948767
O       -0.26120557      -1.79637028       0.78842076
H       -2.38464784      -0.65993551       0.12936659
H       -1.59489047       0.76669786      -0.47962193
H        1.23749310       1.40160365      -0.72668546
9
Frame=13 idx=004293 GeodesicLength=1.2512211997160203 rxn_smarts="[N:1]([C:2]([C:3](=[N+:4]=[N-:5])[H:9])=[O:6])([H:7])[H:8]>>[N:1]([C:2]([C:3]#[N+:4][N-:5][H:9])=[O:6])([H:7])[H:8]"
N       -1.57109896      -0.16903540      -0.09068225
C       -0.37089742      -0.75051868       0.16543713
C        0.78521890      -0.04760179      -0.43516978
N        1.87590212       0.06635115       0.22773810
N        2.32990462       1.15997243       0.36133771
O       -0.25291777      -1.75426532       0.83167265
H       -2.39818169      -0.69575258       0.12808301
H       -1.64568191       0.72673728      -0.53415601
H        1.24775211       1.46411292      -0.65426056
9
Frame=14 idx=004293 GeodesicLength=1.3409559694233795 rxn_smarts="[N:1]([C:2]([C:3](=[N+:4]=[N-:5])[H:9])=[O:6])([H:7])[H:8]>>[N:1]([C:2]([C:3]#[N+:4][N-:5][H:9])=[O:6])([H:7])[H:8]"
N       -1.59675964      -0.19307616      -0.11254298
C       -0.38212893      -0.72902238       0.17562463
C        0.75290513       0.00645606      -0.42034807
N        1.88060649       0.05312655       0.16681016
N        2.43380246       1.09070832       0.34200393
O       -0.24477058      -1.70715396       0.87598139
H       -2.41026584      -0.72805740       0.13456906
H       -1.69498223       0.67769602      -0.59868443
H        1.26159315       1.52932295      -0.56341369
9
Frame=15 idx=004293 GeodesicLength=1.4285955949811977 rxn_smarts="[N:1]([C:2]([C:3](=[N+:4]=[N-:5])[H:9])=[O:6])([H:7])[H:8]>>[N:1]([C:2]([C:3]#[N+:4][N-:5][H:9])=[O:6])([H:7])[H:8]"
N       -1.62063830      -0.22205242      -0.14118241
C       -0.39270667      -0.70942648       0.17945612
C        0.71969520       0.06753793      -0.39923558
N        1.88024944       0.04489909       0.09937890
N        2.53276350       1.01205769       0.30983090
O       -0.23577954      -1.65287709       0.92256946
H       -2.42133533      -0.75307879       0.15217042
H       -1.74195421       0.61808828      -0.67387830
H        1.27970591       1.59485180      -0.44910950
9
Frame=16 idx=004293 GeodesicLength=1.5144884163254058 rxn_smarts="[N:1]([C:2]([C:3](=[N+:4]=[N-:5])[H:9])=[O:6])([H:7])[H:8]>>[N:1]([C:2]([C:3]#[N+:4][N-:5][H:9])=[O:6])([H:7])[H:8]"
N       -1.64155198      -0.25331851      -0.17019382
C       -0.40349496      -0.69295818       0.18038723
C        0.68553556       0.13316448      -0.36749764
N        1.87158096       0.04626435       0.03291852
N        2.62469863       0.93018901       0.25698018
O       -0.23023266      -1.59420056       0.97093304
H       -2.43068418      -0.77751686       0.16342268
H       -1.78295430       0.55430751      -0.74587886
H        1.30710293       1.65406875      -0.32107133
