12
Frame=0 idx=003823 GeodesicLength=0.0 rxn_smarts="[C:1]([C@@:2]1([H:10])[N:3]([H:11])[C@:4]1([C:5]#[N:6])[H:12])([H:7])([H:8])[H:9]>>[C:1]([C:2]1=[C:4]([C:5]#[N:6])[N:3]1[H:11])([H:7])([H:8])[H:9].[H:10][H:12]"
C       -1.32216739       0.85920279       0.03737505
C       -0.25869046      -0.15501930      -0.04360914
N        0.29018631      -0.90450193      -0.93144426
C        1.18931925      -0.57256891       0.19749618
C        2.22479653       0.35361222      -0.17072006
N        3.10753881       1.06723996      -0.36698292
H       -0.99081363       1.71528233      -0.55788230
H       -2.26133245       0.48563934      -0.37013028
H       -1.46224178       1.18708383       1.06474473
H       -0.70315446      -1.15149363       1.26015349
H        0.01560640      -1.73313688      -1.43713684
H        0.17095291      -1.15133983       1.31813634
12
Frame=1 idx=003823 GeodesicLength=0.07863094266027325 rxn_smarts="[C:1]([C@@:2]1([H:10])[N:3]([H:11])[C@:4]1([C:5]#[N:6])[H:12])([H:7])([H:8])[H:9]>>[C:1]([C:2]1=[C:4]([C:5]#[N:6])[N:3]1[H:11])([H:7])([H:8])[H:9].[H:10][H:12]"
C       -1.31954015       0.85935154       0.03186188
C       -0.26466384      -0.16497680      -0.03065991
N        0.28606051      -0.92842501      -0.91749246
C        1.18062742      -0.56503787       0.20052008
C        2.21826577       0.35601996      -0.16783696
N        3.10486435       1.06972263      -0.34463327
H       -0.99280396       1.69625882      -0.59225189
H       -2.26477580       0.47713375      -0.35340342
H       -1.44719742       1.21756747       1.05085334
H       -0.69411504      -1.15467264       1.28355936
H       -0.00146679      -1.69708063      -1.50045372
H        0.19474495      -1.16586121       1.33993697
12
Frame=2 idx=003823 GeodesicLength=0.1566702253925336 rxn_smarts="[C:1]([C@@:2]1([H:10])[N:3]([H:11])[C@:4]1([C:5]#[N:6])[H:12])([H:7])([H:8])[H:9]>>[C:1]([C:2]1=[C:4]([C:5]#[N:6])[N:3]1[H:11])([H:7])([H:8])[H:9].[H:10][H:12]"
C       -1.31712287       0.85830678       0.02567531
C       -0.27177275      -0.17666068      -0.01642856
N        0.27974284      -0.95802348      -0.89955784
C        1.17074621      -0.55881889       0.20459819
C        2.21046803       0.35591803      -0.16704132
N        3.10038130       1.06982655      -0.32424442
H       -0.99410736       1.67459574      -0.62677769
H       -2.26828503       0.46872324      -0.33732542
H       -1.43281692       1.24742866       1.03485733
H       -0.68446563      -1.15594123       1.31133722
H       -0.01236423      -1.64686085      -1.57007510
H        0.21959641      -1.17849385       1.36498230
12
Frame=3 idx=003823 GeodesicLength=0.23386601555356212 rxn_smarts="[C:1]([C@@:2]1([H:10])[N:3]([H:11])[C@:4]1([C:5]#[N:6])[H:12])([H:7])([H:8])[H:9]>>[C:1]([C:2]1=[C:4]([C:5]#[N:6])[N:3]1[H:11])([H:7])([H:8])[H:9].[H:10][H:12]"
C       -1.31575208       0.85569321       0.01886938
C       -0.28048899      -0.19007638      -0.00066877
N        0.27056330      -0.99391632      -0.87707780
C        1.15915040      -0.55408028       0.20997398
C        2.20068461       0.35379468      -0.16684487
N        3.09559113       1.06356784      -0.31272863
H       -0.99395478       1.65161902      -0.65860834
H       -2.27185099       0.46061545      -0.32512284
H       -1.42260435       1.27385902       1.01752344
H       -0.67473367      -1.15519835       1.34367373
H       -0.01165807      -1.57737366      -1.64293012
H        0.24505349      -1.18850424       1.39394084
12
Frame=4 idx=003823 GeodesicLength=0.3106075016884572 rxn_smarts="[C:1]([C@@:2]1([H:10])[N:3]([H:11])[C@:4]1([C:5]#[N:6])[H:12])([H:7])([H:8])[H:9]>>[C:1]([C:2]1=[C:4]([C:5]#[N:6])[N:3]1[H:11])([H:7])([H:8])[H:9].[H:10][H:12]"
C       -1.31486729       0.85230432       0.01152115
C       -0.29061857      -0.20453110       0.01473457
N        0.25766708      -1.03336232      -0.85448325
C        1.14567827      -0.55186273       0.21308613
C        2.18935572       0.34906092      -0.16810034
N        3.08889045       1.05437688      -0.30561275
H       -0.99278705       1.62821720      -0.68840135
H       -2.27565378       0.45368968      -0.31529349
H       -1.41393593       1.29752651       0.99935287
H       -0.66482876      -1.15325661       1.37728063
H       -0.00011445      -1.49434360      -1.70681384
H        0.27121429      -1.19781916       1.42272966
12
Frame=5 idx=003823 GeodesicLength=0.38879143208958433 rxn_smarts="[C:1]([C@@:2]1([H:10])[N:3]([H:11])[C@:4]1([C:5]#[N:6])[H:12])([H:7])([H:8])[H:9]>>[C:1]([C:2]1=[C:4]([C:5]#[N:6])[N:3]1[H:11])([H:7])([H:8])[H:9].[H:10][H:12]"
C       -1.31458059       0.84946513       0.00415541
C       -0.30196831      -0.21850122       0.02837503
N        0.24210258      -1.07090685      -0.83633804
C        1.13047800      -0.55131289       0.21228526
C        2.17698675       0.34372977      -0.16876213
N        3.08154459       1.04360251      -0.29943400
H       -0.99347513       1.60482056      -0.71810116
H       -2.28080389       0.44850460      -0.30365047
H       -1.40352443       1.32134987       0.98065132
H       -0.65504757      -1.15194257       1.40805841
H        0.02055398      -1.40933808      -1.75414292
H        0.29773402      -1.20947084       1.44690329
12
Frame=6 idx=003823 GeodesicLength=0.4685271902937334 rxn_smarts="[C:1]([C@@:2]1([H:10])[N:3]([H:11])[C@:4]1([C:5]#[N:6])[H:12])([H:7])([H:8])[H:9]>>[C:1]([C:2]1=[C:4]([C:5]#[N:6])[N:3]1[H:11])([H:7])([H:8])[H:9].[H:10][H:12]"
C       -1.31450728       0.84792057      -0.00315006
C       -0.31365177      -0.23089021       0.03987181
N        0.22587833      -1.10334281      -0.82439291
C        1.11452236      -0.55111266       0.20766015
C        2.16462013       0.33938097      -0.16807475
N        3.07431964       1.03387683      -0.28991766
H       -0.99686644       1.58186978      -0.74842125
H       -2.28696489       0.44539779      -0.28902635
H       -1.39015839       1.34654919       0.96126919
H       -0.64494659      -1.15240945       1.43398167
H        0.04275466      -1.33244051      -1.78437140
H        0.32500026      -1.22479950       1.46457156
12
Frame=7 idx=003823 GeodesicLength=0.5488800063382224 rxn_smarts="[C:1]([C@@:2]1([H:10])[N:3]([H:11])[C@:4]1([C:5]#[N:6])[H:12])([H:7])([H:8])[H:9]>>[C:1]([C:2]1=[C:4]([C:5]#[N:6])[N:3]1[H:11])([H:7])([H:8])[H:9].[H:10][H:12]"
C       -1.31472831       0.84760590      -0.01024244
C       -0.32550431      -0.24142002       0.04996705
N        0.20983462      -1.13058619      -0.81705288
C        1.09800996      -0.55013410       0.20086313
C        2.15230001       0.33679164      -0.16552234
N        3.06813466       1.02432131      -0.27891991
H       -1.00231149       1.55994165      -0.77812551
H       -2.29357061       0.44424320      -0.27269872
H       -1.37558798       1.37216681       0.94149238
H       -0.63466123      -1.15461826       1.45567549
H        0.06524858      -1.26525213      -1.80224249
H        0.35283610      -1.24305980       1.47680625
12
Frame=8 idx=003823 GeodesicLength=0.6297550332238839 rxn_smarts="[C:1]([C@@:2]1([H:10])[N:3]([H:11])[C@:4]1([C:5]#[N:6])[H:12])([H:7])([H:8])[H:9]>>[C:1]([C:2]1=[C:4]([C:5]#[N:6])[N:3]1[H:11])([H:7])([H:8])[H:9].[H:10][H:12]"
C       -1.31499823       0.84817426      -0.01748470
C       -0.33718380      -0.25057562       0.05906450
N        0.19440247      -1.15412426      -0.81314677
C        1.08143380      -0.54862531       0.19260158
C        2.14038812       0.33524784      -0.16172330
N        3.06234563       1.01592461      -0.26457955
H       -1.00965758       1.53821019      -0.80804057
H       -2.30033949       0.44462193      -0.25472765
H       -1.35941553       1.39853529       0.92062948
H       -0.62370718      -1.15809163       1.47437669
H        0.08493843      -1.20581930      -1.81183440
H        0.38179338      -1.26347800       1.48486469
12
Frame=9 idx=003823 GeodesicLength=0.7110177766855568 rxn_smarts="[C:1]([C@@:2]1([H:10])[N:3]([H:11])[C@:4]1([C:5]#[N:6])[H:12])([H:7])([H:8])[H:9]>>[C:1]([C:2]1=[C:4]([C:5]#[N:6])[N:3]1[H:11])([H:7])([H:8])[H:9].[H:10][H:12]"
C       -1.31522759       0.84933558      -0.02496751
C       -0.34865139      -0.25862502       0.06766885
N        0.17963352      -1.17487499      -0.81149775
C        1.06481422      -0.54658971       0.18366490
C        2.12889785       0.33433852      -0.15664612
N        3.05668898       1.00839029      -0.24817883
H       -1.01818741       1.51664813      -0.83767635
H       -2.30682459       0.44626517      -0.23619422
H       -1.34256766       1.42502387       0.89861595
H       -0.61209619      -1.16243413       1.49101405
H        0.10164670      -1.15201689      -1.81549526
H        0.41187357      -1.28546082       1.48969230
12
Frame=10 idx=003823 GeodesicLength=0.792641896804463 rxn_smarts="[C:1]([C@@:2]1([H:10])[N:3]([H:11])[C@:4]1([C:5]#[N:6])[H:12])([H:7])([H:8])[H:9]>>[C:1]([C:2]1=[C:4]([C:5]#[N:6])[N:3]1[H:11])([H:7])([H:8])[H:9].[H:10][H:12]"
C       -1.31570056       0.85092079      -0.03262263
C       -0.36002824      -0.26563811       0.07600363
N        0.16548474      -1.19325649      -0.81149662
C        1.04809632      -0.54385500       0.17447811
C        2.11758791       0.33422259      -0.15029502
N        3.05179973       1.00052587      -0.23051662
H       -1.02815322       1.49509048      -0.86694348
H       -2.31322333       0.44893418      -0.21709024
H       -1.32550836       1.45150865       0.87546367
H       -0.59993064      -1.16747804       1.50604761
H        0.11651043      -1.10252529      -1.81486416
H        0.44306522      -1.30844964       1.49183575
12
Frame=11 idx=003823 GeodesicLength=0.8744703609383311 rxn_smarts="[C:1]([C@@:2]1([H:10])[N:3]([H:11])[C@:4]1([C:5]#[N:6])[H:12])([H:7])([H:8])[H:9]>>[C:1]([C:2]1=[C:4]([C:5]#[N:6])[N:3]1[H:11])([H:7])([H:8])[H:9].[H:10][H:12]"
C       -1.31632128       0.85292165      -0.04040081
C       -0.37131266      -0.27169189       0.08424244
N        0.15182687      -1.20969290      -0.81264806
C        1.03126009      -0.54052592       0.16532432
C        2.10647087       0.33451169      -0.14282981
N        3.04716144       0.99259455      -0.21217873
H       -1.03903215       1.47375485      -0.89544520
H       -2.31932636       0.45271475      -0.19795690
H       -1.30863269       1.47768801       0.85138015
H       -0.58732774      -1.17308613       1.51977837
H        0.12991512      -1.05699549      -1.81087243
H        0.47531847      -1.33219318       1.49160667
12
Frame=12 idx=003823 GeodesicLength=0.956497130396543 rxn_smarts="[C:1]([C@@:2]1([H:10])[N:3]([H:11])[C@:4]1([C:5]#[N:6])[H:12])([H:7])([H:8])[H:9]>>[C:1]([C:2]1=[C:4]([C:5]#[N:6])[N:3]1[H:11])([H:7])([H:8])[H:9].[H:10][H:12]"
C       -1.31707580       0.85520536      -0.04838004
C       -0.38246364      -0.27691094       0.09246214
N        0.13880162      -1.22446719      -0.81471264
C        1.01438421      -0.53660212       0.15636651
C        2.09553960       0.33516137      -0.13437660
N        3.04286012       0.98447873      -0.19270049
H       -1.05099199       1.45227383      -0.92349821
H       -2.32513434       0.45743988      -0.17854976
H       -1.29170906       1.50373243       0.82607583
H       -0.57428562      -1.17919968       1.53239292
H        0.14134079      -1.01462262      -1.80424315
H        0.50873412      -1.35648905       1.48916349
12
Frame=13 idx=003823 GeodesicLength=1.0386659802089724 rxn_smarts="[C:1]([C@@:2]1([H:10])[N:3]([H:11])[C@:4]1([C:5]#[N:6])[H:12])([H:7])([H:8])[H:9]>>[C:1]([C:2]1=[C:4]([C:5]#[N:6])[N:3]1[H:11])([H:7])([H:8])[H:9].[H:10][H:12]"
C       -1.31793469       0.85775972      -0.05652229
C       -0.39349011      -0.28133762       0.10076740
N        0.12633626      -1.23781764      -0.81741013
C        0.99745840      -0.53216057       0.14778071
C        2.08477401       0.33597165      -0.12502280
N        3.03865760       0.97624600      -0.17246469
H       -1.06378283       1.43073623      -0.95091221
H       -2.33057460       0.46314607      -0.15912051
H       -1.27494652       1.52949458       0.79967027
H       -0.56093371      -1.18574416       1.54405987
H        0.15115200      -0.97509980      -1.79547674
H        0.54328418      -1.38119447       1.48465112
12
Frame=14 idx=003823 GeodesicLength=1.1209417471410348 rxn_smarts="[C:1]([C@@:2]1([H:10])[N:3]([H:11])[C@:4]1([C:5]#[N:6])[H:12])([H:7])([H:8])[H:9]>>[C:1]([C:2]1=[C:4]([C:5]#[N:6])[N:3]1[H:11])([H:7])([H:8])[H:9].[H:10][H:12]"
C       -1.31887580       0.86054872      -0.06481951
C       -0.40438698      -0.28501863       0.10921465
N        0.11442965      -1.24992333      -0.82055625
C        0.98049661      -0.52724986       0.13968488
C        2.07414563       0.33685012      -0.11486411
N        3.03445685       0.96791171      -0.15147966
H       -1.07737763       1.40905083      -0.97770687
H       -2.33562078       0.46982484      -0.13962984
H       -1.25830288       1.55498354       0.77211967
H       -0.54738937      -1.19269771       1.55486377
H        0.15944923      -0.93809956      -1.78496638
H        0.57897546      -1.40618067       1.47813965
12
Frame=15 idx=003823 GeodesicLength=1.2032898527145277 rxn_smarts="[C:1]([C@@:2]1([H:10])[N:3]([H:11])[C@:4]1([C:5]#[N:6])[H:12])([H:7])([H:8])[H:9]>>[C:1]([C:2]1=[C:4]([C:5]#[N:6])[N:3]1[H:11])([H:7])([H:8])[H:9].[H:10][H:12]"
C       -1.31987681       0.86355229      -0.07324992
C       -0.41515277      -0.28798454       0.11785260
N        0.10305278      -1.26093218      -0.82399557
C        0.96350650      -0.52193472       0.13217665
C        2.06362443       0.33770639      -0.10398707
N        3.03013889       0.95952468      -0.12980969
H       -1.09173071       1.38715812      -1.00386287
H       -2.34024616       0.47749751      -0.12005529
H       -1.24175167       1.58018946       0.74341011
H       -0.53379515      -1.20004545       1.56486677
H        0.16642465      -0.90338821      -1.77301357
H        0.61580602      -1.43134334       1.46966787
12
Frame=16 idx=003823 GeodesicLength=1.2856859596659118 rxn_smarts="[C:1]([C@@:2]1([H:10])[N:3]([H:11])[C@:4]1([C:5]#[N:6])[H:12])([H:7])([H:8])[H:9]>>[C:1]([C:2]1=[C:4]([C:5]#[N:6])[N:3]1[H:11])([H:7])([H:8])[H:9].[H:10][H:12]"
C       -1.32088063       0.86675419      -0.08179705
C       -0.42577974      -0.29028104       0.12674593
N        0.09220427      -1.27101059      -0.82755621
C        0.94650237      -0.51630932       0.12538866
C        2.05320326       0.33841274      -0.09243894
N        3.02551812       0.95123911      -0.10779012
H       -1.10655354       1.36517315      -1.02922395
H       -2.34437702       0.48618194      -0.10068682
H       -1.22542920       1.60495341       0.71368068
H       -0.52032961      -1.20776302       1.57416002
H        0.17216514      -0.87075597      -1.75979560
H        0.65375657      -1.45659461       1.45931340
