14
Frame=0 idx=005416 GeodesicLength=0.0 rxn_smarts="[C:1]([C:2]([C@@:3]([O:4][H:13])([C:5]#[C:6][H:14])[H:12])([H:10])[H:11])([H:7])([H:8])[H:9]>>[C:1]([C:2]([C:3](=[O:4])[H:12])([H:10])[H:11])([H:7])([H:8])[H:9].[C:5](#[C:6][H:14])[H:13]"
C       -1.33568355       1.08347359      -0.40289541
C       -1.04285538      -0.24993630       0.26616234
C        0.31570813      -0.35070757       0.84055716
O        0.67290026      -1.45153246       1.38527428
C        2.47281518      -0.64917592      -0.11345240
C        1.91670945      -0.29356268      -1.15497114
H       -1.23569719       1.91153312       0.30064390
H       -2.35244231       1.09815063      -0.79382805
H       -0.65025884       1.26130122      -1.23179511
H       -1.18452854      -1.09728315      -0.40793783
H       -1.72314757      -0.42784488       1.11013804
H        0.88375622       0.54972467       1.04761714
H        1.70356617      -1.39264355       1.27027523
H        1.55915796       0.00850330      -2.11578809
14
Frame=1 idx=005416 GeodesicLength=0.10067854392206799 rxn_smarts="[C:1]([C:2]([C@@:3]([O:4][H:13])([C:5]#[C:6][H:14])[H:12])([H:10])[H:11])([H:7])([H:8])[H:9]>>[C:1]([C:2]([C:3](=[O:4])[H:12])([H:10])[H:11])([H:7])([H:8])[H:9].[C:5](#[C:6][H:14])[H:13]"
C       -1.32680740       1.08069929      -0.40231410
C       -1.03995133      -0.25053091       0.27415245
C        0.31064266      -0.34210761       0.87218926
O        0.67142879      -1.44726338       1.40979312
C        2.43185137      -0.63477875      -0.12812844
C        1.89524664      -0.28122333      -1.17794999
H       -1.24042684       1.91077346       0.30081436
H       -2.33775198       1.09169153      -0.80831895
H       -0.62950381       1.25922423      -1.22116184
H       -1.16415628      -1.09790280      -0.40332656
H       -1.73415894      -0.42892825       1.10622275
H        0.86204948       0.56408898       1.10233736
H        1.71252039      -1.41358585       1.24131482
H        1.58901726      -0.01015660      -2.16562425
14
Frame=2 idx=005416 GeodesicLength=0.19889738089009995 rxn_smarts="[C:1]([C:2]([C@@:3]([O:4][H:13])([C:5]#[C:6][H:14])[H:12])([H:10])[H:11])([H:7])([H:8])[H:9]>>[C:1]([C:2]([C:3](=[O:4])[H:12])([H:10])[H:11])([H:7])([H:8])[H:9].[C:5](#[C:6][H:14])[H:13]"
C       -1.31822893       1.07881224      -0.40111222
C       -1.03678993      -0.25096612       0.28098409
C        0.30603742      -0.33379102       0.90111421
O        0.67121542      -1.44316135       1.43126604
C        2.39274072      -0.61641883      -0.14037613
C        1.87972671      -0.26664176      -1.20067562
H       -1.24522006       1.91006257       0.30230060
H       -2.32337115       1.08636948      -0.82150401
H       -0.60972615       1.25919717      -1.20994276
H       -1.14380414      -1.09757368      -0.40034426
H       -1.74402810      -0.43089804       1.10126838
H        0.83824875       0.57785308       1.15764719
H        1.72019884      -1.43325958       1.20977900
H        1.61300060      -0.03958417      -2.21040450
14
Frame=3 idx=005416 GeodesicLength=0.29604725862436365 rxn_smarts="[C:1]([C:2]([C@@:3]([O:4][H:13])([C:5]#[C:6][H:14])[H:12])([H:10])[H:11])([H:7])([H:8])[H:9]>>[C:1]([C:2]([C:3](=[O:4])[H:12])([H:10])[H:11])([H:7])([H:8])[H:9].[C:5](#[C:6][H:14])[H:13]"
C       -1.31033657       1.07689403      -0.39971942
C       -1.03410638      -0.25129040       0.28811791
C        0.30162981      -0.32569268       0.92800336
O        0.67181969      -1.43871279       1.45141453
C        2.35391352      -0.59743272      -0.15192199
C        1.86793830      -0.25403456      -1.22451428
H       -1.24937093       1.90954218       0.30334466
H       -2.31004543       1.08130026      -0.83306487
H       -0.59179909       1.25852041      -1.19943651
H       -1.12528086      -1.09732564      -0.39618994
H       -1.75301581      -0.43206915       1.09759020
H        0.81288481       0.59085150       1.21213705
H        1.72612145      -1.45207507       1.17616998
H        1.63964752      -0.06847538      -2.25193067
14
Frame=4 idx=005416 GeodesicLength=0.3928837776534961 rxn_smarts="[C:1]([C:2]([C@@:3]([O:4][H:13])([C:5]#[C:6][H:14])[H:12])([H:10])[H:11])([H:7])([H:8])[H:9]>>[C:1]([C:2]([C:3](=[O:4])[H:12])([H:10])[H:11])([H:7])([H:8])[H:9].[C:5](#[C:6][H:14])[H:13]"
C       -1.30351603       1.07428656      -0.39839726
C       -1.03240785      -0.25150030       0.29660751
C        0.29736110      -0.31757104       0.95327607
O        0.67295213      -1.43329290       1.47167419
C        2.31411212      -0.58081923      -0.16420028
C        1.85814393      -0.24758378      -1.25068405
H       -1.25252714       1.90931034       0.30279978
H       -2.29846380       1.07571924      -0.84272948
H       -0.57644769       1.25538107      -1.19056091
H       -1.10986028      -1.09790517      -0.38890487
H       -1.76130255      -0.43126517       1.09690578
H        0.78670434       0.60330272       1.26438159
H        1.72977442      -1.47039365       1.14122653
H        1.67547729      -0.08766869      -2.29139460
14
Frame=5 idx=005416 GeodesicLength=0.4895059529826815 rxn_smarts="[C:1]([C:2]([C@@:3]([O:4][H:13])([C:5]#[C:6][H:14])[H:12])([H:10])[H:11])([H:7])([H:8])[H:9]>>[C:1]([C:2]([C:3](=[O:4])[H:12])([H:10])[H:11])([H:7])([H:8])[H:9].[C:5](#[C:6][H:14])[H:13]"
C       -1.29768678       1.07129181      -0.39692402
C       -1.03153733      -0.25155634       0.30610227
C        0.29327331      -0.30931505       0.97708082
O        0.67478153      -1.42712995       1.49141714
C        2.27352260      -0.56580924      -0.17715073
C        1.85116362      -0.24525718      -1.27858127
H       -1.25502196       1.90934014       0.30137391
H       -2.28845793       1.06989619      -0.85063556
H       -0.56332542       1.25064414      -1.18280810
H       -1.09696458      -1.09896251      -0.37939821
H       -1.76903927      -0.42905947       1.09855377
H        0.75945233       0.61522461       1.31518433
H        1.73141045      -1.48797263       1.10492874
H        1.71842944      -0.10133453      -2.32914311
14
Frame=6 idx=005416 GeodesicLength=0.5854234696358183 rxn_smarts="[C:1]([C:2]([C@@:3]([O:4][H:13])([C:5]#[C:6][H:14])[H:12])([H:10])[H:11])([H:7])([H:8])[H:9]>>[C:1]([C:2]([C:3](=[O:4])[H:12])([H:10])[H:11])([H:7])([H:8])[H:9].[C:5](#[C:6][H:14])[H:13]"
C       -1.29245114       1.06905251      -0.39468361
C       -1.03071436      -0.25145463       0.31492841
C        0.28945074      -0.30099768       0.99927287
O        0.67775430      -1.42107096       1.50854033
C        2.23370528      -0.54874317      -0.18941275
C        1.85041074      -0.24013681      -1.30613686
H       -1.25802369       1.90944059       0.30141144
H       -2.27912946       1.06497193      -0.85735274
H       -0.55125069       1.24765385      -1.17437210
H       -1.08422868      -1.09920363      -0.37115086
H       -1.77628241      -0.42769443       1.09963869
H        0.72989235       0.62612205       1.36684740
H        1.73227808      -1.50360029       1.06684279
H        1.75858894      -0.12433933      -2.36437301
14
Frame=7 idx=005416 GeodesicLength=0.6814121718304826 rxn_smarts="[C:1]([C:2]([C@@:3]([O:4][H:13])([C:5]#[C:6][H:14])[H:12])([H:10])[H:11])([H:7])([H:8])[H:9]>>[C:1]([C:2]([C:3](=[O:4])[H:12])([H:10])[H:11])([H:7])([H:8])[H:9].[C:5](#[C:6][H:14])[H:13]"
C       -1.28816130       1.06697642      -0.39192667
C       -1.03046471      -0.25116001       0.32411328
C        0.28582084      -0.29249475       1.02010966
O        0.68152260      -1.41463504       1.52424390
C        2.19336559      -0.53230106      -0.20245934
C        1.85426801      -0.23605125      -1.33446881
H       -1.26101157       1.90975943       0.30174958
H       -2.27115173       1.06035835      -0.86249052
H       -0.54100054       1.24460220      -1.16621328
H       -1.07307175      -1.09931556      -0.36219596
H       -1.78315356      -0.42590271       1.10188439
H        0.69872522       0.63603786       1.41799965
H        1.73205363      -1.51756053       1.02768133
H        1.80225926      -0.14831335      -2.39802720
14
Frame=8 idx=005416 GeodesicLength=0.7780789866669218 rxn_smarts="[C:1]([C:2]([C@@:3]([O:4][H:13])([C:5]#[C:6][H:14])[H:12])([H:10])[H:11])([H:7])([H:8])[H:9]>>[C:1]([C:2]([C:3](=[O:4])[H:12])([H:10])[H:11])([H:7])([H:8])[H:9].[C:5](#[C:6][H:14])[H:13]"
C       -1.28517548       1.06450114      -0.38890725
C       -1.03127604      -0.25059298       0.33462728
C        0.28242124      -0.28361538       1.03970598
O        0.68577853      -1.40731639       1.53960516
C        2.15119159      -0.51916819      -0.21779635
C        1.86104548      -0.23727017      -1.36476651
H       -1.26346020       1.91044988       0.30125758
H       -2.26523468       1.05546936      -0.86564427
H       -0.53336661       1.23976400      -1.15930884
H       -1.06491355      -1.09994364      -0.35066670
H       -1.78972409      -0.42240217       1.10698450
H        0.66686065       0.64525977       1.46725843
H        1.73035084      -1.53034839       0.98822979
H        1.85550231      -0.16478684      -2.43057878
14
Frame=9 idx=005416 GeodesicLength=0.8749365849096823 rxn_smarts="[C:1]([C:2]([C@@:3]([O:4][H:13])([C:5]#[C:6][H:14])[H:12])([H:10])[H:11])([H:7])([H:8])[H:9]>>[C:1]([C:2]([C:3](=[O:4])[H:12])([H:10])[H:11])([H:7])([H:8])[H:9].[C:5](#[C:6][H:14])[H:13]"
C       -1.28300720       1.06312330      -0.38484545
C       -1.03208080      -0.24985303       0.34413950
C        0.27927874      -0.27459677       1.05776799
O        0.69103313      -1.40025691       1.55188711
C        2.10946508      -0.50387943      -0.23333225
C        1.87624144      -0.23307787      -1.39372780
H       -1.26705358       1.91119521       0.30302627
H       -2.26015468       1.05180111      -0.86760971
H       -0.52686427       1.23765086      -1.15124936
H       -1.05649202      -1.09940600      -0.34125520
H       -1.79598350      -0.42034744       1.11093197
H        0.63228211       0.65263033       1.51774092
H        1.72911970      -1.54024415       0.94743462
H        1.90421586      -0.19473921      -2.46090860
14
Frame=10 idx=005416 GeodesicLength=0.9731821228614983 rxn_smarts="[C:1]([C:2]([C@@:3]([O:4][H:13])([C:5]#[C:6][H:14])[H:12])([H:10])[H:11])([H:7])([H:8])[H:9]>>[C:1]([C:2]([C:3](=[O:4])[H:12])([H:10])[H:11])([H:7])([H:8])[H:9].[C:5](#[C:6][H:14])[H:13]"
C       -1.28250155       1.06117915      -0.38056487
C       -1.03427542      -0.24868632       0.35551010
C        0.27649515      -0.26499903       1.07449270
O        0.69653159      -1.39208842       1.56407581
C        2.06474579      -0.49348131      -0.25266979
C        1.89461218      -0.23512217      -1.42469830
H       -1.26985299       1.91250037       0.30351313
H       -2.25779433       1.04772399      -0.86714809
H       -0.52367760       1.23297017      -1.14502494
H       -1.05205693      -1.09961422      -0.32833861
H       -1.80200287      -0.41579970       1.11875294
H        0.59764046       0.65925027       1.56564141
H        1.72646076      -1.54942518       0.90652265
H        1.96567577      -0.21440761      -2.49006415
14
Frame=11 idx=005416 GeodesicLength=1.0722562427264775 rxn_smarts="[C:1]([C:2]([C@@:3]([O:4][H:13])([C:5]#[C:6][H:14])[H:12])([H:10])[H:11])([H:7])([H:8])[H:9]>>[C:1]([C:2]([C:3](=[O:4])[H:12])([H:10])[H:11])([H:7])([H:8])[H:9].[C:5](#[C:6][H:14])[H:13]"
C       -1.28318003       1.06050985      -0.37508975
C       -1.03646558      -0.24731006       0.36572758
C        0.27405567      -0.25506765       1.08951539
O        0.70288481      -1.38395358       1.57321339
C        2.01991994      -0.48137336      -0.27317429
C        1.92301823      -0.23308365      -1.45364548
H       -1.27441685       1.91385577       0.30668656
H       -2.25663700       1.04494816      -0.86540782
H       -0.52200306       1.23164060      -1.13744552
H       -1.04727231      -1.09850368      -0.31788470
H       -1.80771575      -0.41297953       1.12525521
H        0.56046199       0.66367950       1.61418661
H        1.72527045      -1.55511492       0.86483255
H        2.02207949      -0.24724743      -2.51676973
14
Frame=12 idx=005416 GeodesicLength=1.173166007404696 rxn_smarts="[C:1]([C:2]([C@@:3]([O:4][H:13])([C:5]#[C:6][H:14])[H:12])([H:10])[H:11])([H:7])([H:8])[H:9]>>[C:1]([C:2]([C:3](=[O:4])[H:12])([H:10])[H:11])([H:7])([H:8])[H:9].[C:5](#[C:6][H:14])[H:13]"
C       -1.28588402       1.05964464      -0.36911424
C       -1.04005478      -0.24537857       0.37753320
C        0.27213696      -0.24442482       1.10277844
O        0.70952289      -1.37482251       1.58139366
C        1.97142205      -0.47384378      -0.29858531
C        1.95711981      -0.23507181      -1.48294274
H       -1.27860837       1.91585919       0.30924076
H       -2.25865788       1.04218941      -0.86085760
H       -0.52412591       1.22857026      -1.13147065
H       -1.04650316      -1.09778043      -0.30456555
H       -1.81315597      -0.40796797       1.13536840
H        0.52330564       0.66693889       1.66019675
H        1.72347117      -1.55982645       0.82248722
H        2.09001158      -0.27408607      -2.54146234
14
Frame=13 idx=005416 GeodesicLength=1.276407978057751 rxn_smarts="[C:1]([C:2]([C@@:3]([O:4][H:13])([C:5]#[C:6][H:14])[H:12])([H:10])[H:11])([H:7])([H:8])[H:9]>>[C:1]([C:2]([C:3](=[O:4])[H:12])([H:10])[H:11])([H:7])([H:8])[H:9].[C:5](#[C:6][H:14])[H:13]"
C       -1.29074457       1.05880348      -0.36269273
C       -1.04484234      -0.24286651       0.39038962
C        0.27097873      -0.23299423       1.11370327
O        0.71651364      -1.36481369       1.58781530
C        1.91945915      -0.47040690      -0.32891483
C        2.00273338      -0.23706596      -1.50962386
H       -1.28278125       1.91847079       0.31144536
H       -2.26396800       1.03960546      -0.85361605
H       -0.53018547       1.22443995      -1.12705592
H       -1.04938432      -1.09720153      -0.28923131
H       -1.81813453      -0.40115881       1.14846887
H        0.48636412       0.66867955       1.70376312
H        1.72114220      -1.56390224       0.77860314
H        2.16284926      -0.29958936      -2.56305397
14
Frame=14 idx=005416 GeodesicLength=1.3835740705999442 rxn_smarts="[C:1]([C:2]([C@@:3]([O:4][H:13])([C:5]#[C:6][H:14])[H:12])([H:10])[H:11])([H:7])([H:8])[H:9]>>[C:1]([C:2]([C:3](=[O:4])[H:12])([H:10])[H:11])([H:7])([H:8])[H:9].[C:5](#[C:6][H:14])[H:13]"
C       -1.29909895       1.05746762      -0.35577868
C       -1.05196413      -0.23938456       0.40582409
C        0.27086274      -0.22051491       1.12121246
O        0.72371379      -1.35350238       1.59228534
C        1.86043182      -0.47514730      -0.36813309
C        2.06161260      -0.24221973      -1.53286762
H       -1.28608633       1.92216257       0.31200429
H       -2.27491824       1.03698847      -0.84160505
H       -0.54288604       1.21676779      -1.12587075
H       -1.05925240      -1.09742897      -0.26900165
H       -1.82247686      -0.39025376       1.16776994
H        0.45176972       0.66972474       1.74233411
H        1.71734190      -1.56855973       0.73233308
H        2.25095037      -0.31609984      -2.58050647
14
Frame=15 idx=005416 GeodesicLength=1.4938634488550724 rxn_smarts="[C:1]([C:2]([C@@:3]([O:4][H:13])([C:5]#[C:6][H:14])[H:12])([H:10])[H:11])([H:7])([H:8])[H:9]>>[C:1]([C:2]([C:3](=[O:4])[H:12])([H:10])[H:11])([H:7])([H:8])[H:9].[C:5](#[C:6][H:14])[H:13]"
C       -1.31152061       1.05433780      -0.34947440
C       -1.06207458      -0.23438749       0.42567952
C        0.27281942      -0.20682405       1.12368619
O        0.73128653      -1.34033973       1.59499772
C        1.78980265      -0.49585060      -0.42140470
C        2.13481092      -0.25208277      -1.54818381
H       -1.28661700       1.92725941       0.30735045
H       -2.29292140       1.03315006      -0.82402363
H       -0.56427456       1.20121327      -1.13079209
H       -1.07997146      -1.09973931      -0.23942760
H       -1.82519289      -0.37127970       1.19718371
H        0.42402678       0.67169352       1.77186326
H        1.70944140      -1.57750317       0.68208414
H        2.36038481      -0.30964724      -2.58953877
14
Frame=16 idx=005416 GeodesicLength=1.6013235348175263 rxn_smarts="[C:1]([C:2]([C@@:3]([O:4][H:13])([C:5]#[C:6][H:14])[H:12])([H:10])[H:11])([H:7])([H:8])[H:9]>>[C:1]([C:2]([C:3](=[O:4])[H:12])([H:10])[H:11])([H:7])([H:8])[H:9].[C:5](#[C:6][H:14])[H:13]"
C       -1.32703091       1.05080804      -0.34349835
C       -1.07270690      -0.22804311       0.44690193
C        0.27784840      -0.19179023       1.12002307
O        0.74079626      -1.32546256       1.59376693
C        1.70893006      -0.52915333      -0.48873989
C        2.21105432      -0.27456543      -1.55139658
H       -1.28724946       1.93294578       0.30035109
H       -2.31561275       1.02873692      -0.80298241
H       -0.59203558       1.18343889      -1.13892925
H       -1.10649649      -1.10237789      -0.20558064
H       -1.82467316      -0.34799936       1.23161356
H        0.40298013       0.67438055       1.79306184
H        1.70257868      -1.58585509       0.62880416
H        2.48161740      -0.28506317      -2.58339546
