15
Frame=0 idx=006310 GeodesicLength=0.0 rxn_smarts="[C:1]([C:2]([O:3]/[C:4](=[N:5]/[C:6]([H:13])([H:14])[H:15])[H:12])([H:10])[H:11])([H:7])([H:8])[H:9]>>[C:1]([C:2]([O:3][C:6]([H:13])([H:14])[H:15])([H:10])[H:11])([H:7])([H:8])[H:9].[C:4](#[N:5])[H:12]"
C       -2.12522908       0.34508472      -0.03682135
C       -0.86295524      -0.41946359      -0.37661158
O        0.30665926       0.22060205       0.15257091
C        0.88011296      -0.21917236       1.44529577
N        2.08691214      -0.28900477       1.46693798
C        2.01977376       0.23754457      -0.72710353
H       -2.28560817       0.38078611       1.04145705
H       -2.06266586       1.36895609      -0.40674195
H       -2.99241357      -0.13604797      -0.49417242
H       -0.90073941      -1.44930383      -0.00884196
H       -0.71590491      -0.45899422      -1.45898664
H        0.07489363      -0.37288799       2.16445804
H        2.47260518      -0.73986442      -0.78307920
H        2.68002859       1.01849841      -0.38563801
H        1.42453073       0.51326721      -1.59272306
15
Frame=1 idx=006310 GeodesicLength=0.10282592227751053 rxn_smarts="[C:1]([C:2]([O:3]/[C:4](=[N:5]/[C:6]([H:13])([H:14])[H:15])[H:12])([H:10])[H:11])([H:7])([H:8])[H:9]>>[C:1]([C:2]([O:3][C:6]([H:13])([H:14])[H:15])([H:10])[H:11])([H:7])([H:8])[H:9].[C:4](#[N:5])[H:12]"
C       -2.13638399       0.32371369      -0.04175148
C       -0.86872824      -0.43390313      -0.37597707
O        0.29331734       0.21452663       0.15557030
C        0.88769139      -0.22477668       1.46067868
N        2.08913578      -0.34900801       1.46603638
C        2.02312399       0.24705743      -0.71737873
H       -2.30940924       0.34984001       1.03489652
H       -2.07618648       1.35103223      -0.40239373
H       -2.99809576      -0.15701765      -0.50992471
H       -0.90733397      -1.46400573      -0.00868606
H       -0.71791590      -0.47324069      -1.45811212
H        0.08153377      -0.21732630       2.19368163
H        2.42115439      -0.74505633      -0.86932275
H        2.76662705       0.94804160      -0.36891295
H        1.45146984       0.63012292      -1.55840389
15
Frame=2 idx=006310 GeodesicLength=0.20434916677716303 rxn_smarts="[C:1]([C:2]([O:3]/[C:4](=[N:5]/[C:6]([H:13])([H:14])[H:15])[H:12])([H:10])[H:11])([H:7])([H:8])[H:9]>>[C:1]([C:2]([O:3][C:6]([H:13])([H:14])[H:15])([H:10])[H:11])([H:7])([H:8])[H:9].[C:4](#[N:5])[H:12]"
C       -2.14881676       0.30032648      -0.04483834
C       -0.87434187      -0.44558092      -0.37783332
O        0.27885182       0.21200322       0.15712695
C        0.89073378      -0.22399413       1.47771017
N        2.08417595      -0.40271653       1.46887697
C        2.02812228       0.25269426      -0.70475271
H       -2.33125036       0.31314886       1.03039435
H       -2.09459163       1.33217145      -0.39315483
H       -3.00421783      -0.18108708      -0.52353095
H       -0.91024896      -1.47750396      -0.01522818
H       -0.72066764      -0.47992820      -1.45981897
H        0.10026163      -0.05903603       2.20811964
H        2.36405138      -0.74420529      -0.95296130
H        2.85066025       0.86281245      -0.35849051
H        1.48727796       0.74089541      -1.51161897
15
Frame=3 idx=006310 GeodesicLength=0.30630557809392006 rxn_smarts="[C:1]([C:2]([O:3]/[C:4](=[N:5]/[C:6]([H:13])([H:14])[H:15])[H:12])([H:10])[H:11])([H:7])([H:8])[H:9]>>[C:1]([C:2]([O:3][C:6]([H:13])([H:14])[H:15])([H:10])[H:11])([H:7])([H:8])[H:9].[C:4](#[N:5])[H:12]"
C       -2.16273644       0.27473997      -0.04567813
C       -0.87989766      -0.45437995      -0.38259186
O        0.26366747       0.21306616       0.15652205
C        0.88935873      -0.21616294       1.49639673
N        2.07213217      -0.45060305       1.47626022
C        2.03553903       0.25401424      -0.68980582
H       -2.35041546       0.27104457       1.02873288
H       -2.11854597       1.31191865      -0.37919206
H       -3.01163302      -0.20883151      -0.53355798
H       -0.90928567      -1.48963480      -0.02873936
H       -0.72484808      -0.47880339      -1.46480359
H        0.12938853       0.10195513       2.20748517
H        2.30337605      -0.73602864      -1.03464238
H        2.92967536       0.76314856      -0.35300752
H        1.53422496       0.84455700      -1.45337836
15
Frame=4 idx=006310 GeodesicLength=0.40855105175807893 rxn_smarts="[C:1]([C:2]([O:3]/[C:4](=[N:5]/[C:6]([H:13])([H:14])[H:15])[H:12])([H:10])[H:11])([H:7])([H:8])[H:9]>>[C:1]([C:2]([O:3][C:6]([H:13])([H:14])[H:15])([H:10])[H:11])([H:7])([H:8])[H:9].[C:4](#[N:5])[H:12]"
C       -2.17769092       0.24692056      -0.04381167
C       -0.88495507      -0.45941381      -0.39038476
O        0.24803172       0.21897282       0.15333612
C        0.88389224      -0.19896842       1.51648685
N        2.05343988      -0.48905452       1.48935701
C        2.04530237       0.24988782      -0.67334863
H       -2.36626683       0.22269554       1.03022207
H       -2.14811138       1.29028546      -0.35908334
H       -3.01974319      -0.24022915      -0.53977090
H       -0.90317500      -1.49944219      -0.04974585
H       -0.73078468      -0.46875520      -1.47310289
H        0.16524293       0.26039921       2.19187216
H        2.23979132      -0.72057548      -1.11367980
H        3.00119069       0.64912310      -0.35305088
H        1.59383593       0.93815427      -1.38529549
15
Frame=5 idx=006310 GeodesicLength=0.5111018520723916 rxn_smarts="[C:1]([C:2]([O:3]/[C:4](=[N:5]/[C:6]([H:13])([H:14])[H:15])[H:12])([H:10])[H:11])([H:7])([H:8])[H:9]>>[C:1]([C:2]([O:3][C:6]([H:13])([H:14])[H:15])([H:10])[H:11])([H:7])([H:8])[H:9].[C:4](#[N:5])[H:12]"
C       -2.19303291       0.21755940      -0.04005596
C       -0.88980771      -0.46177755      -0.40025905
O        0.23196568       0.22848029       0.14790852
C        0.87522634      -0.17420666       1.53751122
N        2.02916360      -0.51914301       1.50735186
C        2.05638492       0.24093761      -0.65607826
H       -2.37841373       0.17109732       1.03387107
H       -2.18144552       1.26702977      -0.33554396
H       -3.02824811      -0.27451661      -0.54246358
H       -0.89352897      -1.50716924      -0.07566471
H       -0.73857267      -0.45288819      -1.48353174
H        0.20773255       0.41441427       2.16289593
H        2.17588772      -0.69450790      -1.19179727
H        3.06157020       0.52325898      -0.35726241
H        1.66511860       1.02143154      -1.30688166
15
Frame=6 idx=006310 GeodesicLength=0.6137868420362356 rxn_smarts="[C:1]([C:2]([O:3]/[C:4](=[N:5]/[C:6]([H:13])([H:14])[H:15])[H:12])([H:10])[H:11])([H:7])([H:8])[H:9]>>[C:1]([C:2]([O:3][C:6]([H:13])([H:14])[H:15])([H:10])[H:11])([H:7])([H:8])[H:9].[C:4](#[N:5])[H:12]"
C       -2.20833084       0.18685278      -0.03455605
C       -0.89428615      -0.46131596      -0.41180456
O        0.21565152       0.24199292       0.14033538
C        0.86419349      -0.14151524       1.55903473
N        2.00061204      -0.53922757       1.53023751
C        2.06809765       0.22693496      -0.63879405
H       -2.38692733       0.11640934       1.03930661
H       -2.21784636       1.24216332      -0.30847070
H       -3.03659560      -0.31128107      -0.54225484
H       -0.88022359      -1.51227816      -0.10571095
H       -0.74830330      -0.43170664      -1.49556742
H        0.25412484       0.56085171       2.12236275
H        2.11286812      -0.65625901      -1.26900890
H        3.10879284       0.38666983      -0.36575385
H        1.74817268       1.09170877      -1.21935568
15
Frame=7 idx=006310 GeodesicLength=0.7162201840414989 rxn_smarts="[C:1]([C:2]([O:3]/[C:4](=[N:5]/[C:6]([H:13])([H:14])[H:15])[H:12])([H:10])[H:11])([H:7])([H:8])[H:9]>>[C:1]([C:2]([O:3][C:6]([H:13])([H:14])[H:15])([H:10])[H:11])([H:7])([H:8])[H:9].[C:4](#[N:5])[H:12]"
C       -2.22314361       0.15547564      -0.02813785
C       -0.89863147      -0.45901215      -0.42402111
O        0.19900175       0.25855153       0.13112621
C        0.85186852      -0.10253164       1.58063659
N        1.96922260      -0.55046951       1.55667637
C        2.07918783       0.20877952      -0.62224185
H       -2.39219008       0.06100051       1.04551967
H       -2.25569063       1.21577559      -0.28010869
H       -3.04441580      -0.34967186      -0.54000150
H       -0.86470240      -1.51509092      -0.13738267
H       -0.75980095      -0.40814301      -1.50806641
H        0.30441651       0.69815244       2.07253559
H        2.05339205      -0.60280224      -1.34537445
H        3.14037741       0.24235363      -0.37824115
H        1.84110827       1.14763245      -1.12291875
15
Frame=8 idx=006310 GeodesicLength=0.8178968087743755 rxn_smarts="[C:1]([C:2]([O:3]/[C:4](=[N:5]/[C:6]([H:13])([H:14])[H:15])[H:12])([H:10])[H:11])([H:7])([H:8])[H:9]>>[C:1]([C:2]([O:3][C:6]([H:13])([H:14])[H:15])([H:10])[H:11])([H:7])([H:8])[H:9].[C:4](#[N:5])[H:12]"
C       -2.23720008       0.12378933      -0.02085649
C       -0.90299019      -0.45527453      -0.43648447
O        0.18211780       0.27774697       0.12021122
C        0.83911476      -0.05765041       1.60165081
N        1.93641321      -0.55242359       1.58577116
C        2.08888203       0.18707278      -0.60725113
H       -2.39459324       0.00528445       1.05230073
H       -2.29396943       1.18813414      -0.25038333
H       -3.05158018      -0.38877132      -0.53612088
H       -0.84766444      -1.51567448      -0.16957703
H       -0.77309725      -0.38353519      -1.52060173
H        0.35603456       0.82465202       2.01507308
H        2.00058968      -0.53243380      -1.41950277
H        3.15478411       0.09249775      -0.39462877
H        1.94315866       1.18658589      -1.01960040
15
Frame=9 idx=006310 GeodesicLength=0.919015300687724 rxn_smarts="[C:1]([C:2]([O:3]/[C:4](=[N:5]/[C:6]([H:13])([H:14])[H:15])[H:12])([H:10])[H:11])([H:7])([H:8])[H:9]>>[C:1]([C:2]([O:3][C:6]([H:13])([H:14])[H:15])([H:10])[H:11])([H:7])([H:8])[H:9].[C:4](#[N:5])[H:12]"
C       -2.25036213       0.09205727      -0.01308933
C       -0.90763485      -0.45087664      -0.44870871
O        0.16471960       0.29905117       0.10760344
C        0.82651907      -0.00794383       1.62153520
N        1.90237871      -0.54751341       1.61578886
C        2.09609409       0.16344753      -0.59451176
H       -2.39428024      -0.04917860       1.05929783
H       -2.33199690       1.15924869      -0.22082997
H       -3.05802701      -0.42858956      -0.53053528
H       -0.83006764      -1.51456338      -0.20075005
H       -0.78799457      -0.35999155      -1.53270490
H        0.40992648       0.94111083       1.95112824
H        1.95804223      -0.44330630      -1.48965406
H        3.15012356      -0.06071677      -0.41455176
H        2.05255960       1.20776455      -0.91001777
15
Frame=10 idx=006310 GeodesicLength=1.0195839225697099 rxn_smarts="[C:1]([C:2]([O:3]/[C:4](=[N:5]/[C:6]([H:13])([H:14])[H:15])[H:12])([H:10])[H:11])([H:7])([H:8])[H:9]>>[C:1]([C:2]([O:3][C:6]([H:13])([H:14])[H:15])([H:10])[H:11])([H:7])([H:8])[H:9].[C:4](#[N:5])[H:12]"
C       -2.26262823       0.06083148      -0.00544639
C       -0.91250895      -0.44633382      -0.46003682
O        0.14663687       0.32194728       0.09426347
C        0.81528274       0.04503813       1.64030108
N        1.86886268      -0.53662182       1.64537597
C        2.10030917       0.14018619      -0.58417509
H       -2.39244801      -0.10130447       1.06587760
H       -2.36903516       1.12961099      -0.19270086
H       -3.06361180      -0.46824872      -0.52446797
H       -0.81263065      -1.51214572      -0.22954212
H       -0.80351455      -0.33896095      -1.54379870
H        0.46572098       1.04603872       1.88291368
H        1.92783505      -0.33659399      -1.55101369
H        3.12550124      -0.21318428      -0.44012767
H        2.16622862       1.20974098      -0.79742249
15
Frame=11 idx=006310 GeodesicLength=1.120345393871353 rxn_smarts="[C:1]([C:2]([O:3]/[C:4](=[N:5]/[C:6]([H:13])([H:14])[H:15])[H:12])([H:10])[H:11])([H:7])([H:8])[H:9]>>[C:1]([C:2]([O:3][C:6]([H:13])([H:14])[H:15])([H:10])[H:11])([H:7])([H:8])[H:9].[C:4](#[N:5])[H:12]"
C       -2.27398698       0.03015834       0.00185200
C       -0.91746961      -0.44166182      -0.47039122
O        0.12765903       0.34653109       0.08060669
C        0.80593177       0.10061483       1.65797767
N        1.83600506      -0.52152004       1.67355570
C        2.10144241       0.11937936      -0.57615834
H       -2.38949344      -0.15103158       1.07185992
H       -2.40506350       1.09935370      -0.16636487
H       -3.06813312      -0.50780814      -0.51832466
H       -0.79530857      -1.50854065      -0.25579153
H       -0.81895220      -0.32049261      -1.55387683
H        0.52386100       1.13990099       1.81176110
H        1.91174233      -0.21605420      -1.59928079
H        3.08004950      -0.36111673      -0.47241890
H        2.28171633       1.19228745      -0.68500593
15
Frame=12 idx=006310 GeodesicLength=1.2220433617620667 rxn_smarts="[C:1]([C:2]([O:3]/[C:4](=[N:5]/[C:6]([H:13])([H:14])[H:15])[H:12])([H:10])[H:11])([H:7])([H:8])[H:9]>>[C:1]([C:2]([O:3][C:6]([H:13])([H:14])[H:15])([H:10])[H:11])([H:7])([H:8])[H:9].[C:4](#[N:5])[H:12]"
C       -2.28435971       0.00008926       0.00872788
C       -0.92234952      -0.43687728      -0.47980309
O        0.10770887       0.37266301       0.06689751
C        0.79880994       0.15836479       1.67463149
N        1.80368083      -0.50355464       1.69986874
C        2.09996796       0.10263440      -0.57000715
H       -2.38560313      -0.19842592       1.07719310
H       -2.43998563       1.06860938      -0.14185867
H       -3.07142721      -0.54716570      -0.51230873
H       -0.77800490      -1.50384435      -0.27955971
H       -0.83374576      -0.30438575      -1.56300372
H        0.58420353       1.22306689       1.73847850
H        1.91077116      -0.08701990      -1.63161093
H        3.01381202      -0.49998891      -0.51222119
H        2.39652156       1.15583474      -0.57542402
15
Frame=13 idx=006310 GeodesicLength=1.3251837347980198 rxn_smarts="[C:1]([C:2]([O:3]/[C:4](=[N:5]/[C:6]([H:13])([H:14])[H:15])[H:12])([H:10])[H:11])([H:7])([H:8])[H:9]>>[C:1]([C:2]([O:3][C:6]([H:13])([H:14])[H:15])([H:10])[H:11])([H:7])([H:8])[H:9].[C:4](#[N:5])[H:12]"
C       -2.29354629      -0.02961194       0.01533694
C       -0.92684246      -0.43152826      -0.48866372
O        0.08686658       0.40059584       0.05318941
C        0.79400840       0.21860892       1.69034839
N        1.77148350      -0.48302959       1.72473535
C        2.09675293       0.09037394      -0.56481097
H       -2.38046140      -0.24457209       1.08196981
H       -2.47391509       1.03726950      -0.11825643
H       -3.07318352      -0.58641647      -0.50657940
H       -0.76005104      -1.49774109      -0.30191655
H       -0.84769594      -0.28926348      -1.57156106
H        0.64575885       1.29633475       1.66370759
H        1.92431996       0.04424321      -1.64659740
H        2.92780335      -0.62576536      -0.55975794
H        2.50870216       1.10050213      -0.47114403
15
Frame=14 idx=006310 GeodesicLength=1.4300229459402527 rxn_smarts="[C:1]([C:2]([O:3]/[C:4](=[N:5]/[C:6]([H:13])([H:14])[H:15])[H:12])([H:10])[H:11])([H:7])([H:8])[H:9]>>[C:1]([C:2]([O:3][C:6]([H:13])([H:14])[H:15])([H:10])[H:11])([H:7])([H:8])[H:9].[C:4](#[N:5])[H:12]"
C       -2.30134726      -0.05886389       0.02176068
C       -0.93084409      -0.42565109      -0.49713125
O        0.06528190       0.42999824       0.03933894
C        0.79152680       0.28130233       1.70510478
N        1.73880507      -0.46053395       1.74857732
C        2.09272854       0.08226962      -0.55981013
H       -2.37378682      -0.28948731       1.08627629
H       -2.50655408       1.00544933      -0.09534212
H       -3.07330930      -0.62535278      -0.50097617
H       -0.74144944      -1.49030908      -0.32313550
H       -0.86081087      -0.27491618      -1.57971490
H        0.70795692       1.36017795       1.58774920
H        1.95158331       0.17266580      -1.64482202
H        2.82499310      -0.73378628      -0.61474316
H        2.61522623       1.02703730      -0.37313197
15
Frame=15 idx=006310 GeodesicLength=1.5367306477673106 rxn_smarts="[C:1]([C:2]([O:3]/[C:4](=[N:5]/[C:6]([H:13])([H:14])[H:15])[H:12])([H:10])[H:11])([H:7])([H:8])[H:9]>>[C:1]([C:2]([O:3][C:6]([H:13])([H:14])[H:15])([H:10])[H:11])([H:7])([H:8])[H:9].[C:4](#[N:5])[H:12]"
C       -2.30746008      -0.08795412       0.02841513
C       -0.93423327      -0.41880876      -0.50577452
O        0.04315166       0.46107655       0.02477834
C        0.79109319       0.34719304       1.71856382
N        1.70479484      -0.43546867       1.77222075
C        2.08857615       0.07690689      -0.55434597
H       -2.36463019      -0.33423847       1.09042279
H       -2.53789819       0.97290282      -0.07179364
H       -3.07161382      -0.66412426      -0.49506568
H       -0.72167379      -1.48116984      -0.34454124
H       -0.87361038      -0.26010855      -1.58800083
H        0.76959801       1.41565904       1.51060696
H        1.99170348       0.29431388      -1.62750252
H        2.70857116      -0.82162811      -0.67608849
H        2.71363124       0.93544854      -0.28189489
15
Frame=16 idx=006310 GeodesicLength=1.64523597463322 rxn_smarts="[C:1]([C:2]([O:3]/[C:4](=[N:5]/[C:6]([H:13])([H:14])[H:15])[H:12])([H:10])[H:11])([H:7])([H:8])[H:9]>>[C:1]([C:2]([O:3][C:6]([H:13])([H:14])[H:15])([H:10])[H:11])([H:7])([H:8])[H:9].[C:4](#[N:5])[H:12]"
C       -2.31168327      -0.11676568       0.03545548
C       -0.93704342      -0.41105696      -0.51477513
O        0.02067325       0.49348026       0.00916167
C        0.79270244       0.41632575       1.73046222
N        1.66916160      -0.40747496       1.79618275
C        2.08476026       0.07268469      -0.54803591
H       -2.35254601      -0.37876611       1.09452057
H       -2.56754502       0.93974846      -0.04728090
H       -3.06810815      -0.70244753      -0.48856721
H       -0.70091048      -1.47039121      -0.36648153
H       -0.88648432      -0.24481941      -1.59660646
H        0.82986905       1.46314139       1.43251853
H        2.04317645       0.40639860      -1.59587922
H        2.58367468      -0.88692637      -0.74308186
H        2.80030295       0.82686908      -0.19759301
