8
Frame=0 idx=004005 GeodesicLength=0.0 rxn_smarts="[O:1]([c:2]1[n:3][n:4]([H:8])[n:5][n:6]1)[H:7]>>[O:1](/[C:2](=[N:3]\[N:4][H:8])[N+:6]#[N:5])[H:7]"
O        1.91036678      -0.31103076      -0.13383942
C        0.59575727      -0.16343584       0.02535837
N       -0.04973863       0.87359115       0.46819413
N       -1.29844643       0.90202107       0.56992167
N       -1.42476241      -1.10064738      -0.21451611
N       -0.25951839      -1.17178270      -0.36179084
H        2.32509599       0.55605503      -0.11828395
H       -1.79875419       0.41522942      -0.23504386
8
Frame=1 idx=004005 GeodesicLength=0.06725359493916792 rxn_smarts="[O:1]([c:2]1[n:3][n:4]([H:8])[n:5][n:6]1)[H:7]>>[O:1](/[C:2](=[N:3]\[N:4][H:8])[N+:6]#[N:5])[H:7]"
O        1.91460164      -0.31033524      -0.15813241
C        0.60008186      -0.15394517      -0.00751616
N       -0.04381987       0.88238919       0.44339040
N       -1.29004613       0.89689214       0.55167285
N       -1.42088851      -1.09089343      -0.19396528
N       -0.25627683      -1.16811374      -0.36773344
H        2.34625222       0.54290328      -0.06071268
H       -1.84990439       0.40110297      -0.20700327
8
Frame=2 idx=004005 GeodesicLength=0.13432750680379885 rxn_smarts="[O:1]([c:2]1[n:3][n:4]([H:8])[n:5][n:6]1)[H:7]>>[O:1](/[C:2](=[N:3]\[N:4][H:8])[N+:6]#[N:5])[H:7]"
O        1.91937748      -0.30767735      -0.18060863
C        0.60458577      -0.14341344      -0.04145041
N       -0.03787897       0.89118901       0.41969449
N       -1.28198683       0.89378022       0.52850963
N       -1.41543774      -1.08048301      -0.17526981
N       -0.25185869      -1.16367993      -0.37432665
H        2.36447332       0.52550267      -0.00372281
H       -1.90127434       0.38478182      -0.17282581
8
Frame=3 idx=004005 GeodesicLength=0.20082614078792987 rxn_smarts="[O:1]([c:2]1[n:3][n:4]([H:8])[n:5][n:6]1)[H:7]>>[O:1](/[C:2](=[N:3]\[N:4][H:8])[N+:6]#[N:5])[H:7]"
O        1.92376571      -0.29989968      -0.20986121
C        0.60972439      -0.13715484      -0.06232684
N       -0.03151871       0.89376575       0.41285421
N       -1.27558776       0.89415232       0.49589090
N       -1.41041677      -1.06753870      -0.16382708
N       -0.24604970      -1.16183352      -0.37316426
H        2.37794230       0.50827316       0.04305435
H       -1.94785945       0.37023550      -0.14262007
8
Frame=4 idx=004005 GeodesicLength=0.2670208857178195 rxn_smarts="[O:1]([c:2]1[n:3][n:4]([H:8])[n:5][n:6]1)[H:7]>>[O:1](/[C:2](=[N:3]\[N:4][H:8])[N+:6]#[N:5])[H:7]"
O        1.92788294      -0.28737289      -0.24308923
C        0.61511674      -0.13208199      -0.07757751
N       -0.02513577       0.89101947       0.41995116
N       -1.26971245       0.89898767       0.45061022
N       -1.40542016      -1.05320817      -0.15679507
N       -0.23900617      -1.16128403      -0.36762036
H        2.38971704       0.48896501       0.08447735
H       -1.99344218       0.35497493      -0.10995657
8
Frame=5 idx=004005 GeodesicLength=0.3328087278507667 rxn_smarts="[O:1]([c:2]1[n:3][n:4]([H:8])[n:5][n:6]1)[H:7]>>[O:1](/[C:2](=[N:3]\[N:4][H:8])[N+:6]#[N:5])[H:7]"
O        1.93322348      -0.27658141      -0.26504118
C        0.62117951      -0.12851253      -0.08818454
N       -0.01985857       0.88661800       0.42948290
N       -1.26255446       0.90669105       0.39179205
N       -1.40068294      -1.03650537      -0.15950147
N       -0.23118687      -1.16010149      -0.36476832
H        2.40039745       0.47135386       0.11648140
H       -2.04051760       0.33703789      -0.06026083
8
Frame=6 idx=004005 GeodesicLength=0.39476327100545816 rxn_smarts="[O:1]([c:2]1[n:3][n:4]([H:8])[n:5][n:6]1)[H:7]>>[O:1](/[C:2](=[N:3]\[N:4][H:8])[N+:6]#[N:5])[H:7]"
O        1.93959381      -0.27019457      -0.27341810
C        0.62826620      -0.13068232      -0.08574221
N       -0.01772148       0.88373556       0.43217093
N       -1.25440950       0.91598163       0.31591673
N       -1.39777954      -1.01585986      -0.17996124
N       -0.22369472      -1.15841135      -0.36710484
H        2.40922806       0.45948966       0.13898112
H       -2.08348283       0.31594124       0.01915762
8
Frame=7 idx=004005 GeodesicLength=0.4517479587034868 rxn_smarts="[O:1]([c:2]1[n:3][n:4]([H:8])[n:5][n:6]1)[H:7]>>[O:1](/[C:2](=[N:3]\[N:4][H:8])[N+:6]#[N:5])[H:7]"
O        1.94450642      -0.26633918      -0.27321703
C        0.63362870      -0.13561683      -0.07690497
N       -0.02058147       0.88896140       0.41556949
N       -1.24978817       0.91997566       0.23523777
N       -1.39816861      -0.99060402      -0.22202956
N       -0.21748781      -1.15902812      -0.36670179
H        2.41511800       0.44962482       0.16148045
H       -2.10722705       0.29302627       0.12656565
8
Frame=8 idx=004005 GeodesicLength=0.512118284870912 rxn_smarts="[O:1]([c:2]1[n:3][n:4]([H:8])[n:5][n:6]1)[H:7]>>[O:1](/[C:2](=[N:3]\[N:4][H:8])[N+:6]#[N:5])[H:7]"
O        1.94413503      -0.25706332      -0.28050932
C        0.63561639      -0.14241749      -0.05964529
N       -0.02681862       0.89855031       0.39183337
N       -1.25023700       0.91560517       0.16878890
N       -1.40028322      -0.96394206      -0.26995261
N       -0.21424079      -1.16230474      -0.35703760
H        2.41810068       0.43766337       0.18394548
H       -2.10627247       0.27390877       0.22257707
8
Frame=9 idx=004005 GeodesicLength=0.5760612199177625 rxn_smarts="[O:1]([c:2]1[n:3][n:4]([H:8])[n:5][n:6]1)[H:7]>>[O:1](/[C:2](=[N:3]\[N:4][H:8])[N+:6]#[N:5])[H:7]"
O        1.94166399      -0.24430281      -0.29217133
C        0.63506089      -0.14313749      -0.05333356
N       -0.03363876       0.91112572       0.36378816
N       -1.25474290       0.90548581       0.12177528
N       -1.40138317      -0.94053368      -0.30702786
N       -0.21253970      -1.16482248      -0.34357745
H        2.41988221       0.41879688       0.21249671
H       -2.09430256       0.25738805       0.29805004
8
Frame=10 idx=004005 GeodesicLength=0.6409975538186298 rxn_smarts="[O:1]([c:2]1[n:3][n:4]([H:8])[n:5][n:6]1)[H:7]>>[O:1](/[C:2](=[N:3]\[N:4][H:8])[N+:6]#[N:5])[H:7]"
O        1.93909394      -0.23075270      -0.30301648
C        0.63352713      -0.14049847      -0.05377602
N       -0.04069843       0.92371619       0.33607903
N       -1.26078111       0.89297982       0.08502289
N       -1.40190584      -0.92127478      -0.33116412
N       -0.21142953      -1.16495101      -0.33442296
H        2.42029001       0.39709846       0.24232633
H       -2.07809616       0.24368249       0.35895133
8
Frame=11 idx=004005 GeodesicLength=0.7063059139984169 rxn_smarts="[O:1]([c:2]1[n:3][n:4]([H:8])[n:5][n:6]1)[H:7]>>[O:1](/[C:2](=[N:3]\[N:4][H:8])[N+:6]#[N:5])[H:7]"
O        1.93670685      -0.21588907      -0.31302252
C        0.63171065      -0.13688941      -0.05645396
N       -0.04806315       0.93466734       0.31151569
N       -1.26691844       0.87921932       0.05264053
N       -1.40259287      -0.90595544      -0.34454879
N       -0.21012923      -1.16348280      -0.33098423
H        2.41974291       0.37443720       0.27131831
H       -2.06045672       0.23389287       0.40953497
8
Frame=12 idx=004005 GeodesicLength=0.7718992762933417 rxn_smarts="[O:1]([c:2]1[n:3][n:4]([H:8])[n:5][n:6]1)[H:7]>>[O:1](/[C:2](=[N:3]\[N:4][H:8])[N+:6]#[N:5])[H:7]"
O        1.93459182      -0.20004144      -0.32192663
C        0.62971225      -0.13243773      -0.06101068
N       -0.05575302       0.94472577       0.28863785
N       -1.27321315       0.86458227       0.02355724
N       -1.40343911      -0.89304411      -0.35220350
N       -0.20845125      -1.16131220      -0.33031639
H        2.41822372       0.35081786       0.29940677
H       -2.04167125       0.22670958       0.45385535
8
Frame=13 idx=004005 GeodesicLength=0.8377070005022844 rxn_smarts="[O:1]([c:2]1[n:3][n:4]([H:8])[n:5][n:6]1)[H:7]>>[O:1](/[C:2](=[N:3]\[N:4][H:8])[N+:6]#[N:5])[H:7]"
O        1.93256455      -0.18314337      -0.33016498
C        0.62763909      -0.12752570      -0.06618669
N       -0.06374733       0.95390969       0.26786415
N       -1.27945820       0.84936557      -0.00282654
N       -1.40426004      -0.88167037      -0.35683966
N       -0.20638152      -1.15895893      -0.33036251
H        2.41604489       0.32642956       0.32568127
H       -2.02240144       0.22159354       0.49283497
8
Frame=14 idx=004005 GeodesicLength=0.9036705535808386 rxn_smarts="[O:1]([c:2]1[n:3][n:4]([H:8])[n:5][n:6]1)[H:7]>>[O:1](/[C:2](=[N:3]\[N:4][H:8])[N+:6]#[N:5])[H:7]"
O        1.93054734      -0.16544121      -0.33768881
C        0.62556070      -0.12246637      -0.07121441
N       -0.07198061       0.96216117       0.24949127
N       -1.28545387       0.83376884      -0.02702482
N       -1.40499100      -0.87141701      -0.35967623
N       -0.20396811      -1.15660869      -0.33049143
H        2.41349145       0.30172642       0.34950470
H       -2.00320588       0.21827685       0.52709973
8
Frame=15 idx=004005 GeodesicLength=0.9697509220680496 rxn_smarts="[O:1]([c:2]1[n:3][n:4]([H:8])[n:5][n:6]1)[H:7]>>[O:1](/[C:2](=[N:3]\[N:4][H:8])[N+:6]#[N:5])[H:7]"
O        1.92861894      -0.14730046      -0.34413916
C        0.62346065      -0.11718700      -0.07634499
N       -0.08040127       0.96989908       0.23249818
N       -1.29131941       0.81791046      -0.04920478
N       -1.40564617      -0.86201267      -0.36139294
N       -0.20126757      -1.15422498      -0.33065706
H        2.41053144       0.27673487       0.37129159
H       -1.98397662       0.21618070       0.55794916
8
Frame=16 idx=004005 GeodesicLength=1.0359158044567285 rxn_smarts="[O:1]([c:2]1[n:3][n:4]([H:8])[n:5][n:6]1)[H:7]>>[O:1](/[C:2](=[N:3]\[N:4][H:8])[N+:6]#[N:5])[H:7]"
O        1.92680817      -0.12889780      -0.34938752
C        0.62134188      -0.11172088      -0.08161368
N       -0.08896758       0.97726803       0.21645079
N       -1.29706386       0.80186984      -0.06960518
N       -1.40624862      -0.85334270      -0.36223977
N       -0.19831475      -1.15178776      -0.33096461
H        2.40717026       0.25154899       0.39127080
H       -1.96472550       0.21506230       0.58608916
