15
Frame=0 idx=009609 GeodesicLength=0.0 rxn_smarts="[O:1]([C@@:2]1([H:9])[C:3]([H:10])([H:11])[C@@:4]2([O:5][H:12])[C:6]([H:13])([H:14])[C@@:7]12[H:15])[H:8]>>[O:1]([C@@:2]1([H:9])[C:3]([H:10])([H:11])[C:4][C:6]([H:13])([H:14])[C@@:7]1([O:5][H:12])[H:15])[H:8]"
O        2.17309523       0.04665012      -0.22839676
C        0.93342830       0.28236249       0.41035496
C        0.01969091       1.29777027      -0.28546831
C       -1.27112909       0.48318005      -0.44151209
O       -1.44359613       0.05284929       1.12052539
C       -0.72438052      -0.88556055      -0.95518585
C        0.00824515      -0.91580743       0.27997512
H        2.83649244      -0.17651693       0.42577041
H        1.07435965       0.52758557       1.46370836
H       -0.12902959       2.21176137       0.28514692
H        0.40651218       1.56029860      -1.27127374
H       -2.30715609      -0.36689660       1.14331932
H       -1.45873167      -1.67326443      -1.09797086
H       -0.13038636      -0.71683178      -1.85028828
H        0.01258561      -1.72758005       1.00129538
15
Frame=1 idx=009609 GeodesicLength=0.05947936773963894 rxn_smarts="[O:1]([C@@:2]1([H:9])[C:3]([H:10])([H:11])[C@@:4]2([O:5][H:12])[C:6]([H:13])([H:14])[C@@:7]12[H:15])[H:8]>>[O:1]([C@@:2]1([H:9])[C:3]([H:10])([H:11])[C:4][C:6]([H:13])([H:14])[C@@:7]1([O:5][H:12])[H:15])[H:8]"
O        2.16929153       0.04882292      -0.23572611
C        0.93512314       0.28851133       0.41151635
C        0.02249911       1.30247412      -0.28807887
C       -1.26063981       0.48203797      -0.44940936
O       -1.45611459       0.04611336       1.12513031
C       -0.72013475      -0.88601094      -0.95358562
C        0.00213568      -0.90501730       0.29295275
H        2.82855874      -0.20632773       0.41093013
H        1.08336300       0.54015133       1.46257534
H       -0.14199763       2.20859205       0.29161160
H        0.41247161       1.57961214      -1.26845775
H       -2.31956728      -0.37406099       1.13762636
H       -1.45752716      -1.67141864      -1.09356403
H       -0.12022255      -0.72773007      -1.84690868
H        0.02276096      -1.72574955       1.00338757
15
Frame=2 idx=009609 GeodesicLength=0.11902502463331135 rxn_smarts="[O:1]([C@@:2]1([H:9])[C:3]([H:10])([H:11])[C@@:4]2([O:5][H:12])[C:6]([H:13])([H:14])[C@@:7]12[H:15])[H:8]>>[O:1]([C@@:2]1([H:9])[C:3]([H:10])([H:11])[C:4][C:6]([H:13])([H:14])[C@@:7]1([O:5][H:12])[H:15])[H:8]"
O        2.16550799       0.05078705      -0.24286028
C        0.93686863       0.29457324       0.41272835
C        0.02545170       1.30723264      -0.29066312
C       -1.24996900       0.48096840      -0.45732224
O       -1.46883054       0.03925865       1.12970545
C       -0.71582236      -0.88651496      -0.95184443
C       -0.00406294      -0.89411994       0.30602214
H        2.81994541      -0.23574109       0.39562019
H        1.09253102       0.55262890       1.46141638
H       -0.15474730       2.20524862       0.29788651
H        0.41852841       1.59910980      -1.26536000
H       -2.33202757      -0.38140921       1.13183916
H       -1.45633557      -1.66952662      -1.08914367
H       -0.11000873      -0.73887851      -1.84327927
H        0.03297085      -1.72361697       1.00525484
15
Frame=3 idx=009609 GeodesicLength=0.17849472045720863 rxn_smarts="[O:1]([C@@:2]1([H:9])[C:3]([H:10])([H:11])[C@@:4]2([O:5][H:12])[C:6]([H:13])([H:14])[C@@:7]12[H:15])[H:8]>>[O:1]([C@@:2]1([H:9])[C:3]([H:10])([H:11])[C:4][C:6]([H:13])([H:14])[C@@:7]1([O:5][H:12])[H:15])[H:8]"
O        2.16173093       0.05256170      -0.24982422
C        0.93863905       0.30052191       0.41393254
C        0.02857760       1.31191403      -0.29319709
C       -1.23906901       0.47990461      -0.46518424
O       -1.48176889       0.03223842       1.13418365
C       -0.71140307      -0.88699108      -0.94986600
C       -0.01037019      -0.88303374       0.31915019
H        2.81059108      -0.26463624       0.37976096
H        1.10178721       0.56495688       1.46007664
H       -0.16726755       2.20151265       0.30393399
H        0.42475499       1.61863924      -1.26186772
H       -2.34454768      -0.38896543       1.12591413
H       -1.45510997      -1.66743494      -1.08458895
H       -0.09968037      -0.75019506      -1.83923819
H        0.04313586      -1.72099294       1.00681430
15
Frame=4 idx=009609 GeodesicLength=0.23804305823398042 rxn_smarts="[O:1]([C@@:2]1([H:9])[C:3]([H:10])([H:11])[C@@:4]2([O:5][H:12])[C:6]([H:13])([H:14])[C@@:7]12[H:15])[H:8]>>[O:1]([C@@:2]1([H:9])[C:3]([H:10])([H:11])[C:4][C:6]([H:13])([H:14])[C@@:7]1([O:5][H:12])[H:15])[H:8]"
O        2.15797477       0.05413541      -0.25662481
C        0.94046777       0.30638556       0.41517985
C        0.03184364       1.31665845      -0.29570914
C       -1.22798142       0.47890668      -0.47306900
O       -1.49489670       0.02507885       1.13863455
C       -0.70692090      -0.88752656      -0.94775364
C       -0.01675883      -0.87183398       0.33235861
H        2.80057689      -0.29315147       0.36347893
H        1.11122206       0.57719412       1.45870585
H       -0.17957000       2.19762631       0.30978888
H        0.43106592       1.63836229      -1.25808540
H       -2.35710088      -0.39673463       1.11990126
H       -1.45389778      -1.66530691      -1.08003119
H       -0.08931830      -0.76177253      -1.83495132
H        0.05329377      -1.71802160       1.00817655
15
Frame=5 idx=009609 GeodesicLength=0.2976171623361022 rxn_smarts="[O:1]([C@@:2]1([H:9])[C:3]([H:10])([H:11])[C@@:4]2([O:5][H:12])[C:6]([H:13])([H:14])[C@@:7]12[H:15])[H:8]>>[O:1]([C@@:2]1([H:9])[C:3]([H:10])([H:11])[C:4][C:6]([H:13])([H:14])[C@@:7]1([O:5][H:12])[H:15])[H:8]"
O        2.15424132       0.05552752      -0.26326899
C        0.94234650       0.31215399       0.41644541
C        0.03526138       1.32141605      -0.29819601
C       -1.21668800       0.47794708      -0.48095097
O       -1.50821174       0.01775471       1.14303689
C       -0.70236619      -0.88808999      -0.94547597
C       -0.02323333      -0.86048880       0.34562479
H        2.78988246      -0.32124002       0.34677182
H        1.12080470       0.58931481       1.45724331
H       -0.19164352       2.19351418       0.31542785
H        0.43748372       1.65821311      -1.25397508
H       -2.36967708      -0.40473715       1.11379756
H       -1.45268670      -1.66308507      -1.07542966
H       -0.07891142      -0.77357596      -1.83036274
H        0.06339790      -1.71462446       1.00931179
15
Frame=6 idx=009609 GeodesicLength=0.3572447241074073 rxn_smarts="[O:1]([C@@:2]1([H:9])[C:3]([H:10])([H:11])[C@@:4]2([O:5][H:12])[C:6]([H:13])([H:14])[C@@:7]12[H:15])[H:8]>>[O:1]([C@@:2]1([H:9])[C:3]([H:10])([H:11])[C:4][C:6]([H:13])([H:14])[C@@:7]1([O:5][H:12])[H:15])[H:8]"
O        2.15053623       0.05676491      -0.26976974
C        0.94428109       0.31784101       0.41772664
C        0.03882582       1.32619536      -0.30065750
C       -1.20518222       0.47701700      -0.48883944
O       -1.52171579       0.01025137       1.14738864
C       -0.69772783      -0.88868474      -0.94303285
C       -0.02978604      -0.84898409       0.35895109
H        2.77848123      -0.34898414       0.32962018
H        1.13054674       0.60133444       1.45568352
H       -0.20350637       2.18918259       0.32085534
H        0.44400369       1.67821392      -1.24952395
H       -2.38227485      -0.41299482       1.10759936
H       -1.45146312      -1.66077718      -1.07078554
H       -0.06844726      -0.78561152      -1.82546620
H        0.07342868      -1.71076412       1.01025046
15
Frame=7 idx=009609 GeodesicLength=0.416923262678128 rxn_smarts="[O:1]([C@@:2]1([H:9])[C:3]([H:10])([H:11])[C@@:4]2([O:5][H:12])[C:6]([H:13])([H:14])[C@@:7]12[H:15])[H:8]>>[O:1]([C@@:2]1([H:9])[C:3]([H:10])([H:11])[C:4][C:6]([H:13])([H:14])[C@@:7]1([O:5][H:12])[H:15])[H:8]"
O        2.14685730       0.05788891      -0.27613332
C        0.94627393       0.32346328       0.41902891
C        0.04252791       1.33101131      -0.30308385
C       -1.19345103       0.47611059      -0.49674522
O       -1.53540864       0.00255978       1.15167080
C       -0.69298503      -0.88931676      -0.94041970
C       -0.03640936      -0.83730559       0.37234125
H        2.76632388      -0.37651321       0.31195301
H        1.14046026       0.61327066       1.45402883
H       -0.21518590       2.18464650       0.32607967
H        0.45060566       1.69838697      -1.24470104
H       -2.39488391      -0.42152321       1.10127760
H       -1.45019032      -1.65839919      -1.06609824
H       -0.05790645      -0.79788960      -1.82024493
H        0.08337169      -1.70639044       1.01104623
15
Frame=8 idx=009609 GeodesicLength=0.4766491323128285 rxn_smarts="[O:1]([C@@:2]1([H:9])[C:3]([H:10])([H:11])[C@@:4]2([O:5][H:12])[C:6]([H:13])([H:14])[C@@:7]12[H:15])[H:8]>>[O:1]([C@@:2]1([H:9])[C:3]([H:10])([H:11])[C:4][C:6]([H:13])([H:14])[C@@:7]1([O:5][H:12])[H:15])[H:8]"
O        2.14320969       0.05886165      -0.28237015
C        0.94832244       0.32899954       0.42033423
C        0.04637792       1.33583664      -0.30548761
C       -1.18149031       0.47522216      -0.50465251
O       -1.54927269      -0.00533961       1.15590043
C       -0.68815304      -0.88996710      -0.93764172
C       -0.04310557      -0.82544664       0.38576305
H        2.75344751      -0.40368160       0.29385038
H        1.15052234       0.62509041       1.45225407
H       -0.22664917       2.17988248       0.33108354
H        0.45730500       1.71868179      -1.23951895
H       -2.40748464      -0.43033988       1.09487306
H       -1.44889069      -1.65591596      -1.06136951
H       -0.04730787      -0.81039157      -1.81470026
H        0.09316907      -1.70149230       1.01168195
15
Frame=9 idx=009609 GeodesicLength=0.5364240722678623 rxn_smarts="[O:1]([C@@:2]1([H:9])[C:3]([H:10])([H:11])[C@@:4]2([O:5][H:12])[C:6]([H:13])([H:14])[C@@:7]12[H:15])[H:8]>>[O:1]([C@@:2]1([H:9])[C:3]([H:10])([H:11])[C:4][C:6]([H:13])([H:14])[C@@:7]1([O:5][H:12])[H:15])[H:8]"
O        2.13960244       0.05968550      -0.28847063
C        0.95043420       0.33444581       0.42164624
C        0.05038522       1.34068259      -0.30787862
C       -1.16929978       0.47435474      -0.51256714
O       -1.56327965      -0.01346593       1.16008901
C       -0.68325458      -0.89064507      -0.93471886
C       -0.04986977      -0.81342535       0.39920095
H        2.73986817      -0.43043731       0.27535919
H        1.16073738       0.63678011       1.45037593
H       -0.23787321       2.17492619       0.33584271
H        0.46410287       1.73909633      -1.23398632
H       -2.42005039      -0.43946862       1.08840427
H       -1.44759515      -1.65334031      -1.05662352
H       -0.03669354      -0.82311621      -1.80885921
H        0.10278580      -1.69607249       1.01218601
15
Frame=10 idx=009609 GeodesicLength=0.5962542891187377 rxn_smarts="[O:1]([C@@:2]1([H:9])[C:3]([H:10])([H:11])[C@@:4]2([O:5][H:12])[C:6]([H:13])([H:14])[C@@:7]12[H:15])[H:8]>>[O:1]([C@@:2]1([H:9])[C:3]([H:10])([H:11])[C:4][C:6]([H:13])([H:14])[C@@:7]1([O:5][H:12])[H:15])[H:8]"
O        2.13603574       0.06037436      -0.29444644
C        0.95261079       0.33981033       0.42296238
C        0.05454650       1.34555150      -0.31025346
C       -1.15686803       0.47350170      -0.52049452
O       -1.57742891      -0.02183359       1.16422554
C       -0.67827792      -0.89134642      -0.93164864
C       -0.05670134      -0.80122175       0.41264630
H        2.72556649      -0.45683301       0.25644007
H        1.17110970       0.64834709       1.44838577
H       -0.24887045       2.16977574       0.34036524
H        0.47099134       1.75963625      -1.22808444
H       -2.43257260      -0.44893151       1.08186122
H       -1.44628539      -1.65066826      -1.05186104
H       -0.02604499      -0.83606870      -1.80270319
H        0.11218909      -1.69009373       1.01260519
15
Frame=11 idx=009609 GeodesicLength=0.6561341987314393 rxn_smarts="[O:1]([C@@:2]1([H:9])[C:3]([H:10])([H:11])[C@@:4]2([O:5][H:12])[C:6]([H:13])([H:14])[C@@:7]12[H:15])[H:8]>>[O:1]([C@@:2]1([H:9])[C:3]([H:10])([H:11])[C:4][C:6]([H:13])([H:14])[C@@:7]1([O:5][H:12])[H:15])[H:8]"
O        2.13251679       0.06091843      -0.30029273
C        0.95485172       0.34508627       0.42427727
C        0.05886689       1.35043729      -0.31262347
C       -1.14419287       0.47266236      -0.52843004
O       -1.59169249      -0.03045996       1.16832602
C       -0.67323522      -0.89206519      -0.92844523
C       -0.06359534      -0.78883851       0.42607473
H        2.71055419      -0.48281195       0.23714560
H        1.18162327       0.65977649       1.44628185
H       -0.25962717       2.16444085       0.34462718
H        0.47797293       1.78027370      -1.22182255
H       -2.44502119      -0.45874790       1.07527673
H       -1.44497861      -1.64788462      -1.04709819
H       -0.01538479      -0.84923584      -1.79624661
H        0.12134188      -1.68355144       1.01294944
15
Frame=12 idx=009609 GeodesicLength=0.7160856495964009 rxn_smarts="[O:1]([C@@:2]1([H:9])[C:3]([H:10])([H:11])[C@@:4]2([O:5][H:12])[C:6]([H:13])([H:14])[C@@:7]12[H:15])[H:8]>>[O:1]([C@@:2]1([H:9])[C:3]([H:10])([H:11])[C:4][C:6]([H:13])([H:14])[C@@:7]1([O:5][H:12])[H:15])[H:8]"
O        2.12904995       0.06134160      -0.30601303
C        0.95716076       0.35028659       0.42559213
C        0.06334504       1.35534930      -0.31498738
C       -1.13126242       0.47183187      -0.53638407
O       -1.60606539      -0.03936374       1.17238492
C       -0.66811450      -0.89280011      -0.92510994
C       -0.07054770      -0.77625843       0.43948209
H        2.69478631      -0.50844205       0.21742411
H        1.19228427       0.67107871       1.44406281
H       -0.27015603       2.15892990       0.34862909
H        0.48504615       1.80102303      -1.21518326
H       -2.45738564      -0.46894537       1.06864467
H       -1.44365630      -1.64499348      -1.04233898
H       -0.00469492      -0.86262303      -1.78947655
H        0.13021042      -1.67641480       1.01327338
15
Frame=13 idx=009609 GeodesicLength=0.7760986657650241 rxn_smarts="[O:1]([C@@:2]1([H:9])[C:3]([H:10])([H:11])[C@@:4]2([O:5][H:12])[C:6]([H:13])([H:14])[C@@:7]12[H:15])[H:8]>>[O:1]([C@@:2]1([H:9])[C:3]([H:10])([H:11])[C:4][C:6]([H:13])([H:14])[C@@:7]1([O:5][H:12])[H:15])[H:8]"
O        2.12564145       0.06162684      -0.31160140
C        0.95953700       0.35540399       0.42690207
C        0.06798638       1.36028243      -0.31735788
C       -1.11807660       0.47101088      -0.54435348
O       -1.62051510      -0.04856370       1.17641967
C       -0.66293282      -0.89354552      -0.92166043
C       -0.07755642      -0.76348544       0.45283939
H        2.67828634      -0.53365024       0.19733853
H        1.20307742       0.68223909       1.44172923
H       -0.28044107       2.15325514       0.35234782
H        0.49221433       1.82185399      -1.20817851
H       -2.46963527      -0.47953996       1.06200153
H       -1.44234301      -1.64197853      -1.03760561
H        0.00599727      -0.87621902      -1.78240944
H        0.13876011      -1.66868994       1.01358852
15
Frame=14 idx=009609 GeodesicLength=0.8362047229165099 rxn_smarts="[O:1]([C@@:2]1([H:9])[C:3]([H:10])([H:11])[C@@:4]2([O:5][H:12])[C:6]([H:13])([H:14])[C@@:7]12[H:15])[H:8]>>[O:1]([C@@:2]1([H:9])[C:3]([H:10])([H:11])[C:4][C:6]([H:13])([H:14])[C@@:7]1([O:5][H:12])[H:15])[H:8]"
O        2.12230005       0.06181047      -0.31705286
C        0.96198572       0.36045411       0.42821437
C        0.07279498       1.36524832      -0.31973361
C       -1.10461932       0.47019399      -0.55235176
O       -1.63504365      -0.05808253       1.18041868
C       -0.65767713      -0.89429955      -0.91809261
C       -0.08462311      -0.75049905       0.46614763
H        2.66099634      -0.55851387       0.17679892
H        1.21400989       0.69326581       1.43928721
H       -0.29048793       2.14742654       0.35577929
H        0.49947760       1.84278849      -1.20079191
H       -2.48176726      -0.49056748       1.05532973
H       -1.44102024      -1.63884538      -1.03289662
H        0.01671613      -0.89002911      -1.77502160
H        0.14695793      -1.66035077       1.01396516
15
Frame=15 idx=009609 GeodesicLength=0.8964161279794828 rxn_smarts="[O:1]([C@@:2]1([H:9])[C:3]([H:10])([H:11])[C@@:4]2([O:5][H:12])[C:6]([H:13])([H:14])[C@@:7]12[H:15])[H:8]>>[O:1]([C@@:2]1([H:9])[C:3]([H:10])([H:11])[C:4][C:6]([H:13])([H:14])[C@@:7]1([O:5][H:12])[H:15])[H:8]"
O        2.11902076       0.06189066      -0.32236181
C        0.96450056       0.36544917       0.42952840
C        0.07776194       1.37025051      -0.32211221
C       -1.09087386       0.46938158      -0.56038190
O       -1.64962338      -0.06792685       1.18439001
C       -0.65232435      -0.89505713      -0.91441308
C       -0.09174007      -0.73727514       0.47939337
H        2.64282073      -0.58310028       0.15576438
H        1.22506509       0.70418049       1.43673161
H       -0.30032507       2.14145482       0.35892175
H        0.50683078       1.86381651      -1.19300128
H       -2.49373778      -0.50203883       1.04864180
H       -1.43965051      -1.63558678      -1.02822454
H        0.02749112      -0.90406408      -1.76729993
H        0.15478401      -1.65137464       1.01442344
15
Frame=16 idx=009609 GeodesicLength=0.9567521058249084 rxn_smarts="[O:1]([C@@:2]1([H:9])[C:3]([H:10])([H:11])[C@@:4]2([O:5][H:12])[C:6]([H:13])([H:14])[C@@:7]12[H:15])[H:8]>>[O:1]([C@@:2]1([H:9])[C:3]([H:10])([H:11])[C:4][C:6]([H:13])([H:14])[C@@:7]1([O:5][H:12])[H:15])[H:8]"
O        2.11582192       0.06187681      -0.32751109
C        0.96708471       0.37038516       0.43084845
C        0.08290573       1.37528448      -0.32450870
C       -1.07683452       0.46856961      -0.56844752
O       -1.66424134      -0.07812883       1.18834182
C       -0.64689162      -0.89580916      -0.91062874
C       -0.09891640      -0.72381440       0.49255902
H        2.62377545      -0.60733783       0.13423342
H        1.23623122       0.71495737       1.43407478
H       -0.30992080       2.13534560       0.36174193
H        0.51428989       1.88491738      -1.18482496
H       -2.50554296      -0.51398774       1.04196016
H       -1.43826351      -1.63218626      -1.02359855
H        0.03830499      -0.91830346      -1.75924355
H        0.16219723      -1.64176872       1.01500354
