11
Frame=0 idx=004749 GeodesicLength=0.0 rxn_smarts="[N:1]([C:2](=[O:3])[N:4](/[C:5](=[N:6]/[H:11])[H:10])[H:9])([H:7])[H:8]>>[N:1](=[C:2](/[O:3][H:7])[N:4](/[C:5](=[N:6]/[H:11])[H:10])[H:9])\[H:8]"
N       -2.21609614      -0.09561243       0.07285629
C       -0.94479658      -0.26239123      -0.17245208
O       -0.83706939      -1.20322673      -1.04240970
N        0.12752149       0.38521392       0.34275196
C        1.43451194       0.09659373      -0.01543004
N        2.38294176       0.74227908       0.50691241
H       -2.10292725      -1.06576578      -0.82459184
H       -2.61626952       0.56987704       0.71313586
H       -0.00630702       1.11605620       1.02200429
H        1.50328317      -0.70371349      -0.75231072
H        3.27520751       0.42068964       0.14953362
11
Frame=1 idx=004749 GeodesicLength=0.03205597007538089 rxn_smarts="[N:1]([C:2](=[O:3])[N:4](/[C:5](=[N:6]/[H:11])[H:10])[H:9])([H:7])[H:8]>>[N:1](=[C:2](/[O:3][H:7])[N:4](/[C:5](=[N:6]/[H:11])[H:10])[H:9])\[H:8]"
N       -2.21525404      -0.09978196       0.07693775
C       -0.94138132      -0.30485767      -0.12915671
O       -0.83669575      -1.19988025      -1.04644124
N        0.12641873       0.38493835       0.34174992
C        1.43272634       0.10625021      -0.02516492
N        2.38105673       0.74351749       0.50810821
H       -2.11232597      -1.05800526      -0.84267940
H       -2.60226075       0.58684527       0.70301020
H       -0.00946972       1.11827487       1.01781716
H        1.50324141      -0.69761858      -0.75794829
H        3.27394436       0.42031754       0.15376732
11
Frame=2 idx=004749 GeodesicLength=0.06474767102764413 rxn_smarts="[N:1]([C:2](=[O:3])[N:4](/[C:5](=[N:6]/[H:11])[H:10])[H:9])([H:7])[H:8]>>[N:1](=[C:2](/[O:3][H:7])[N:4](/[C:5](=[N:6]/[H:11])[H:10])[H:9])\[H:8]"
N       -2.21354286      -0.10644567       0.08432696
C       -0.93893367      -0.33382393      -0.10148085
O       -0.83620792      -1.19615707      -1.04996815
N        0.12485791       0.38311489       0.34132094
C        1.43090957       0.11173225      -0.03057578
N        2.37845399       0.74632862       0.50777030
H       -2.12120659      -1.05152360      -0.85787136
H       -2.58688393       0.60161546       0.69504461
H       -0.01305849       1.11876810       1.01438450
H        1.50352265      -0.69536614      -0.75955344
H        3.27208936       0.42175707       0.15660227
11
Frame=3 idx=004749 GeodesicLength=0.09758934332674268 rxn_smarts="[N:1]([C:2](=[O:3])[N:4](/[C:5](=[N:6]/[H:11])[H:10])[H:9])([H:7])[H:8]>>[N:1](=[C:2](/[O:3][H:7])[N:4](/[C:5](=[N:6]/[H:11])[H:10])[H:9])\[H:8]"
N       -2.21175087      -0.11369985       0.09271858
C       -0.93686821      -0.35744892      -0.07974232
O       -0.83571303      -1.19380983      -1.05159811
N        0.12343762       0.37919247       0.34322660
C        1.42908028       0.11582892      -0.03444043
N        2.37576514       0.74948189       0.50702803
H       -2.12995155      -1.04598208      -0.87100547
H       -2.57117168       0.61763932       0.68404028
H       -0.01649871       1.11670861       1.01376212
H        1.50362738      -0.69255076      -0.76176041
H        3.27004363       0.42464023       0.15777114
11
Frame=4 idx=004749 GeodesicLength=0.13047846286839415 rxn_smarts="[N:1]([C:2](=[O:3])[N:4](/[C:5](=[N:6]/[H:11])[H:10])[H:9])([H:7])[H:8]>>[N:1](=[C:2](/[O:3][H:7])[N:4](/[C:5](=[N:6]/[H:11])[H:10])[H:9])\[H:8]"
N       -2.20998083      -0.12033719       0.10061436
C       -0.93499782      -0.37777147      -0.06146712
O       -0.83517339      -1.19261461      -1.05180274
N        0.12203425       0.37540213       0.34509116
C        1.42721663       0.11977308      -0.03808219
N        2.37314543       0.75179700       0.50711088
H       -2.13857888      -1.04092491      -0.88296700
H       -2.55532708       0.63192328       0.67379082
H       -0.01992020       1.11469504       1.01317289
H        1.50360739      -0.68941339      -0.76427316
H        3.26797448       0.42747105       0.15881209
11
Frame=5 idx=004749 GeodesicLength=0.1634187679889618 rxn_smarts="[N:1]([C:2](=[O:3])[N:4](/[C:5](=[N:6]/[H:11])[H:10])[H:9])([H:7])[H:8]>>[N:1](=[C:2](/[O:3][H:7])[N:4](/[C:5](=[N:6]/[H:11])[H:10])[H:9])\[H:8]"
N       -2.20821763      -0.12651183       0.10813871
C       -0.93322977      -0.39614260      -0.04515076
O       -0.83458084      -1.19239117      -1.05084949
N        0.12067707       0.37155299       0.34714040
C        1.42528492       0.12378771      -0.04176463
N        2.37048881       0.75466538       0.50651584
H       -2.14707899      -1.03571355      -0.89449997
H       -2.53940585       0.64479489       0.66407343
H       -0.02330219       1.11258080       1.01279358
H        1.50345692      -0.68597898      -0.76707926
H        3.26590755       0.42935634       0.16068215
11
Frame=6 idx=004749 GeodesicLength=0.1964058450098275 rxn_smarts="[N:1]([C:2](=[O:3])[N:4](/[C:5](=[N:6]/[H:11])[H:10])[H:9])([H:7])[H:8]>>[N:1](=[C:2](/[O:3][H:7])[N:4](/[C:5](=[N:6]/[H:11])[H:10])[H:9])\[H:8]"
N       -2.20646652      -0.13214429       0.11515530
C       -0.93154189      -0.41316891      -0.03004919
O       -0.83389400      -1.19327110      -1.04865990
N        0.11935916       0.36767520       0.34936114
C        1.42328698       0.12783175      -0.04541535
N        2.36786515       0.75725835       0.50611781
H       -2.15539071      -1.03028632      -0.90578641
H       -2.52348633       0.65660242       0.65465923
H       -0.02666636       1.11055495       1.01243286
H        1.50312085      -0.68196654      -0.77047637
H        3.26381368       0.43091450       0.16266088
11
Frame=7 idx=004749 GeodesicLength=0.22941288310849378 rxn_smarts="[N:1]([C:2](=[O:3])[N:4](/[C:5](=[N:6]/[H:11])[H:10])[H:9])([H:7])[H:8]>>[N:1](=[C:2](/[O:3][H:7])[N:4](/[C:5](=[N:6]/[H:11])[H:10])[H:9])\[H:8]"
N       -2.20472001      -0.13723620       0.12160748
C       -0.92993250      -0.42921840      -0.01576213
O       -0.83310563      -1.19514784      -1.04537590
N        0.11809095       0.36365623       0.35186462
C        1.42121085       0.13186223      -0.04900910
N        2.36522959       0.75997961       0.50547900
H       -2.16345733      -1.02438472      -0.91714469
H       -2.50757938       0.66743449       0.64562383
H       -0.03001152       1.10855358       1.01213596
H        1.50260372      -0.67761144      -0.77421534
H        3.26167127       0.43211246       0.16479628
11
Frame=8 idx=004749 GeodesicLength=0.2624831195302139 rxn_smarts="[N:1]([C:2](=[O:3])[N:4](/[C:5](=[N:6]/[H:11])[H:10])[H:9])([H:7])[H:8]>>[N:1](=[C:2](/[O:3][H:7])[N:4](/[C:5](=[N:6]/[H:11])[H:10])[H:9])\[H:8]"
N       -2.20297737      -0.14194199       0.12769826
C       -0.92840191      -0.44464060      -0.00189482
O       -0.83223046      -1.19795952      -1.04106239
N        0.11689427       0.35926629       0.35493184
C        1.41903678       0.13581785      -0.05248011
N        2.36256287       0.76301959       0.50438945
H       -2.17123859      -1.01785715      -0.92868365
H       -2.49165569       0.67777755       0.63628621
H       -0.03330711       1.10627348       1.01227137
H        1.50186306      -0.67289460      -0.77832847
H        3.25945416       0.43313910       0.16687232
11
Frame=9 idx=004749 GeodesicLength=0.29561282682069034 rxn_smarts="[N:1]([C:2](=[O:3])[N:4](/[C:5](=[N:6]/[H:11])[H:10])[H:9])([H:7])[H:8]>>[N:1](=[C:2](/[O:3][H:7])[N:4](/[C:5](=[N:6]/[H:11])[H:10])[H:9])\[H:8]"
N       -2.20123594      -0.14620526       0.13334093
C       -0.92696804      -0.45959377       0.01173344
O       -0.83126812      -1.20168066      -1.03575847
N        0.11577724       0.35444153       0.35863813
C        1.41674055       0.13969512      -0.05584250
N        2.35983177       0.76660388       0.50260150
H       -2.17867017      -1.01066484      -0.94048443
H       -2.47569024       0.68775423       0.62657984
H       -0.03652620       1.10356013       1.01302214
H        1.50087295      -0.66789152      -0.78274720
H        3.25713620       0.43398117       0.16891662
11
Frame=10 idx=004749 GeodesicLength=0.3288173446594138 rxn_smarts="[N:1]([C:2](=[O:3])[N:4](/[C:5](=[N:6]/[H:11])[H:10])[H:9])([H:7])[H:8]>>[N:1](=[C:2](/[O:3][H:7])[N:4](/[C:5](=[N:6]/[H:11])[H:10])[H:9])\[H:8]"
N       -2.19950902      -0.14998308       0.13852950
C       -0.92568595      -0.47429105       0.02538396
O       -0.83023211      -1.20633068      -1.02941171
N        0.11476543       0.34887738       0.36335719
C        1.41429564       0.14331025      -0.05887712
N        2.35703464       0.77047615       0.50037377
H       -2.18568035      -1.00268505      -0.95263410
H       -2.45959862       0.69786117       0.61574118
H       -0.03962516       1.10003640       1.01484218
H        1.49956767      -0.66267338      -0.78737136
H        3.25466782       0.43540188       0.17006651
11
Frame=11 idx=004749 GeodesicLength=0.3620781697438786 rxn_smarts="[N:1]([C:2](=[O:3])[N:4](/[C:5](=[N:6]/[H:11])[H:10])[H:9])([H:7])[H:8]>>[N:1](=[C:2](/[O:3][H:7])[N:4](/[C:5](=[N:6]/[H:11])[H:10])[H:9])\[H:8]"
N       -2.19775168      -0.15334761       0.14327833
C       -0.92450504      -0.48870010       0.03903996
O       -0.82910770      -1.21186849      -1.02209000
N        0.11385846       0.34286682       0.36875552
C        1.41165357       0.14705223      -0.06204348
N        2.35410425       0.77532139       0.49694900
H       -2.19219167      -0.99411430      -0.96502561
H       -2.44338687       0.70764561       0.60451410
H       -0.04261631       1.09605185       1.01733734
H        1.49789860      -0.65694809      -0.79255025
H        3.25204440       0.43604068       0.17183510
11
Frame=12 idx=004749 GeodesicLength=0.39541606836212095 rxn_smarts="[N:1]([C:2](=[O:3])[N:4](/[C:5](=[N:6]/[H:11])[H:10])[H:9])([H:7])[H:8]>>[N:1](=[C:2](/[O:3][H:7])[N:4](/[C:5](=[N:6]/[H:11])[H:10])[H:9])\[H:8]"
N       -2.19600127      -0.15613184       0.14743394
C       -0.92351748      -0.50291570       0.05284475
O       -0.82791594      -1.21830327      -1.01376038
N        0.11307450       0.33614222       0.37516782
C        1.40880970       0.15057798      -0.06495101
N        2.35106147       0.78060497       0.49288540
H       -2.19813245      -0.98484456      -0.97780188
H       -2.42699209       0.71756693       0.59223560
H       -0.04543914       1.09120062       1.02101617
H        1.49582687      -0.65102892      -0.79792580
H        3.24922583       0.43713157       0.17285540
11
Frame=13 idx=004749 GeodesicLength=0.42882138966237704 rxn_smarts="[N:1]([C:2](=[O:3])[N:4](/[C:5](=[N:6]/[H:11])[H:10])[H:9])([H:7])[H:8]>>[N:1](=[C:2](/[O:3][H:7])[N:4](/[C:5](=[N:6]/[H:11])[H:10])[H:9])\[H:8]"
N       -2.19422585      -0.15828336       0.15092412
C       -0.92274405      -0.51698689       0.06685557
O       -0.82666457      -1.22563505      -1.00442084
N        0.11243294       0.32866599       0.38261926
C        1.40571164       0.15398773      -0.06774556
N        2.34782448       0.78670293       0.48775378
H       -2.20340608      -0.97488786      -0.99099838
H       -2.41031329       0.72757344       0.57906000
H       -0.04806832       1.08544089       1.02591059
H        1.49329577      -0.64489354      -0.80354561
H        3.24615734       0.43831571       0.17358708
11
Frame=14 idx=004749 GeodesicLength=0.46230358540379873 rxn_smarts="[N:1]([C:2](=[O:3])[N:4](/[C:5](=[N:6]/[H:11])[H:10])[H:9])([H:7])[H:8]>>[N:1](=[C:2](/[O:3][H:7])[N:4](/[C:5](=[N:6]/[H:11])[H:10])[H:9])\[H:8]"
N       -2.19241967      -0.15983240       0.15378662
C       -0.92218315      -0.53082077       0.08092265
O       -0.82541978      -1.23349600      -0.99445162
N        0.11192634       0.32063267       0.39084741
C        1.40240099       0.15717804      -0.07034986
N        2.34439512       0.79344360       0.48175750
H       -2.20809239      -0.96446337      -1.00448119
H       -2.39334787       0.73749051       0.56532335
H       -0.05050302       1.07896172       1.03177670
H        1.49038250      -0.63886079      -0.80909643
H        3.24286092       0.43976678       0.17396487
11
Frame=15 idx=004749 GeodesicLength=0.4958368517026569 rxn_smarts="[N:1]([C:2](=[O:3])[N:4](/[C:5](=[N:6]/[H:11])[H:10])[H:9])([H:7])[H:8]>>[N:1](=[C:2](/[O:3][H:7])[N:4](/[C:5](=[N:6]/[H:11])[H:10])[H:9])\[H:8]"
N       -2.19059381      -0.16082560       0.15604021
C       -0.92184952      -0.54433263       0.09485987
O       -0.82425179      -1.24151317      -0.98424913
N        0.11152618       0.31221618       0.39957122
C        1.39895793       0.15989956      -0.07255042
N        2.34077883       0.80048510       0.47531049
H       -2.21226863      -0.95353022      -1.01831489
H       -2.37614408       0.74703664       0.55160451
H       -0.05279981       1.07207582       1.03816282
H        1.48725957      -0.63353676      -0.81397037
H        3.23938513       0.44202506       0.17353569
11
Frame=16 idx=004749 GeodesicLength=0.5294041169534189 rxn_smarts="[N:1]([C:2](=[O:3])[N:4](/[C:5](=[N:6]/[H:11])[H:10])[H:9])([H:7])[H:8]>>[N:1](=[C:2](/[O:3][H:7])[N:4](/[C:5](=[N:6]/[H:11])[H:10])[H:9])\[H:8]"
N       -2.18874593      -0.16139899       0.15782162
C       -0.92171449      -0.55746893       0.10856115
O       -0.82320195      -1.24945441      -0.97405298
N        0.11119843       0.30364133       0.40849369
C        1.39543777       0.16211639      -0.07432986
N        2.33699000       0.80762654       0.46865844
H       -2.21601283      -0.94215510      -1.03242838
H       -2.35877458       0.75604251       0.53821123
H       -0.05499505       1.06501945       1.04475631
H        1.48404075      -0.62911317      -0.81798351
H        3.23577787       0.44514437       0.17229228
