13
Frame=0 idx=004575 GeodesicLength=0.0 rxn_smarts="[C:1]([C@@:2]1([H:10])[C:3]([H:11])([H:12])[N:4]1[C:5](=[O:6])[H:13])([H:7])([H:8])[H:9]>>[C:1]([C:5](=[O:6])[H:13])([H:7])([H:8])[H:9].[C:2]1([H:10])=[N:4][C:3]1([H:11])[H:12]"
C       -0.96184814       0.08520401       0.99750627
C        0.08652884      -0.91991361      -0.47159782
C        0.43158261      -0.12786006      -1.62141208
N        1.34019835      -0.46883009      -0.48597361
C        0.72068999       0.64851296       0.67179850
O        0.71106587       1.79845708       0.29053841
H       -1.09914017      -0.80919076       1.60545136
H       -1.73588567       0.18479193       0.23635388
H       -1.08085905       0.95661024       1.64436167
H       -0.37948236      -1.85047248      -0.18020573
H        0.64688621      -0.61712915      -2.56330964
H        0.09893010       0.90733109      -1.65923101
H        1.22133341       0.21248880       1.53571978
13
Frame=1 idx=004575 GeodesicLength=0.1166339668247278 rxn_smarts="[C:1]([C@@:2]1([H:10])[C:3]([H:11])([H:12])[N:4]1[C:5](=[O:6])[H:13])([H:7])([H:8])[H:9]>>[C:1]([C:5](=[O:6])[H:13])([H:7])([H:8])[H:9].[C:2]1([H:10])=[N:4][C:3]1([H:11])[H:12]"
C       -0.97020083       0.08446268       1.00501877
C        0.06923716      -0.92538389      -0.48474410
C        0.43179116      -0.13393114      -1.63205278
N        1.32150578      -0.47219782      -0.48379502
C        0.73256914       0.66406039       0.68218397
O        0.73827196       1.81201045       0.29591574
H       -1.09088761      -0.80855054       1.61854916
H       -1.75954909       0.18045975       0.25895385
H       -1.09930999       0.95459514       1.65209095
H       -0.38697124      -1.86543688      -0.20859827
H        0.67846803      -0.61881837      -2.56864266
H        0.09574348       0.89953210      -1.67915498
H        1.23933207       0.22919814       1.54427537
13
Frame=2 idx=004575 GeodesicLength=0.23322638651118638 rxn_smarts="[C:1]([C@@:2]1([H:10])[C:3]([H:11])([H:12])[N:4]1[C:5](=[O:6])[H:13])([H:7])([H:8])[H:9]>>[C:1]([C:5](=[O:6])[H:13])([H:7])([H:8])[H:9].[C:2]1([H:10])=[N:4][C:3]1([H:11])[H:12]"
C       -0.97881948       0.08379229       1.01249091
C        0.05118345      -0.93084751      -0.49843864
C        0.43210822      -0.14020088      -1.64287439
N        1.30172277      -0.47507173      -0.48115810
C        0.74475596       0.68013043       0.69281149
O        0.76664317       1.82574884       0.30123784
H       -1.08234965      -0.80764810       1.63150221
H       -1.78378850       0.17534810       0.28238137
H       -1.11789422       0.95228360       1.66014737
H       -0.39460750      -1.88045375      -0.23812973
H        0.71088378      -0.62061147      -2.57295823
H        0.09234960       0.89131579      -1.69985611
H        1.25781239       0.24621439       1.55284401
13
Frame=3 idx=004575 GeodesicLength=0.349774049299255 rxn_smarts="[C:1]([C@@:2]1([H:10])[C:3]([H:11])([H:12])[N:4]1[C:5](=[O:6])[H:13])([H:7])([H:8])[H:9]>>[C:1]([C:5](=[O:6])[H:13])([H:7])([H:8])[H:9].[C:2]1([H:10])=[N:4][C:3]1([H:11])[H:12]"
C       -0.98773404       0.08320193       1.01990431
C        0.03235070      -0.93630339      -0.51270826
C        0.43251732      -0.14667369      -1.65386596
N        1.28076424      -0.47736905      -0.47806428
C        0.75726981       0.69674282       0.70370032
O        0.79628579       1.83964128       0.30650372
H       -1.07354018      -0.80645675       1.64427514
H       -1.80860308       0.16939373       0.30666968
H       -1.13663631       0.94968252       1.66851822
H       -0.40231677      -1.89550842      -0.26881566
H        0.74412537      -0.62249966      -2.57613996
H        0.08872549       0.88265214      -1.72138669
H        1.27679165       0.26349655       1.56140943
13
Frame=4 idx=004575 GeodesicLength=0.466283289792372 rxn_smarts="[C:1]([C@@:2]1([H:10])[C:3]([H:11])([H:12])[N:4]1[C:5](=[O:6])[H:13])([H:7])([H:8])[H:9]>>[C:1]([C:5](=[O:6])[H:13])([H:7])([H:8])[H:9].[C:2]1([H:10])=[N:4][C:3]1([H:11])[H:12]"
C       -0.99698051       0.08270247       1.02723619
C        0.01273037      -0.94175326      -0.52757857
C        0.43299024      -0.15335359      -1.66501763
N        1.25853763      -0.47899771      -0.47452448
C        0.77013441       0.71391561       0.71487107
O        0.82732420       1.85364655       0.31171764
H       -1.06447898      -0.80494089       1.65683080
H       -1.83398731       0.16252734       0.33184363
H       -1.15556752       0.94680581       1.67717789
H       -0.41000054      -1.91059071      -0.30065647
H        0.77816993      -0.62444790      -2.57804498
H        0.08483875       0.87349874      -1.74381178
H        1.29628934       0.28098752       1.56995669
13
Frame=5 idx=004575 GeodesicLength=0.5827447509185909 rxn_smarts="[C:1]([C@@:2]1([H:10])[C:3]([H:11])([H:12])[N:4]1[C:5](=[O:6])[H:13])([H:7])([H:8])[H:9]>>[C:1]([C:5](=[O:6])[H:13])([H:7])([H:8])[H:9].[C:2]1([H:10])=[N:4][C:3]1([H:11])[H:12]"
C       -1.00659832       0.08230628       1.03446128
C       -0.00767469      -0.94720403      -0.54307027
C        0.43349535      -0.16024995      -1.67632025
N        1.23495405      -0.47984790      -0.47056153
C        0.78337779       0.73165487       0.72634618
O        0.85988214       1.86771715       0.31689470
H       -1.05519697      -0.80306438       1.66913412
H       -1.85992732       0.15469235       0.35791456
H       -1.17472169       0.94367378       1.68609034
H       -0.41752993      -1.92568756      -0.33363250
H        0.81297053      -0.62641802      -2.57852999
H        0.08064994       0.86381378      -1.76719274
H        1.31631915       0.29861363       1.57846609
13
Frame=6 idx=004575 GeodesicLength=0.6991632716076913 rxn_smarts="[C:1]([C@@:2]1([H:10])[C:3]([H:11])([H:12])[N:4]1[C:5](=[O:6])[H:13])([H:7])([H:8])[H:9]>>[C:1]([C:5](=[O:6])[H:13])([H:7])([H:8])[H:9].[C:2]1([H:10])=[N:4][C:3]1([H:11])[H:12]"
C       -1.01663924       0.08203156       1.04154783
C       -0.02884892      -0.95266164      -0.55920106
C        0.43399637      -0.16736241      -1.68776536
N        1.20992480      -0.47978255      -0.46621229
C        0.79702965       0.74997076       0.73815673
O        0.89411513       1.88177852       0.32206279
H       -1.04573677      -0.80077192       1.68114560
H       -1.88640472       0.14580808       0.38489057
H       -1.19414763       0.94031731       1.69520575
H       -0.42474340      -1.94079297      -0.36769360
H        0.84844396      -0.62835325      -2.57744985
H        0.07611678       0.85354177      -1.79160723
H        1.33689399       0.31627675       1.58692012
13
Frame=7 idx=004575 GeodesicLength=0.8155205101912253 rxn_smarts="[C:1]([C@@:2]1([H:10])[C:3]([H:11])([H:12])[N:4]1[C:5](=[O:6])[H:13])([H:7])([H:8])[H:9]>>[C:1]([C:5](=[O:6])[H:13])([H:7])([H:8])[H:9].[C:2]1([H:10])=[N:4][C:3]1([H:11])[H:12]"
C       -1.02716301       0.08189774       1.04846572
C       -0.05076810      -0.95813701      -0.57598394
C        0.43444585      -0.17469354      -1.69934047
N        1.18336119      -0.47865550      -0.46152491
C        0.81112453       0.76885715       0.75032880
O        0.93017264       1.89573956       0.32724970
H       -1.03614718      -0.79800953       1.69283694
H       -1.91340173       0.13580906       0.41277245
H       -1.21389302       0.93677894       1.70446548
H       -0.43144075      -1.95589529      -0.40276838
H        0.88450315      -0.63019491      -2.57467510
H        0.07119120       0.84263964      -1.81711881
H        1.35801522       0.33386369       1.59529252
13
Frame=8 idx=004575 GeodesicLength=0.9318040691120917 rxn_smarts="[C:1]([C@@:2]1([H:10])[C:3]([H:11])([H:12])[N:4]1[C:5](=[O:6])[H:13])([H:7])([H:8])[H:9]>>[C:1]([C:5](=[O:6])[H:13])([H:7])([H:8])[H:9].[C:2]1([H:10])=[N:4][C:3]1([H:11])[H:12]"
C       -1.03823751       0.08193015       1.05517672
C       -0.07338088      -0.96364420      -0.59342739
C        0.43479215      -0.18223871      -1.71104164
N        1.15518202      -0.47628642      -0.45655560
C        0.82570416       0.78829712       0.76290358
O        0.96823182       1.90947885       0.33250749
H       -1.02649010      -0.79470164       1.70418254
H       -1.94089062       0.12461726       0.44153313
H       -1.23401948       0.93311565       1.71378857
H       -0.43738256      -1.97099921      -0.43874597
H        0.92100338      -0.63184681      -2.57004460
H        0.06579976       0.83104998      -1.84382896
H        1.37968785       0.35122797       1.60355213
13
Frame=9 idx=004575 GeodesicLength=1.0481294344562784 rxn_smarts="[C:1]([C@@:2]1([H:10])[C:3]([H:11])([H:12])[N:4]1[C:5](=[O:6])[H:13])([H:7])([H:8])[H:9]>>[C:1]([C:5](=[O:6])[H:13])([H:7])([H:8])[H:9].[C:2]1([H:10])=[N:4][C:3]1([H:11])[H:12]"
C       -1.05002573       0.08216496       1.06164715
C       -0.09659329      -0.96921512      -0.61149478
C        0.43496629      -0.18992227      -1.72283605
N        1.12505643      -0.47231891      -0.45141436
C        0.84086982       0.80830838       0.77595498
O        1.00852617       1.92278141       0.33805199
H       -1.01683893      -0.79070452       1.71517481
H       -1.96882460       0.11211917       0.47115695
H       -1.25467886       0.92946791       1.72300757
H       -0.44208059      -1.98600005      -0.47531537
H        0.95784213      -0.63327243      -2.56373224
H        0.05985441       0.81858730      -1.87179813
H        1.40192676       0.36800416       1.61159748
13
Frame=10 idx=004575 GeodesicLength=1.1643620738135285 rxn_smarts="[C:1]([C@@:2]1([H:10])[C:3]([H:11])([H:12])[N:4]1[C:5](=[O:6])[H:13])([H:7])([H:8])[H:9]>>[C:1]([C:5](=[O:6])[H:13])([H:7])([H:8])[H:9].[C:2]1([H:10])=[N:4][C:3]1([H:11])[H:12]"
C       -1.06254008       0.08262805       1.06782472
C       -0.12032860      -0.97489565      -0.63019002
C        0.43488015      -0.19779511      -1.73474845
N        1.09307412      -0.46665078      -0.44620315
C        0.85664285       0.82880426       0.78948910
O        1.05119949       1.93552494       0.34383897
H       -1.00729773      -0.78595982       1.72577912
H       -1.99716891       0.09832387       0.50157301
H       -1.27587652       0.92587449       1.73205650
H       -0.44531910      -2.00098509      -0.51238078
H        0.99481455      -0.63421677      -2.55534214
H        0.05321112       0.80524335      -1.90114384
H        1.42470866       0.38410426       1.61944697
13
Frame=11 idx=004575 GeodesicLength=1.2804976386405929 rxn_smarts="[C:1]([C@@:2]1([H:10])[C:3]([H:11])([H:12])[N:4]1[C:5](=[O:6])[H:13])([H:7])([H:8])[H:9]>>[C:1]([C:5](=[O:6])[H:13])([H:7])([H:8])[H:9].[C:2]1([H:10])=[N:4][C:3]1([H:11])[H:12]"
C       -1.07587405       0.08335365       1.07366310
C       -0.14447329      -0.98075079      -0.64947755
C        0.43443288      -0.20583904      -1.74677263
N        1.05912980      -0.45903869      -0.44104957
C        0.87310062       0.84973275       0.80353940
O        1.09644394       1.94750482       0.34995706
H       -0.99796030      -0.78035458       1.73598471
H       -2.02587493       0.08321325       0.53272067
H       -1.29770469       0.92244166       1.74079937
H       -0.44670589      -2.01595072      -0.54969171
H        1.03177778      -0.63447595      -2.54478949
H        0.04568868       0.79089726      -1.93194265
H        1.44801942       0.39926639       1.62705931
13
Frame=12 idx=004575 GeodesicLength=1.3965422902686022 rxn_smarts="[C:1]([C@@:2]1([H:10])[C:3]([H:11])([H:12])[N:4]1[C:5](=[O:6])[H:13])([H:7])([H:8])[H:9]>>[C:1]([C:5](=[O:6])[H:13])([H:7])([H:8])[H:9].[C:2]1([H:10])=[N:4][C:3]1([H:11])[H:12]"
C       -1.09013896       0.08437896       1.07911316
C       -0.16888427      -0.98685721      -0.66930698
C        0.43350991      -0.21402047      -1.75891839
N        1.02310534      -0.44919522      -0.43610831
C        0.89033494       0.87100985       0.81814524
O        1.14447332       1.95847559       0.35652493
H       -0.98893677      -0.77374946       1.74579522
H       -2.05489399       0.06677727       0.56451888
H       -1.32026699       0.91930821       1.74906650
H       -0.44576774      -2.03092054      -0.58692377
H        1.06856151      -0.63378869      -2.53199563
H        0.03705765       0.77541191      -1.96430244
H        1.47184604       0.41316980       1.63439157
13
Frame=13 idx=004575 GeodesicLength=1.5124734890363722 rxn_smarts="[C:1]([C@@:2]1([H:10])[C:3]([H:11])([H:12])[N:4]1[C:5](=[O:6])[H:13])([H:7])([H:8])[H:9]>>[C:1]([C:5](=[O:6])[H:13])([H:7])([H:8])[H:9].[C:2]1([H:10])=[N:4][C:3]1([H:11])[H:12]"
C       -1.10544457       0.08574030       1.08412934
C       -0.19338075      -0.99331048      -0.68960852
C        0.43199575      -0.22229565      -1.77119934
N        0.98487782      -0.43681062      -0.43155089
C        0.90845426       0.89252372       0.83335038
O        1.19545648       1.96815648       0.36367701
H       -0.98034273      -0.76600426       1.75522086
H       -2.08416166       0.04905923       0.59686215
H       -1.34366899       0.91661325       1.75668968
H       -0.44197851      -2.04589475      -0.62370142
H        1.10497815      -0.63189289      -2.51692497
H        0.02706027       0.75865004      -1.99832676
H        1.49615447       0.42546565       1.64138249
13
Frame=14 idx=004575 GeodesicLength=1.62829815552474 rxn_smarts="[C:1]([C@@:2]1([H:10])[C:3]([H:11])([H:12])[N:4]1[C:5](=[O:6])[H:13])([H:7])([H:8])[H:9]>>[C:1]([C:5](=[O:6])[H:13])([H:7])([H:8])[H:9].[C:2]1([H:10])=[N:4][C:3]1([H:11])[H:12]"
C       -1.12192555       0.08749327       1.08865565
C       -0.21775661      -1.00021762      -0.71029453
C        0.42976332      -0.23060007      -1.78362818
N        0.94428052      -0.42151297      -0.42757972
C        0.92759676       0.91413167       0.84919588
O        1.24960597       1.97617903       0.37156552
H       -0.97231884      -0.75693469       1.76427308
H       -2.11364549       0.03009693       0.62965710
H       -1.36803863       0.91454092       1.76346571
H       -0.43468744      -2.06091128      -0.65953602
H        1.14082800      -0.62838381      -2.49956890
H        0.01538839       0.74040354      -2.03416104
H        1.52090961       0.43571510       1.64795543
13
Frame=15 idx=004575 GeodesicLength=1.7440138772334464 rxn_smarts="[C:1]([C@@:2]1([H:10])[C:3]([H:11])([H:12])[N:4]1[C:5](=[O:6])[H:13])([H:7])([H:8])[H:9]>>[C:1]([C:5](=[O:6])[H:13])([H:7])([H:8])[H:9].[C:2]1([H:10])=[N:4][C:3]1([H:11])[H:12]"
C       -1.13973036       0.08969143       1.09263995
C       -0.24174736      -1.00771245      -0.73124409
C        0.42667521      -0.23884658      -1.79623321
N        0.90109550      -0.40286394      -0.42443685
C        0.94792613       0.93563141       0.86572029
O        1.30710693       1.98210851       0.38035487
H       -0.96502562      -0.74634536       1.77297056
H       -2.14331359       0.00999492       0.66278455
H       -1.39350930       0.91328826       1.76918348
H       -0.42312282      -2.07597877      -0.69384065
H        1.17590867      -0.62280211      -2.47992606
H        0.00166716       0.72043545      -2.07197381
H        1.54606945       0.44339924       1.65400096
13
Frame=16 idx=004575 GeodesicLength=1.8596864129837742 rxn_smarts="[C:1]([C@@:2]1([H:10])[C:3]([H:11])([H:12])[N:4]1[C:5](=[O:6])[H:13])([H:7])([H:8])[H:9]>>[C:1]([C:5](=[O:6])[H:13])([H:7])([H:8])[H:9].[C:2]1([H:10])=[N:4][C:3]1([H:11])[H:12]"
C       -1.15903193       0.09241174       1.09602280
C       -0.26502517      -1.01596157      -0.75229366
C        0.42257785      -0.24694599      -1.80906898
N        0.85501617      -0.38034689      -0.42241416
C        0.96964364       0.95676129       0.88297080
O        1.36816079       1.98543920       0.39024193
H       -0.95865498      -0.73400440       1.78133264
H       -2.17317195      -0.01112670       0.69612041
H       -1.42024004       0.91309236       1.77360351
H       -0.40634134      -2.09106225      -0.72587991
H        1.20998658      -0.61452106      -2.45802506
H       -0.01453329       0.69840057      -2.11199885
H        1.57161367       0.44786370       1.65938853
