17
Frame=0 idx=009576 GeodesicLength=0.0 rxn_smarts="[C:1]1([H:8])([H:9])[C:2]([H:10])([H:11])[C:3]12[C:4]([H:12])([H:13])[C@@:5]1([H:14])[C:6]([H:15])([H:16])[C@@:7]21[H:17]>>[C:1]1([H:8])([H:9])[C:2]([H:10])([H:11])[C:3]1([C@@:7]1([H:17])[C@:5]([C:4][H:13])([H:14])[C:6]1([H:15])[H:16])[H:12]"
C       -2.05249478      -0.36163304       0.04406678
C       -1.48584255       0.81983035      -0.69231100
C       -0.57904201      -0.24270806      -0.18182094
C        1.20009580      -1.15948130      -1.02261267
C        1.68016003      -0.68175909       0.31238479
C        1.62901570       0.78823345       0.61958832
C        0.43976438      -0.07434979       0.90655567
H       -2.61141475      -1.09564392      -0.52134461
H       -2.39492081      -0.21972788       1.06230239
H       -1.66305310       0.87767801      -1.75869534
H       -1.44986024       1.77663099      -0.18599209
H       -0.24261166      -1.09989335      -0.91007745
H        1.30461954      -0.35974617      -1.77270389
H        2.31426951      -1.34139290       0.89164378
H        1.58346683       1.48272290      -0.21182645
H        2.17827222       1.13808982       1.48475294
H        0.14957582      -0.24684997       1.93608976
17
Frame=1 idx=009576 GeodesicLength=0.06025306980006354 rxn_smarts="[C:1]1([H:8])([H:9])[C:2]([H:10])([H:11])[C:3]12[C:4]([H:12])([H:13])[C@@:5]1([H:14])[C:6]([H:15])([H:16])[C@@:7]21[H:17]>>[C:1]1([H:8])([H:9])[C:2]([H:10])([H:11])[C:3]1([C@@:7]1([H:17])[C@:5]([C:4][H:13])([H:14])[C:6]1([H:15])[H:16])[H:12]"
C       -2.05275847      -0.35345867       0.04968030
C       -1.47689822       0.81415406      -0.70099369
C       -0.57877801      -0.25254997      -0.18100221
C        1.20403926      -1.14083982      -1.02978609
C        1.68232801      -0.67953945       0.30892660
C        1.62006635       0.78927127       0.62660884
C        0.43786032      -0.08181532       0.90988077
H       -2.62010162      -1.08845106      -0.50604800
H       -2.39504528      -0.19400793       1.06532643
H       -1.65885680       0.86278424      -1.76703189
H       -1.43116127       1.77656730      -0.20635631
H       -0.24845733      -1.13424878      -0.90687656
H        1.29752164      -0.33656817      -1.77564834
H        2.32265477      -1.33722338       0.88334176
H        1.57081388       1.48903122      -0.20005812
H        2.17313855       1.13417873       1.49125458
H        0.15363422      -0.26728428       1.93878192
17
Frame=2 idx=009576 GeodesicLength=0.12042377531341147 rxn_smarts="[C:1]1([H:8])([H:9])[C:2]([H:10])([H:11])[C:3]12[C:4]([H:12])([H:13])[C@@:5]1([H:14])[C:6]([H:15])([H:16])[C@@:7]21[H:17]>>[C:1]1([H:8])([H:9])[C:2]([H:10])([H:11])[C:3]1([C@@:7]1([H:17])[C@:5]([C:4][H:13])([H:14])[C:6]1([H:15])[H:16])[H:12]"
C       -2.05281610      -0.34552276       0.05488170
C       -1.46827045       0.80865035      -0.70925063
C       -0.57852596      -0.26195013      -0.18010330
C        1.20705785      -1.12262029      -1.03634697
C        1.68424474      -0.67738714       0.30558956
C        1.61134514       0.79020967       0.63334760
C        0.43598199      -0.08886025       0.91325041
H       -2.62807279      -1.08132932      -0.49162352
H       -2.39486023      -0.16930877       1.06780076
H       -1.65484315       0.84861401      -1.77484537
H       -1.41314528       1.77620790      -0.22585969
H       -0.25364733      -1.16775011      -0.90383551
H        1.29039392      -0.31431316      -1.77823778
H        2.33059745      -1.33306235       0.87533105
H        1.55837124       1.49495822      -0.18873824
H        2.16843520       1.13034805       1.49722811
H        0.15775378      -0.28688392       1.94141185
17
Frame=3 idx=009576 GeodesicLength=0.18053076761449838 rxn_smarts="[C:1]1([H:8])([H:9])[C:2]([H:10])([H:11])[C:3]12[C:4]([H:12])([H:13])[C@@:5]1([H:14])[C:6]([H:15])([H:16])[C@@:7]21[H:17]>>[C:1]1([H:8])([H:9])[C:2]([H:10])([H:11])[C:3]1([C@@:7]1([H:17])[C@:5]([C:4][H:13])([H:14])[C:6]1([H:15])[H:16])[H:12]"
C       -2.05269213      -0.33780732       0.05970828
C       -1.45993634       0.80332594      -0.71710745
C       -0.57828675      -0.27093123      -0.17912971
C        1.20925628      -1.10481989      -1.04234069
C        1.68593303      -0.67530014       0.30236529
C        1.60283285       0.79105892       0.63982373
C        0.43412527      -0.09552385       0.91666021
H       -2.63539380      -1.07428392      -0.47800312
H       -2.39440862      -0.14555675       1.06978324
H       -1.65099052       0.83513361      -1.78217769
H       -1.39575866       1.77560177      -0.24455191
H       -0.25823783      -1.20050483      -0.90097736
H        1.28324596      -0.29291469      -1.78050395
H        2.33813865      -1.32890384       0.86759740
H        1.54612648       1.50053421      -0.17783785
H        2.16411692       1.12660597       1.50270994
H        0.16192920      -0.30571396       1.94398165
17
Frame=4 idx=009576 GeodesicLength=0.24059271196187013 rxn_smarts="[C:1]1([H:8])([H:9])[C:2]([H:10])([H:11])[C:3]12[C:4]([H:12])([H:13])[C@@:5]1([H:14])[C:6]([H:15])([H:16])[C@@:7]21[H:17]>>[C:1]1([H:8])([H:9])[C:2]([H:10])([H:11])[C:3]1([C@@:7]1([H:17])[C@:5]([C:4][H:13])([H:14])[C:6]1([H:15])[H:16])[H:12]"
C       -2.05240826      -0.33029457       0.06419289
C       -1.45187510       0.79818560      -0.72458787
C       -0.57806061      -0.27951302      -0.17808607
C        1.21072665      -1.08743161      -1.04780614
C        1.68741214      -0.67327538       0.29924577
C        1.59451379       0.79182862       0.64605517
C        0.43228727      -0.10183884       0.92010675
H       -2.64212183      -1.06731678      -0.46512846
H       -2.39372733      -0.12268871       1.07132326
H       -1.64728032       0.82231105      -1.78906554
H       -1.37895584       1.77478966      -0.26247754
H       -0.26227757      -1.23261145      -0.89831885
H        1.27608236      -0.27231565      -1.78247571
H        2.34531149      -1.32474291       0.86012671
H        1.53406964       1.50578687      -0.16733024
H        2.16014679       1.12295767       1.50773263
H        0.16615672      -0.32383055       1.94649323
17
Frame=5 idx=009576 GeodesicLength=0.30063390667002204 rxn_smarts="[C:1]1([H:8])([H:9])[C:2]([H:10])([H:11])[C:3]12[C:4]([H:12])([H:13])[C@@:5]1([H:14])[C:6]([H:15])([H:16])[C@@:7]21[H:17]>>[C:1]1([H:8])([H:9])[C:2]([H:10])([H:11])[C:3]1([C@@:7]1([H:17])[C@:5]([C:4][H:13])([H:14])[C:6]1([H:15])[H:16])[H:12]"
C       -2.05198571      -0.32296980       0.06836685
C       -1.44406814       0.79323156      -0.73171564
C       -0.57784797      -0.28771397      -0.17697656
C        1.21155537      -1.07044124      -1.05278120
C        1.68869900      -0.67131193       0.29622233
C        1.58637409       0.79252663       0.65205833
C        0.43046509      -0.10783532       0.92358704
H       -2.64830947      -1.06043288      -0.45294236
H       -2.39285546      -0.10063941       1.07246903
H       -1.64369345       0.81011469      -1.79554608
H       -1.36269383       1.77381137      -0.27968198
H       -0.26580842      -1.26416273      -0.89587116
H        1.26890528      -0.25246040      -1.78418045
H        2.35214804      -1.32057707       0.85290397
H        1.52219178       1.51074236      -0.15718922
H        2.15649163       1.11940648       1.51232689
H        0.17043217      -0.34128835       1.94895021
17
Frame=6 idx=009576 GeodesicLength=0.360658870791918 rxn_smarts="[C:1]1([H:8])([H:9])[C:2]([H:10])([H:11])[C:3]12[C:4]([H:12])([H:13])[C@@:5]1([H:14])[C:6]([H:15])([H:16])[C@@:7]21[H:17]>>[C:1]1([H:8])([H:9])[C:2]([H:10])([H:11])[C:3]1([C@@:7]1([H:17])[C@:5]([C:4][H:13])([H:14])[C:6]1([H:15])[H:16])[H:12]"
C       -2.05143925      -0.31581948       0.07225427
C       -1.43649917       0.78846741      -0.73850998
C       -0.57764877      -0.29554787      -0.17580414
C        1.21180043      -1.05384175      -1.05729940
C        1.68980792      -0.66940683       0.29328957
C        1.57840277       0.79316016       0.65784793
C        0.42865708      -0.11353556       0.92709914
H       -2.65399648      -1.05363335      -0.44140044
H       -2.39181707      -0.07936181       1.07325597
H       -1.64021661       0.79851773      -1.80164728
H       -1.34693763       1.77269727      -0.29620188
H       -0.26886139      -1.29523920      -0.89364267
H        1.26171404      -0.23330221      -1.78563978
H        2.35867070      -1.31640543       0.84591747
H        1.51048668       1.51542215      -0.14739304
H        2.15312400       1.11595506       1.51651964
H        0.17475276      -0.35812629       1.95135461
17
Frame=7 idx=009576 GeodesicLength=0.4206851384976736 rxn_smarts="[C:1]1([H:8])([H:9])[C:2]([H:10])([H:11])[C:3]12[C:4]([H:12])([H:13])[C@@:5]1([H:14])[C:6]([H:15])([H:16])[C@@:7]21[H:17]>>[C:1]1([H:8])([H:9])[C:2]([H:10])([H:11])[C:3]1([C@@:7]1([H:17])[C@:5]([C:4][H:13])([H:14])[C:6]1([H:15])[H:16])[H:12]"
C       -2.05078489      -0.30882963       0.07587836
C       -1.42915388       0.78389417      -0.74499024
C       -0.57746306      -0.30302749      -0.17457113
C        1.21152229      -1.03761821      -1.06139106
C        1.69075169      -0.66755803       0.29044031
C        1.57059045       0.79373561       0.66343778
C        0.42686154      -0.11896069       0.93064157
H       -2.65922090      -1.04692261      -0.43046047
H       -2.39064148      -0.05880353       1.07371951
H       -1.63683497       0.78749346      -1.80739843
H       -1.33165540       1.77147559      -0.31207333
H       -0.27146365      -1.32591827      -0.89163855
H        1.25450459      -0.21479816      -1.78687496
H        2.36490228      -1.31222732       0.83915395
H        1.49894864       1.51984751      -0.13791987
H        2.15002147       1.11260393       1.52033520
H        0.17911528      -0.37438631       1.95371136
17
Frame=8 idx=009576 GeodesicLength=0.48071311248745713 rxn_smarts="[C:1]1([H:8])([H:9])[C:2]([H:10])([H:11])[C:3]12[C:4]([H:12])([H:13])[C@@:5]1([H:14])[C:6]([H:15])([H:16])[C@@:7]21[H:17]>>[C:1]1([H:8])([H:9])[C:2]([H:10])([H:11])[C:3]1([C@@:7]1([H:17])[C@:5]([C:4][H:13])([H:14])[C:6]1([H:15])[H:16])[H:12]"
C       -2.05003468      -0.30199036       0.07925754
C       -1.42202019       0.77951553      -0.75117072
C       -0.57729089      -0.31016340      -0.17327975
C        1.21076571      -1.02176188      -1.06508286
C        1.69154084      -0.66576438       0.28767101
C        1.56292971       0.79425902       0.66883877
C        0.42507729      -0.12412712       0.93421284
H       -2.66401420      -1.04030270      -0.42008759
H       -2.38934931      -0.03892706       1.07388834
H       -1.63353765       0.77702071      -1.81282199
H       -1.31682115       1.77017162      -0.32732433
H       -0.27363324      -1.35626581      -0.88986500
H        1.24727465      -0.19691289      -1.78790335
H        2.37085869      -1.30804442       0.83260447
H        1.48757390       1.52403570      -0.12875342
H        2.14716423       1.10935444       1.52379393
H        0.18351628      -0.39009699       1.95602211
17
Frame=9 idx=009576 GeodesicLength=0.5407491873151958 rxn_smarts="[C:1]1([H:8])([H:9])[C:2]([H:10])([H:11])[C:3]12[C:4]([H:12])([H:13])[C@@:5]1([H:14])[C:6]([H:15])([H:16])[C@@:7]21[H:17]>>[C:1]1([H:8])([H:9])[C:2]([H:10])([H:11])[C:3]1([C@@:7]1([H:17])[C@:5]([C:4][H:13])([H:14])[C:6]1([H:15])[H:16])[H:12]"
C       -2.04920427      -0.29529020       0.08241368
C       -1.41508521       0.77533303      -0.75707008
C       -0.57713382      -0.31696775      -0.17193414
C        1.20959295      -1.00625544      -1.06840074
C        1.69218528      -0.66402587       0.28497440
C        1.55541218       0.79473428       0.67406166
C        0.42330153      -0.12905309       0.93781028
H       -2.66841056      -1.03377783      -0.41024053
H       -2.38796797      -0.01969113       1.07379742
H       -1.63031455       0.76707692      -1.81794374
H       -1.30240529       1.76881184      -0.34198901
H       -0.27539621      -1.38634403      -0.88832137
H        1.24002623      -0.17960912      -1.78874438
H        2.37655747      -1.30385735       0.82625886
H        1.47635846       1.52800327      -0.11987641
H        2.14453167       1.10620633       1.52691677
H        0.18795211      -0.40529386       1.95828731
17
Frame=10 idx=009576 GeodesicLength=0.6007906535239674 rxn_smarts="[C:1]1([H:8])([H:9])[C:2]([H:10])([H:11])[C:3]12[C:4]([H:12])([H:13])[C@@:5]1([H:14])[C:6]([H:15])([H:16])[C@@:7]21[H:17]>>[C:1]1([H:8])([H:9])[C:2]([H:10])([H:11])[C:3]1([C@@:7]1([H:17])[C@:5]([C:4][H:13])([H:14])[C:6]1([H:15])[H:16])[H:12]"
C       -2.04830121      -0.28872039       0.08535910
C       -1.40834054       0.77134692      -0.76269859
C       -0.57699041      -0.32344770      -0.17053430
C        1.20802272      -0.99109104      -1.07136811
C        1.69269304      -0.66234046       0.28234835
C        1.54803323       0.79516760       0.67911643
C        0.42153456      -0.13374813       0.94143434
H       -2.67243082      -1.02734907      -0.40089701
H       -2.38651149      -0.00105977       1.07346392
H       -1.62715540       0.75764402      -1.82278044
H       -1.28839143       1.76741210      -0.35608862
H       -0.27675774      -1.41621316      -0.88700960
H        1.23275250      -0.16285679      -1.78941126
H        2.38201060      -1.29966958       0.82010766
H        1.46530012       1.53176560      -0.11127416
H        2.14211190       1.10315865       1.52971965
H        0.19242035      -0.41999882       1.96051265
17
Frame=11 idx=009576 GeodesicLength=0.6608350947775516 rxn_smarts="[C:1]1([H:8])([H:9])[C:2]([H:10])([H:11])[C:3]12[C:4]([H:12])([H:13])[C@@:5]1([H:14])[C:6]([H:15])([H:16])[C@@:7]21[H:17]>>[C:1]1([H:8])([H:9])[C:2]([H:10])([H:11])[C:3]1([C@@:7]1([H:17])[C@:5]([C:4][H:13])([H:14])[C:6]1([H:15])[H:16])[H:12]"
C       -2.04733631      -0.28227194       0.08810921
C       -1.40177580       0.76755778      -0.76807060
C       -0.57686038      -0.32961292      -0.16908357
C        1.20609016      -0.97625362      -1.07400725
C        1.69307286      -0.66070796       0.27978789
C        1.54078722       0.79556329       0.68401288
C        0.41977507      -0.13822512       0.94508319
H       -2.67610143      -1.02101939      -0.39202644
H       -2.38499959       0.01700402       1.07291173
H       -1.62405242       0.74870318      -1.82735157
H       -1.27475872       1.76599055      -0.36964929
H       -0.27772921      -1.44592861      -0.88592721
H        1.22545216      -0.14662513      -1.78991854
H        2.38723196      -1.29548419       0.81414084
H        1.45439694       1.53533728      -0.10293172
H        2.13989077       1.10021047       1.53221990
H        0.19691674      -0.43423769       1.96270054
17
Frame=12 idx=009576 GeodesicLength=0.7208742605941006 rxn_smarts="[C:1]1([H:8])([H:9])[C:2]([H:10])([H:11])[C:3]12[C:4]([H:12])([H:13])[C@@:5]1([H:14])[C:6]([H:15])([H:16])[C@@:7]21[H:17]>>[C:1]1([H:8])([H:9])[C:2]([H:10])([H:11])[C:3]1([C@@:7]1([H:17])[C@:5]([C:4][H:13])([H:14])[C:6]1([H:15])[H:16])[H:12]"
C       -2.04631839      -0.27593717       0.09067527
C       -1.39538465       0.76396784      -0.77319481
C       -0.57674446      -0.33546827      -0.16758222
C        1.20381794      -0.96173769      -1.07633646
C        1.69333006      -0.65912772       0.27729105
C        1.53367069       0.79592492       0.68875691
C        0.41802214      -0.14249189       0.94875656
H       -2.67943970      -1.01478962      -0.38360924
H       -2.38344711       0.03452306       1.07215883
H       -1.62099839       0.74024203      -1.83167100
H       -1.26149220       1.76456423      -0.38268736
H       -0.27831201      -1.47553802      -0.88507667
H        1.21812221      -0.13089214      -1.79027772
H        2.39222934      -1.29130385       0.80835263
H        1.44364774       1.53872915      -0.09483973
H        2.13785820       1.09736141       1.53442921
H        0.20143858      -0.44802627       1.96485475
17
Frame=13 idx=009576 GeodesicLength=0.7809104973795435 rxn_smarts="[C:1]1([H:8])([H:9])[C:2]([H:10])([H:11])[C:3]12[C:4]([H:12])([H:13])[C@@:5]1([H:14])[C:6]([H:15])([H:16])[C@@:7]21[H:17]>>[C:1]1([H:8])([H:9])[C:2]([H:10])([H:11])[C:3]1([C@@:7]1([H:17])[C@:5]([C:4][H:13])([H:14])[C:6]1([H:15])[H:16])[H:12]"
C       -2.04525725      -0.26970842       0.09306892
C       -1.38916063       0.76058002      -0.77808042
C       -0.57664352      -0.34101769      -0.16602993
C        1.20122832      -0.94753336      -1.07837373
C        1.69347017      -0.65760116       0.27485528
C        1.52668089       0.79625645       0.69335476
C        0.41627476      -0.14655563       0.95245472
H       -2.68246292      -1.00866530      -0.37562326
H       -2.38187260       0.05152475       1.07122327
H       -1.61798627       0.73224698      -1.83575322
H       -1.24857887       1.76315040      -0.39522131
H       -0.27850494      -1.50508937      -0.88446176
H        1.21076094      -0.11563401      -1.79049960
H        2.39701096      -1.28713436       0.80273639
H        1.43305293       1.54195201      -0.08698912
H        2.13600591       1.09461037       1.53635851
H        0.20598212      -0.46138168       1.96698053
17
Frame=14 idx=009576 GeodesicLength=0.8409281584348582 rxn_smarts="[C:1]1([H:8])([H:9])[C:2]([H:10])([H:11])[C:3]12[C:4]([H:12])([H:13])[C@@:5]1([H:14])[C:6]([H:15])([H:16])[C@@:7]21[H:17]>>[C:1]1([H:8])([H:9])[C:2]([H:10])([H:11])[C:3]1([C@@:7]1([H:17])[C@:5]([C:4][H:13])([H:14])[C:6]1([H:15])[H:16])[H:12]"
C       -2.04416091      -0.26357900       0.09530062
C       -1.38309793       0.75739503      -0.78273593
C       -0.57655829      -0.34626705      -0.16442813
C        1.19834252      -0.93363270      -1.08013446
C        1.69349725      -0.65612780       0.27247823
C        1.51981411       0.79656083       0.69781243
C        0.41453167      -0.15042309       0.95617692
H       -2.68518871      -1.00264593      -0.36804924
H       -2.38028708       0.06803162       1.07012046
H       -1.61501153       0.72470670      -1.83960998
H       -1.23600522       1.76176205      -0.40726668
H       -0.27830720      -1.53462394      -0.88408223
H        1.20336740      -0.10083150      -1.79059486
H        2.40158336      -1.28297844       0.79728646
H        1.42261126       1.54501560      -0.07937063
H        2.13432528       1.09195524       1.53801835
H        0.21054400      -0.47431761       1.96907867
17
Frame=15 idx=009576 GeodesicLength=0.900917887734741 rxn_smarts="[C:1]1([H:8])([H:9])[C:2]([H:10])([H:11])[C:3]12[C:4]([H:12])([H:13])[C@@:5]1([H:14])[C:6]([H:15])([H:16])[C@@:7]21[H:17]>>[C:1]1([H:8])([H:9])[C:2]([H:10])([H:11])[C:3]1([C@@:7]1([H:17])[C@:5]([C:4][H:13])([H:14])[C:6]1([H:15])[H:16])[H:12]"
C       -2.04303721      -0.25754261       0.09737948
C       -1.37719104       0.75441491      -0.78716920
C       -0.57648968      -0.35122041      -0.16277703
C        1.19517737      -0.92002742      -1.08163405
C        1.69341524      -0.65470849       0.27015758
C        1.51306803       0.79684106       0.70213469
C        0.41279164      -0.15409959       0.95992316
H       -2.68763210      -0.99673410      -0.36086977
H       -2.37870506       0.08406661       1.06886569
H       -1.61206855       0.71761034      -1.84325323
H       -1.22376033       1.76041354      -0.41883786
H       -0.27771430      -1.56418379      -0.88393735
H        1.19594020      -0.08646452      -1.79057313
H        2.40595249      -1.27884110       0.79199710
H        1.41232315       1.54792928      -0.07197691
H        2.13280948       1.08939457       1.53941767
H        0.21512067      -0.48684831       1.97115315
17
Frame=16 idx=009576 GeodesicLength=0.960868835272842 rxn_smarts="[C:1]1([H:8])([H:9])[C:2]([H:10])([H:11])[C:3]12[C:4]([H:12])([H:13])[C@@:5]1([H:14])[C:6]([H:15])([H:16])[C@@:7]21[H:17]>>[C:1]1([H:8])([H:9])[C:2]([H:10])([H:11])[C:3]1([C@@:7]1([H:17])[C@:5]([C:4][H:13])([H:14])[C:6]1([H:15])[H:16])[H:12]"
C       -2.04189420      -0.25159323       0.09931446
C       -1.37143563       0.75164189      -0.79138647
C       -0.57643899      -0.35588087      -0.16107654
C        1.19174760      -0.90671095      -1.08288563
C        1.69322728      -0.65334420       0.26789193
C        1.50644059       0.79710012       0.70632575
C        0.41105352      -0.15758944       0.96369338
H       -2.68980697      -0.99093164      -0.35406905
H       -2.37713865       0.09964885       1.06747179
H       -1.60915332       0.71094929      -1.84669232
H       -1.21183500       1.75911713      -0.42994683
H       -0.27671829      -1.59380693      -0.88403061
H        1.18847874      -0.07251683      -1.79044276
H        2.41012234      -1.27472738       0.78686414
H        1.40218930       1.55070091      -0.06480189
H        2.13145329       1.08692664       1.54056367
H        0.21970840      -0.49898336       1.97320699
