20
Frame=0 idx=005514 GeodesicLength=0.0 rxn_smarts="[C:1]([C:2]([C:3]([C:4]([C:5]([H:15])([H:16])[H:17])([C:6]([H:18])([H:19])[H:20])[H:14])([H:12])[H:13])([H:10])[H:11])([H:7])([H:8])[H:9]>>[C:1](=[C:2]([C:3]([C:4]([C:5]([H:15])([H:16])[H:17])([C:6]([H:18])([H:19])[H:20])[H:14])([H:12])[H:13])[H:11])([H:7])[H:9].[H:8][H:10]"
C        2.85193139       0.40433726      -0.00591044
C        1.61250292      -0.25917435       0.25196881
C        0.32410810       0.51957720       0.28201802
C       -0.98226544      -0.28256917       0.19685939
C       -2.04988659       0.34024829       1.09310201
C       -1.49181599      -0.39448058      -1.23824569
H        2.85306331       1.34044931      -0.54440748
H        2.12505164      -0.60327073      -0.86373961
H        3.78024154      -0.02543201       0.33595750
H        1.22317052      -1.25104231      -0.91734111
H        1.65959631      -1.09352428       0.94534079
H        0.35433558       1.29414389      -0.48938965
H        0.37997452       1.05050537       1.23928711
H       -0.77855304      -1.29573081       0.56386944
H       -2.98830849      -0.21485166       1.03336327
H       -1.73472717       0.35591837       2.13886219
H       -2.25624321       1.37167762       0.79215872
H       -2.38261640      -1.02442640      -1.28868693
H       -1.76180068       0.59244325      -1.62584179
H       -0.73775883      -0.82479826      -1.89922455
20
Frame=1 idx=005514 GeodesicLength=0.11465860136731629 rxn_smarts="[C:1]([C:2]([C:3]([C:4]([C:5]([H:15])([H:16])[H:17])([C:6]([H:18])([H:19])[H:20])[H:14])([H:12])[H:13])([H:10])[H:11])([H:7])([H:8])[H:9]>>[C:1](=[C:2]([C:3]([C:4]([C:5]([H:15])([H:16])[H:17])([C:6]([H:18])([H:19])[H:20])[H:14])([H:12])[H:13])[H:11])([H:7])[H:9].[H:8][H:10]"
C        2.84491618       0.40354867      -0.02164312
C        1.60841417      -0.26547230       0.23425229
C        0.32343961       0.51783063       0.29401896
C       -0.98467168      -0.28056493       0.20527860
C       -2.05661299       0.34822391       1.09203535
C       -1.48546274      -0.39676896      -1.23250935
H        2.84117087       1.34772965      -0.54677857
H        2.15385654      -0.62637271      -0.90366067
H        3.76934047      -0.00605494       0.35508141
H        1.24171053      -1.26659412      -0.93711779
H        1.65963513      -1.09790590       0.93075619
H        0.34544022       1.30838008      -0.46152590
H        0.38508878       1.03260952       1.25984071
H       -0.78667213      -1.29269907       0.57836415
H       -2.99546306      -0.20597630       1.02985488
H       -1.74802457       0.36884776       2.13965746
H       -2.26013239       1.37829327       0.78459095
H       -2.37862907      -1.02304470      -1.28597254
H       -1.74757052       0.58949334      -1.62721399
H       -0.72977337      -0.83350291      -1.88730902
20
Frame=2 idx=005514 GeodesicLength=0.2288377757802731 rxn_smarts="[C:1]([C:2]([C:3]([C:4]([C:5]([H:15])([H:16])[H:17])([C:6]([H:18])([H:19])[H:20])[H:14])([H:12])[H:13])([H:10])[H:11])([H:7])([H:8])[H:9]>>[C:1](=[C:2]([C:3]([C:4]([C:5]([H:15])([H:16])[H:17])([C:6]([H:18])([H:19])[H:20])[H:14])([H:12])[H:13])[H:11])([H:7])[H:9].[H:8][H:10]"
C        2.83744685       0.40260512      -0.03793970
C        1.60371738      -0.27143880       0.21675478
C        0.32265977       0.51611937       0.30660648
C       -0.98718283      -0.27848890       0.21389342
C       -2.06348718       0.35626188       1.09095156
C       -1.47884964      -0.39890349      -1.22663706
H        2.82857669       1.35413162      -0.55060172
H        2.18488325      -0.65062039      -0.94328571
H        3.75674972       0.01404068       0.37358883
H        1.26150250      -1.28141590      -0.95736917
H        1.65934515      -1.10224862       0.91599780
H        0.33665840       1.32240747      -0.43256434
H        0.39007534       1.01416516       1.28088410
H       -0.79499265      -1.28957250       0.59298102
H       -3.00274505      -0.19704010       1.02616368
H       -1.76158889       0.38189260       2.14040157
H       -2.26406705       1.38493418       0.77698541
H       -2.37449500      -1.02128793      -1.28339026
H       -1.73266421       0.58672228      -1.62840842
H       -0.72154255      -0.84226372      -1.87501227
20
Frame=3 idx=005514 GeodesicLength=0.3427897371028038 rxn_smarts="[C:1]([C:2]([C:3]([C:4]([C:5]([H:15])([H:16])[H:17])([C:6]([H:18])([H:19])[H:20])[H:14])([H:12])[H:13])([H:10])[H:11])([H:7])([H:8])[H:9]>>[C:1](=[C:2]([C:3]([C:4]([C:5]([H:15])([H:16])[H:17])([C:6]([H:18])([H:19])[H:20])[H:14])([H:12])[H:13])[H:11])([H:7])[H:9].[H:8][H:10]"
C        2.82947638       0.40144639      -0.05480245
C        1.59836548      -0.27708010       0.19959540
C        0.32174247       0.51442356       0.31984551
C       -0.98983230      -0.27633665       0.22271954
C       -2.07054637       0.36437014       1.08985364
C       -1.47197834      -0.40085385      -1.22062111
H        2.81519808       1.35954786      -0.55605404
H        2.21853928      -0.67623589      -0.98239484
H        3.74239691       0.03500963       0.39115081
H        1.28270219      -1.29527152      -0.97816772
H        1.65868140      -1.10663922       0.90108380
H        0.32800677       1.33619519      -0.40243956
H        0.39488716       0.99514374       1.30246417
H       -0.80357478      -1.28635840       0.60771767
H       -3.01019573      -0.18802339       1.02226872
H       -1.77547222       0.39504512       2.14109966
H       -2.26806197       1.39161417       0.76935376
H       -2.37021903      -1.01910492      -1.28096500
H       -1.71704700       0.58416467      -1.62939819
H       -0.71306839      -0.85105653      -1.86230976
20
Frame=4 idx=005514 GeodesicLength=0.4567404156523617 rxn_smarts="[C:1]([C:2]([C:3]([C:4]([C:5]([H:15])([H:16])[H:17])([C:6]([H:18])([H:19])[H:20])[H:14])([H:12])[H:13])([H:10])[H:11])([H:7])([H:8])[H:9]>>[C:1](=[C:2]([C:3]([C:4]([C:5]([H:15])([H:16])[H:17])([C:6]([H:18])([H:19])[H:20])[H:14])([H:12])[H:13])[H:11])([H:7])[H:9].[H:8][H:10]"
C        2.82095828       0.40002116      -0.07225404
C        1.59230550      -0.28240231       0.18289663
C        0.32065402       0.51272181       0.33380160
C       -0.99266063      -0.27410605       0.23177833
C       -2.07783265       0.37256218       1.08874314
C       -1.46485461      -0.40260340      -1.21444750
H        2.80094957       1.36390487      -0.56328475
H        2.25522563      -0.70337777      -1.02077753
H        3.72627498       0.05689762       0.40742959
H        1.30549133      -1.30787611      -0.99960516
H        1.65759644      -1.11116995       0.88602886
H        0.31949204       1.34970903      -0.37108822
H        0.39946667       0.97551657       1.32462703
H       -0.81248705      -1.28306300       0.62258430
H       -3.01786176      -0.17889864       1.01814936
H       -1.78973290       0.40831018       2.14175495
H       -2.27213325       1.39835097       0.76169886
H       -2.36580824      -1.01645555      -1.27871595
H       -1.70068529       0.58183480      -1.63015505
H       -0.70435810      -0.85987640      -1.84916444
20
Frame=5 idx=005514 GeodesicLength=0.5710474721477695 rxn_smarts="[C:1]([C:2]([C:3]([C:4]([C:5]([H:15])([H:16])[H:17])([C:6]([H:18])([H:19])[H:20])[H:14])([H:12])[H:13])([H:10])[H:11])([H:7])([H:8])[H:9]>>[C:1](=[C:2]([C:3]([C:4]([C:5]([H:15])([H:16])[H:17])([C:6]([H:18])([H:19])[H:20])[H:14])([H:12])[H:13])[H:11])([H:7])[H:9].[H:8][H:10]"
C        2.81180565       0.39826863      -0.09037156
C        1.58547989      -0.28738992       0.16680902
C        0.31934994       0.51100343       0.34856098
C       -0.99571220      -0.27178959       0.24110136
C       -2.08540466       0.38085564       1.08761522
C       -1.45747017      -0.40414176      -1.20809388
H        2.78568549       1.36715480      -0.57242156
H        2.29534201      -0.73218027      -1.05828491
H        3.70849529       0.07960361       0.42205291
H        1.33009345      -1.31889828      -1.02175677
H        1.65604969      -1.11592389       0.87085523
H        0.31110981       1.36292183      -0.33843216
H        0.40373899       0.95527330       1.34743522
H       -0.82179972      -1.27968603       0.63760725
H       -3.02580270      -0.16964101       1.01377219
H       -1.80445955       0.42170198       2.14236801
H       -2.27631619       1.40516412       0.75400912
H       -2.36125253      -1.01331622      -1.27665721
H       -1.68353715       0.57974464      -1.63064345
H       -0.69539532      -0.86872500      -1.83552502
20
Frame=6 idx=005514 GeodesicLength=0.6858794433910754 rxn_smarts="[C:1]([C:2]([C:3]([C:4]([C:5]([H:15])([H:16])[H:17])([C:6]([H:18])([H:19])[H:20])[H:14])([H:12])[H:13])([H:10])[H:11])([H:7])([H:8])[H:9]>>[C:1](=[C:2]([C:3]([C:4]([C:5]([H:15])([H:16])[H:17])([C:6]([H:18])([H:19])[H:20])[H:14])([H:12])[H:13])[H:11])([H:7])[H:9].[H:8][H:10]"
C        2.80195387       0.39611031      -0.10920450
C        1.57783974      -0.29207066       0.15145167
C        0.31779652       0.50922743       0.36418868
C       -0.99903302      -0.26939107       0.25072072
C       -2.09330179       0.38928803       1.08646254
C       -1.44983033      -0.40548473      -1.20153201
H        2.76928946       1.36927253      -0.58349008
H        2.33919183      -0.76259846      -1.09485139
H        3.68914525       0.10305592       0.43469614
H        1.35673442      -1.32802243      -1.04468233
H        1.65398763      -1.12101930       0.85555295
H        0.30286635       1.37577537      -0.30441670
H        0.40764649       0.93437210       1.37092520
H       -0.83159896      -1.27623212       0.65282760
H       -3.03406675      -0.16018906       1.00911200
H       -1.81971120       0.43526761       2.14293046
H       -2.28060659       1.41209093       0.74625806
H       -2.35655850      -1.00967083      -1.27478827
H       -1.66555294       0.57786543      -1.63083420
H       -0.68619150      -0.87764698      -1.82132654
20
Frame=7 idx=005514 GeodesicLength=0.8013803287572425 rxn_smarts="[C:1]([C:2]([C:3]([C:4]([C:5]([H:15])([H:16])[H:17])([C:6]([H:18])([H:19])[H:20])[H:14])([H:12])[H:13])([H:10])[H:11])([H:7])([H:8])[H:9]>>[C:1](=[C:2]([C:3]([C:4]([C:5]([H:15])([H:16])[H:17])([C:6]([H:18])([H:19])[H:20])[H:14])([H:12])[H:13])[H:11])([H:7])[H:9].[H:8][H:10]"
C        2.79133630       0.39346247      -0.12883017
C        1.56933205      -0.29646883       0.13695379
C        0.31595414       0.50735852       0.38075323
C       -1.00267099      -0.26691274       0.26067595
C       -2.10157357       0.39790936       1.08526660
C       -1.44193032      -0.40667805      -1.19472307
H        2.75164594       1.37028970      -0.59640609
H        2.38696721      -0.79441964      -1.13054685
H        3.66840660       0.12698368       0.44500972
H        1.38568241      -1.33492920      -1.06840403
H        1.65136520      -1.12656186       0.84013086
H        0.29476230       1.38820967      -0.26899876
H        0.41112788       0.91279353       1.39513300
H       -0.84197172      -1.27269744       0.66831303
H       -3.04271062      -0.15047488       1.00413751
H       -1.83556567       0.44908415       2.14342600
H       -2.28501141       1.41917419       0.73839072
H       -2.35172250      -1.00554083      -1.27309146
H       -1.64668021       0.57613886      -1.63070581
H       -0.67674302      -0.88672067      -1.80648416
20
Frame=8 idx=005514 GeodesicLength=0.9176093086476471 rxn_smarts="[C:1]([C:2]([C:3]([C:4]([C:5]([H:15])([H:16])[H:17])([C:6]([H:18])([H:19])[H:20])[H:14])([H:12])[H:13])([H:10])[H:11])([H:7])([H:8])[H:9]>>[C:1](=[C:2]([C:3]([C:4]([C:5]([H:15])([H:16])[H:17])([C:6]([H:18])([H:19])[H:20])[H:14])([H:12])[H:13])[H:11])([H:7])[H:9].[H:8][H:10]"
C        2.77987155       0.39021979      -0.14929883
C        1.55991967      -0.30062222       0.12343494
C        0.31379662       0.50534549       0.39832349
C       -1.00666871      -0.26436234       0.27101531
C       -2.11025646       0.40679423       1.08398639
C       -1.43374388      -0.40780397      -1.18761788
H        2.73265483       1.37027592      -0.61091547
H        2.43865485      -0.82714910      -1.16570717
H        3.64647730       0.15101842       0.45262025
H        1.41720109      -1.33936988      -1.09281257
H        1.64813250      -1.13265891       0.82458786
H        0.28681300       1.40014713      -0.23213935
H        0.41412520       0.89050047       1.42009494
H       -0.85301237      -1.26907335       0.68416360
H       -3.05178090      -0.14039732       0.99879633
H       -1.85209596       0.46327664       2.14381084
H       -2.28950588       1.42647357       0.73030586
H       -2.34672427      -1.00098327      -1.27153315
H       -1.62683019       0.57445460      -1.63024017
H       -0.66702799      -0.89608591      -1.79087523
20
Frame=9 idx=005514 GeodesicLength=1.0338655474674896 rxn_smarts="[C:1]([C:2]([C:3]([C:4]([C:5]([H:15])([H:16])[H:17])([C:6]([H:18])([H:19])[H:20])[H:14])([H:12])[H:13])([H:10])[H:11])([H:7])([H:8])[H:9]>>[C:1](=[C:2]([C:3]([C:4]([C:5]([H:15])([H:16])[H:17])([C:6]([H:18])([H:19])[H:20])[H:14])([H:12])[H:13])[H:11])([H:7])[H:9].[H:8][H:10]"
C        2.76754608       0.38628588      -0.17056490
C        1.54965022      -0.30467841       0.11074958
C        0.31136421       0.50306645       0.41679345
C       -1.01103021      -0.26176532       0.28175804
C       -2.11927006       0.41611492       1.08257237
C       -1.42531137      -0.40911317      -1.18015316
H        2.71243682       1.36962957      -0.62594058
H        2.49378516      -0.85942696      -1.20115811
H        3.62333217       0.17454341       0.45761579
H        1.45144895      -1.34141872      -1.11759440
H        1.64419506      -1.13949070       0.80861812
H        0.27903138       1.41140704      -0.19402653
H        0.41671723       0.86745750       1.44563044
H       -0.86478309      -1.26531453       0.70054640
H       -3.06122600      -0.12973006       0.99312994
H       -1.86918731       0.47816138       2.14402416
H       -2.29393544       1.43410661       0.72181597
H       -2.34160867      -0.99619742      -1.26994228
H       -1.60601424       0.57248789      -1.62950774
H       -0.65714090      -0.90612536      -1.77436656
20
Frame=10 idx=005514 GeodesicLength=1.1503716032269917 rxn_smarts="[C:1]([C:2]([C:3]([C:4]([C:5]([H:15])([H:16])[H:17])([C:6]([H:18])([H:19])[H:20])[H:14])([H:12])[H:13])([H:10])[H:11])([H:7])([H:8])[H:9]>>[C:1](=[C:2]([C:3]([C:4]([C:5]([H:15])([H:16])[H:17])([C:6]([H:18])([H:19])[H:20])[H:14])([H:12])[H:13])[H:11])([H:7])[H:9].[H:8][H:10]"
C        2.75430650       0.38160333      -0.19258752
C        1.53843417      -0.30863101       0.09918644
C        0.30859671       0.50050698       0.43631079
C       -1.01581302      -0.25912708       0.29295679
C       -2.12870356       0.42589668       1.08094530
C       -1.41656762      -0.41063981      -1.17228203
H        2.69091275       1.36825958      -0.64147042
H        2.55213865      -0.89074676      -1.23736992
H        3.59944198       0.19709427       0.45922310
H        1.48874848      -1.34093148      -1.14252914
H        1.63954516      -1.14702373       0.79259727
H        0.27145539       1.42196105      -0.15454570
H        0.41875222       0.84365904       1.47188672
H       -0.87739870      -1.26142625       0.71753082
H       -3.07114183      -0.11843430       0.98700156
H       -1.88700848       0.49378579       2.14398216
H       -2.29832621       1.44209353       0.71280573
H       -2.33631118      -0.99120014      -1.26836521
H       -1.58405851       0.57018611      -1.62845180
H       -0.64700290      -0.91688580      -1.75682494
20
Frame=11 idx=005514 GeodesicLength=1.2668423928267687 rxn_smarts="[C:1]([C:2]([C:3]([C:4]([C:5]([H:15])([H:16])[H:17])([C:6]([H:18])([H:19])[H:20])[H:14])([H:12])[H:13])([H:10])[H:11])([H:7])([H:8])[H:9]>>[C:1](=[C:2]([C:3]([C:4]([C:5]([H:15])([H:16])[H:17])([C:6]([H:18])([H:19])[H:20])[H:14])([H:12])[H:13])[H:11])([H:7])[H:9].[H:8][H:10]"
C        2.74014404       0.37612973      -0.21520790
C        1.52628457      -0.31255871       0.08880768
C        0.30550109       0.49759780       0.45685817
C       -1.02103286      -0.25646579       0.30464330
C       -2.13853952       0.43626365       1.07901173
C       -1.40749277      -0.41259277      -1.16394148
H        2.66820964       1.36639111      -0.65670871
H        2.61290407      -0.91974048      -1.27558068
H        3.57515872       0.21791407       0.45730900
H        1.52934444      -1.33809490      -1.16714803
H        1.63412974      -1.15528305       0.77661595
H        0.26412375       1.43168433      -0.11381820
H        0.42019497       0.81913039       1.49880745
H       -0.89093368      -1.25736592       0.73526890
H       -3.08152925      -0.10635092       0.98035545
H       -1.90555858       0.51040174       2.14357188
H       -2.30258728       1.45050876       0.70305606
H       -2.33081571      -0.98617223      -1.26670221
H       -1.56088037       0.56726479      -1.62710939
H       -0.63662500      -0.92866159      -1.73808896
20
Frame=12 idx=005514 GeodesicLength=1.3829381249015247 rxn_smarts="[C:1]([C:2]([C:3]([C:4]([C:5]([H:15])([H:16])[H:17])([C:6]([H:18])([H:19])[H:20])[H:14])([H:12])[H:13])([H:10])[H:11])([H:7])([H:8])[H:9]>>[C:1](=[C:2]([C:3]([C:4]([C:5]([H:15])([H:16])[H:17])([C:6]([H:18])([H:19])[H:20])[H:14])([H:12])[H:13])[H:11])([H:7])[H:9].[H:8][H:10]"
C        2.72507526       0.36986470      -0.23819194
C        1.51323839      -0.31654409       0.07961171
C        0.30209901       0.49426919       0.47836529
C       -1.02669353      -0.25379939       0.31682246
C       -2.14872796       0.44733556       1.07666682
C       -1.39809119      -0.41518625      -1.15507925
H        2.64453415       1.36426129      -0.67080218
H        2.67514711      -0.94490143      -1.31719909
H        3.55084503       0.23625516       0.45194673
H        1.57335868      -1.33331913      -1.19083818
H        1.62791203      -1.16424121       0.76079514
H        0.25707271       1.44045753      -0.07202977
H        0.42102608       0.79392029       1.52628017
H       -0.90544316      -1.25308843       0.75388618
H       -3.09235676      -0.09333024       0.97314538
H       -1.92478224       0.52825667       2.14266272
H       -2.30659863       1.45941572       0.69234385
H       -2.32512477      -0.98130636      -1.26484918
H       -1.53643234       0.56342651      -1.62551494
H       -0.62605788      -0.94174611      -1.71802193
20
Frame=13 idx=005514 GeodesicLength=1.4984554785541897 rxn_smarts="[C:1]([C:2]([C:3]([C:4]([C:5]([H:15])([H:16])[H:17])([C:6]([H:18])([H:19])[H:20])[H:14])([H:12])[H:13])([H:10])[H:11])([H:7])([H:8])[H:9]>>[C:1](=[C:2]([C:3]([C:4]([C:5]([H:15])([H:16])[H:17])([C:6]([H:18])([H:19])[H:20])[H:14])([H:12])[H:13])[H:11])([H:7])[H:9].[H:8][H:10]"
C        2.70916750       0.36282541      -0.26122466
C        1.49935799      -0.32067706       0.07161333
C        0.29841976       0.49046310       0.50073470
C       -1.03278621      -0.25114620       0.32948772
C       -2.15920302       0.45923153       1.07378792
C       -1.38836207      -0.41866168      -1.14564673
H        2.62020221       1.36210053      -0.68282264
H        2.73769943      -0.96452147      -1.36399531
H        3.52686975       0.25131916       0.44336770
H        1.62085476      -1.32717849      -1.21281253
H        1.62086382      -1.17383298       0.74532524
H        0.25034112       1.44816711      -0.02941927
H        0.42122016       0.76812503       1.55417084
H       -0.92096510      -1.24853739       0.77350811
H       -3.10357926      -0.07922515       0.96531707
H       -1.94460711       0.54761669       2.14110058
H       -2.31023138       1.46886854       0.68041473
H       -2.31923503      -0.97683639      -1.26269256
H       -1.51067762       0.55834663      -1.62372291
H       -0.61534969      -0.95644690      -1.69649133
20
Frame=14 idx=005514 GeodesicLength=1.613134353433964 rxn_smarts="[C:1]([C:2]([C:3]([C:4]([C:5]([H:15])([H:16])[H:17])([C:6]([H:18])([H:19])[H:20])[H:14])([H:12])[H:13])([H:10])[H:11])([H:7])([H:8])[H:9]>>[C:1](=[C:2]([C:3]([C:4]([C:5]([H:15])([H:16])[H:17])([C:6]([H:18])([H:19])[H:20])[H:14])([H:12])[H:13])[H:11])([H:7])[H:9].[H:8][H:10]"
C        2.69252839       0.35503934      -0.28397080
C        1.48472358      -0.32505759       0.06478563
C        0.29450381       0.48612648       0.52382657
C       -1.03928924      -0.24852523       0.34260133
C       -2.16986901       0.47204896       1.07024526
C       -1.37833818      -0.42323560      -1.13561469
H        2.59559947       1.36008412      -0.69191248
H        2.79924310      -0.97688391      -1.41764368
H        3.50359181       0.26242641       0.43196893
H        1.67185770      -1.32038041      -1.23222299
H        1.61297003      -1.18395712       0.73044592
H        0.24396789       1.45471665       0.01372974
H        0.42076359       0.74186467       1.58230889
H       -0.93751759      -1.24365563       0.79420581
H       -3.11511828      -0.06391727       0.95681982
H       -1.96490247       0.56870740       2.13871586
H       -2.31333451       1.47889541       0.66703925
H       -2.31316734      -0.97297923      -1.26013387
H       -1.48362484       0.55171505      -1.62178671
H       -0.60458791      -0.97303249      -1.67340779
20
Frame=15 idx=005514 GeodesicLength=1.727222039885206 rxn_smarts="[C:1]([C:2]([C:3]([C:4]([C:5]([H:15])([H:16])[H:17])([C:6]([H:18])([H:19])[H:20])[H:14])([H:12])[H:13])([H:10])[H:11])([H:7])([H:8])[H:9]>>[C:1](=[C:2]([C:3]([C:4]([C:5]([H:15])([H:16])[H:17])([C:6]([H:18])([H:19])[H:20])[H:14])([H:12])[H:13])[H:11])([H:7])[H:9].[H:8][H:10]"
C        2.67527909       0.34655068      -0.30606915
C        1.46943376      -0.32977070       0.05910762
C        0.29039174       0.48122707       0.54749330
C       -1.04617423      -0.24594673       0.35610836
C       -2.18062605       0.48585688       1.06591748
C       -1.36805521      -0.42908673      -1.12496934
H        2.57113418       1.35830970      -0.69738090
H        2.85855572      -0.98045825      -1.47982944
H        3.48130516       0.26906565       0.41829343
H        1.72630884      -1.31373114      -1.24816665
H        1.60423126      -1.19449137       0.71642152
H        0.23798417       1.46004282       0.05713148
H        0.41963731       0.71528223       1.61053049
H       -0.95509986      -1.23838502       0.81601098
H       -3.12689108      -0.04731851       0.94760122
H       -1.98553252       0.59170365       2.13534918
H       -2.31576673       1.48950161       0.65202028
H       -2.30694483      -0.96992677      -1.25709594
H       -1.45530922       0.54327701      -1.61975651
H       -0.59386149      -0.99170209      -1.64871742
20
Frame=16 idx=005514 GeodesicLength=1.8414045423875633 rxn_smarts="[C:1]([C:2]([C:3]([C:4]([C:5]([H:15])([H:16])[H:17])([C:6]([H:18])([H:19])[H:20])[H:14])([H:12])[H:13])([H:10])[H:11])([H:7])([H:8])[H:9]>>[C:1](=[C:2]([C:3]([C:4]([C:5]([H:15])([H:16])[H:17])([C:6]([H:18])([H:19])[H:20])[H:14])([H:12])[H:13])[H:11])([H:7])[H:9].[H:8][H:10]"
C        2.65755784       0.33740210      -0.32716781
C        1.45359272      -0.33490086       0.05455805
C        0.28612042       0.47574380       0.57158774
C       -1.05341040      -0.24341650       0.36994076
C       -2.19136807       0.50070511       1.06068725
C       -1.35756120      -0.43635801      -1.11370991
H        2.54720589       1.35680618      -0.69871041
H        2.91449073      -0.97390247      -1.55208512
H        3.46025210       0.27089307       0.40297604
H        1.78413678      -1.30804184      -1.25977331
H        1.59465811      -1.20531975       0.70352462
H        0.23241264       1.46410943       0.10051783
H        0.41781876       0.68852140       1.63868806
H       -0.97370431      -1.23266649       0.83891596
H       -3.13880566      -0.02936283       0.93760279
H       -2.00634593       0.61673936       2.13084214
H       -2.31738657       1.50067422       0.63519050
H       -2.30060014      -0.96783761      -1.25352185
H       -1.42578683       0.53281550      -1.61767340
H       -0.58327687      -1.01260379      -1.62238993
