14
Frame=0 idx=005974 GeodesicLength=0.0 rxn_smarts="[O:1]([C@@:2]1([H:8])[C:3]([H:9])([H:10])[C:4]([H:11])([H:12])[C:5]([H:13])=[C:6]1[H:14])[H:7]>>[C:2]1([H:8])=[C:6]([H:14])[C:5]([H:13])=[C:4]([H:11])[C:3]1([H:9])[H:10].[O:1]([H:7])[H:12]"
O        0.39304701      -0.97687538       1.48763613
C        0.77884781      -0.63704121      -0.40478228
C       -0.67505938      -0.80942042      -0.68497465
C       -1.16183395       0.43628648       0.06455832
C       -0.12476116       1.38515249      -0.13139015
C        1.06616110       0.74779752      -0.42718629
H        1.08136199      -0.47036208       1.92311300
H        1.50563745      -1.42227940      -0.56213735
H       -0.85383001      -0.70656337      -1.76178697
H       -1.07598126      -1.75696477      -0.33229942
H       -2.20546328       0.72593250       0.07378234
H       -0.54941103      -0.15528771       1.14555681
H       -0.22916814       2.44888497       0.04771938
H        2.05045279       1.19074038      -0.43780885
14
Frame=1 idx=005974 GeodesicLength=0.06791894897178243 rxn_smarts="[O:1]([C@@:2]1([H:8])[C:3]([H:9])([H:10])[C:4]([H:11])([H:12])[C:5]([H:13])=[C:6]1[H:14])[H:7]>>[C:2]1([H:8])=[C:6]([H:14])[C:5]([H:13])=[C:4]([H:11])[C:3]1([H:9])[H:10].[O:1]([H:7])[H:12]"
O        0.39938870      -0.98387577       1.49879065
C        0.78155743      -0.63962144      -0.40123375
C       -0.67424041      -0.80740344      -0.68753912
C       -1.16285302       0.43703830       0.06319350
C       -0.12514108       1.38623453      -0.13300168
C        1.06608368       0.74661098      -0.42832187
H        1.08459257      -0.46008819       1.91832705
H        1.50674497      -1.42242738      -0.57670781
H       -0.85512818      -0.71263184      -1.76433410
H       -1.07667147      -1.75380502      -0.33246123
H       -2.20631087       0.72776226       0.05797267
H       -0.56254054      -0.15575403       1.16687985
H       -0.22588098       2.44811667       0.05839961
H        2.05039920       1.18984437      -0.43996376
14
Frame=2 idx=005974 GeodesicLength=0.1358390609380189 rxn_smarts="[O:1]([C@@:2]1([H:8])[C:3]([H:9])([H:10])[C:4]([H:11])([H:12])[C:5]([H:13])=[C:6]1[H:14])[H:7]>>[C:2]1([H:8])=[C:6]([H:14])[C:5]([H:13])=[C:4]([H:11])[C:3]1([H:9])[H:10].[O:1]([H:7])[H:12]"
O        0.40586652      -0.99080152       1.50999966
C        0.78435382      -0.64222376      -0.39778230
C       -0.67334541      -0.80536808      -0.69017991
C       -1.16377385       0.43775566       0.06188742
C       -0.12547384       1.38732110      -0.13473289
C        1.06605529       0.74541150      -0.42956122
H        1.08727971      -0.44989606       1.91352556
H        1.50775122      -1.42233582      -0.59149447
H       -0.85650227      -0.71872375      -1.76687142
H       -1.07723154      -1.75060705      -0.33259495
H       -2.20689086       0.72947711       0.04248294
H       -0.57591876      -0.15614563       1.18845171
H       -0.22257413       2.44721405       0.06886718
H        2.05040410       1.18892226      -0.44199731
14
Frame=3 idx=005974 GeodesicLength=0.20375793796874092 rxn_smarts="[O:1]([C@@:2]1([H:8])[C:3]([H:9])([H:10])[C:4]([H:11])([H:12])[C:5]([H:13])=[C:6]1[H:14])[H:7]>>[C:2]1([H:8])=[C:6]([H:14])[C:5]([H:13])=[C:4]([H:11])[C:3]1([H:9])[H:10].[O:1]([H:7])[H:12]"
O        0.41248447      -0.99765771       1.52126037
C        0.78723936      -0.64484932      -0.39443410
C       -0.67237341      -0.80331396      -0.69290109
C       -1.16459364       0.43843741       0.06063889
C       -0.12575796       1.38841182      -0.13658771
C        1.06607846       0.74419819      -0.43090284
H        1.08942178      -0.43978915       1.90870819
H        1.50865407      -1.42200200      -0.60649029
H       -0.85795381      -0.72483809      -1.76940073
H       -1.07765984      -1.74737025      -0.33270494
H       -2.20721163       0.73107403       0.02732536
H       -0.58955168      -0.15645571       1.21028253
H       -0.21924652       2.44618092       0.07911130
H        2.05047037       1.18797382      -0.44390494
14
Frame=4 idx=005974 GeodesicLength=0.27167133636856367 rxn_smarts="[O:1]([C@@:2]1([H:8])[C:3]([H:9])([H:10])[C:4]([H:11])([H:12])[C:5]([H:13])=[C:6]1[H:14])[H:7]>>[C:2]1([H:8])=[C:6]([H:14])[C:5]([H:13])=[C:4]([H:11])[C:3]1([H:9])[H:10].[O:1]([H:7])[H:12]"
O        0.41924450      -1.00445245       1.53256997
C        0.79021638      -0.64749941      -0.39119476
C       -0.67132348      -0.80124053      -0.69570699
C       -1.16530976       0.43908180       0.05944830
C       -0.12599205       1.38950595      -0.13856849
C        1.06615575       0.74296997      -0.43234341
H        1.09102097      -0.42976934       1.90387343
H        1.50945172      -1.42142407      -0.62168586
H       -0.85948392      -0.73097211      -1.77192398
H       -1.07795490      -1.74409415      -0.33279771
H       -2.20728267       0.73255003       0.01251136
H       -0.60344546      -0.15667638       1.23238281
H       -0.21589757       2.44502174       0.08911911
H        2.05060049       1.18699896      -0.44568377
14
Frame=5 idx=005974 GeodesicLength=0.3395786935869308 rxn_smarts="[O:1]([C@@:2]1([H:8])[C:3]([H:9])([H:10])[C:4]([H:11])([H:12])[C:5]([H:13])=[C:6]1[H:14])[H:7]>>[C:2]1([H:8])=[C:6]([H:14])[C:5]([H:13])=[C:4]([H:11])[C:3]1([H:9])[H:10].[O:1]([H:7])[H:12]"
O        0.42615147      -1.01119366       1.54392526
C        0.79328685      -0.65017507      -0.38807034
C       -0.67019500      -0.79914747      -0.69860134
C       -1.16591961       0.43968802       0.05831454
C       -0.12617490       1.39060328      -0.14067890
C        1.06628958       0.74172607      -0.43388035
H        1.09207891      -0.41983746       1.89901963
H        1.51014264      -1.42060053      -0.63707219
H       -0.86109419      -0.73712484      -1.77444238
H       -1.07811566      -1.74077817      -0.33287694
H       -2.20711421       0.73390393      -0.00195371
H       -0.61760664      -0.15680210       1.25476422
H       -0.21252597       2.44374035       0.09888447
H        2.05079673       1.18599767      -0.44733197
14
Frame=6 idx=005974 GeodesicLength=0.4074806056218468 rxn_smarts="[O:1]([C@@:2]1([H:8])[C:3]([H:9])([H:10])[C:4]([H:11])([H:12])[C:5]([H:13])=[C:6]1[H:14])[H:7]>>[C:2]1([H:8])=[C:6]([H:14])[C:5]([H:13])=[C:4]([H:11])[C:3]1([H:9])[H:10].[O:1]([H:7])[H:12]"
O        0.43321240      -1.01788767       1.55532224
C        0.79645333      -0.65287644      -0.38506833
C       -0.66898712      -0.79703427      -0.70158733
C       -1.16642049       0.44025516       0.05723660
C       -0.12630540       1.39170379      -0.14292173
C        1.06648245       0.74046677      -0.43551091
H        1.09259315      -0.41000671       1.89414323
H        1.51072632      -1.41952932      -0.65263992
H       -0.86278668      -0.74329539      -1.77695663
H       -1.07813954      -1.73742181      -0.33294646
H       -2.20671448       0.73513299      -0.01605749
H       -0.63204242      -0.15682063       1.27743922
H       -0.20913308       2.44234267       0.10838961
H        2.05106156       1.18497085      -0.44884211
14
Frame=7 idx=005974 GeodesicLength=0.47537605647379627 rxn_smarts="[O:1]([C@@:2]1([H:8])[C:3]([H:9])([H:10])[C:4]([H:11])([H:12])[C:5]([H:13])=[C:6]1[H:14])[H:7]>>[C:2]1([H:8])=[C:6]([H:14])[C:5]([H:13])=[C:4]([H:11])[C:3]1([H:9])[H:10].[O:1]([H:7])[H:12]"
O        0.44043281      -1.02454284       1.56675723
C        0.79971790      -0.65560417      -0.38219545
C       -0.66769914      -0.79490069      -0.70466849
C       -1.16680984       0.44078214       0.05621394
C       -0.12638271       1.39280733      -0.14530119
C        1.06673671       0.73919179      -0.43723292
H        1.09256483      -0.40027967       1.88924049
H        1.51120301      -1.41821060      -0.66837772
H       -0.86456314      -0.74948284      -1.77946759
H       -1.07802484      -1.73402482      -0.33301023
H       -2.20609351       0.73623599      -0.02979496
H       -0.64676152      -0.15672370       1.30041999
H       -0.20571734       2.44083306       0.11763010
H        2.05139680       1.18391902      -0.45021321
14
Frame=8 idx=005974 GeodesicLength=0.5432659655668602 rxn_smarts="[O:1]([C@@:2]1([H:8])[C:3]([H:9])([H:10])[C:4]([H:11])([H:12])[C:5]([H:13])=[C:6]1[H:14])[H:7]>>[C:2]1([H:8])=[C:6]([H:14])[C:5]([H:13])=[C:4]([H:11])[C:3]1([H:9])[H:10].[O:1]([H:7])[H:12]"
O        0.44782304      -1.03116608       1.57822581
C        0.80308316      -0.65835799      -0.37946064
C       -0.66633051      -0.79274628      -0.70784723
C       -1.16708489       0.44126813       0.05524624
C       -0.12640594       1.39391404      -0.14781948
C        1.06705485       0.73790207      -0.43904333
H        1.09199122      -0.39067281       1.88430640
H        1.51157311      -1.41664308      -0.68427470
H       -0.86642665      -0.75568635      -1.78197483
H       -1.07776884      -1.73058685      -0.33307046
H       -2.20526055       0.73721125      -0.04315869
H       -0.66177203      -0.15649806       1.32371960
H       -0.20228057       2.43921829       0.12658895
H        2.05180459       1.18284373      -0.45143766
14
Frame=9 idx=005974 GeodesicLength=0.6111572123344865 rxn_smarts="[O:1]([C@@:2]1([H:8])[C:3]([H:9])([H:10])[C:4]([H:11])([H:12])[C:5]([H:13])=[C:6]1[H:14])[H:7]>>[C:2]1([H:8])=[C:6]([H:14])[C:5]([H:13])=[C:4]([H:11])[C:3]1([H:9])[H:10].[O:1]([H:7])[H:12]"
O        0.45539271      -1.03776451       1.58972340
C        0.80655089      -0.66113725      -0.37687196
C       -0.66488109      -0.79057110      -0.71112714
C       -1.16724403       0.44171355       0.05432853
C       -0.12637520       1.39502445      -0.15048209
C        1.06743854       0.73659849      -0.44093959
H        1.09087060      -0.38120072       1.87933428
H        1.51183805      -1.41482731      -0.70031869
H       -0.86837887      -0.76190790      -1.78447890
H       -1.07736926      -1.72710752      -0.33312822
H       -2.20422570       0.73805736      -0.05614534
H       -0.67707952      -0.15612826       1.34735548
H       -0.19882302       2.43750429       0.13526137
H        2.05228588       1.18174644      -0.45251114
14
Frame=10 idx=005974 GeodesicLength=0.6790478941301563 rxn_smarts="[O:1]([C@@:2]1([H:8])[C:3]([H:9])([H:10])[C:4]([H:11])([H:12])[C:5]([H:13])=[C:6]1[H:14])[H:7]>>[C:2]1([H:8])=[C:6]([H:14])[C:5]([H:13])=[C:4]([H:11])[C:3]1([H:9])[H:10].[O:1]([H:7])[H:12]"
O        0.46315524      -1.04434500       1.60124470
C        0.81012357      -0.66394147      -0.37443898
C       -0.66335037      -0.78837461      -0.71451010
C       -1.16728409       0.44211758       0.05346209
C       -0.12628949       1.39613900      -0.15329194
C        1.06789041       0.73528245      -0.44291940
H        1.08919700      -0.37187884       1.87431928
H        1.51199994      -1.41276393      -0.71649918
H       -0.87042329      -0.76814629      -1.78697850
H       -1.07682266      -1.72358651      -0.33318574
H       -2.20299709       0.73877336      -0.06874720
H       -0.69269580      -0.15560260       1.37134004
H       -0.19534619       2.43569814       0.14363098
H        2.05284282       1.18062872      -0.45342607
14
Frame=11 idx=005974 GeodesicLength=0.7469380835322926 rxn_smarts="[O:1]([C@@:2]1([H:8])[C:3]([H:9])([H:10])[C:4]([H:11])([H:12])[C:5]([H:13])=[C:6]1[H:14])[H:7]>>[C:2]1([H:8])=[C:6]([H:14])[C:5]([H:13])=[C:4]([H:11])[C:3]1([H:9])[H:10].[O:1]([H:7])[H:12]"
O        0.47112278      -1.05091384       1.61278489
C        0.81380350      -0.66676938      -0.37217165
C       -0.66173824      -0.78615655      -0.71799873
C       -1.16720257       0.44247979       0.05264574
C       -0.12614869       1.39725817      -0.15625319
C        1.06841263       0.73395567      -0.44498125
H        1.08696593      -0.36272517       1.86925350
H        1.51206202      -1.41045502      -0.73280300
H       -0.87256307      -0.77440178      -1.78947285
H       -1.07612619      -1.72002358      -0.33324394
H       -2.20158399       0.73935886      -0.08096142
H       -0.70862888      -0.15490649       1.39568972
H       -0.19185186       2.43380655       0.15168841
H        2.05347663       1.17949277      -0.45417622
14
Frame=12 idx=005974 GeodesicLength=0.81482849410029 rxn_smarts="[O:1]([C@@:2]1([H:8])[C:3]([H:9])([H:10])[C:4]([H:11])([H:12])[C:5]([H:13])=[C:6]1[H:14])[H:7]>>[C:2]1([H:8])=[C:6]([H:14])[C:5]([H:13])=[C:4]([H:11])[C:3]1([H:9])[H:10].[O:1]([H:7])[H:12]"
O        0.47930807      -1.05748220       1.62433717
C        0.81759259      -0.66962040      -0.37007836
C       -0.66004465      -0.78391642      -0.72159535
C       -1.16699718       0.44279937       0.05187915
C       -0.12595288       1.39838201      -0.15936779
C        1.06900704       0.73261958      -0.44712046
H        1.08417684      -0.35375788       1.86412970
H        1.51202759      -1.40790281      -0.74921784
H       -0.87480007      -0.78067351      -1.79196091
H       -1.07527685      -1.71641876      -0.33330586
H       -2.19999553       0.73981232      -0.09278430
H       -0.72488993      -0.15401921       1.42042067
H       -0.18834301       2.43183737       0.15941957
H        2.05418796       1.17834055      -0.45475540
14
Frame=13 idx=005974 GeodesicLength=0.8827226748800392 rxn_smarts="[O:1]([C@@:2]1([H:8])[C:3]([H:9])([H:10])[C:4]([H:11])([H:12])[C:5]([H:13])=[C:6]1[H:14])[H:7]>>[C:2]1([H:8])=[C:6]([H:14])[C:5]([H:13])=[C:4]([H:11])[C:3]1([H:9])[H:10].[O:1]([H:7])[H:12]"
O        0.48772881      -1.06405534       1.63589671
C        0.82149296      -0.67249233      -0.36817000
C       -0.65826982      -0.78165410      -0.72530147
C       -1.16666603       0.44307679       0.05115922
C       -0.12570244       1.39951163      -0.16264025
C        1.06967535       0.73127697      -0.44933573
H        1.08082210      -0.34500292       1.85893796
H        1.51190161      -1.40511039      -0.76573293
H       -0.87713757      -0.78696405      -1.79444053
H       -1.07427105      -1.71277185      -0.33336941
H       -2.19824147       0.74013407      -0.10421652
H       -0.74148808      -0.15292197       1.44555140
H       -0.18482175       2.42979866       0.16681597
H        2.05497741       1.17717482      -0.45515442
14
Frame=14 idx=005974 GeodesicLength=0.9506188951789815 rxn_smarts="[O:1]([C@@:2]1([H:8])[C:3]([H:9])([H:10])[C:4]([H:11])([H:12])[C:5]([H:13])=[C:6]1[H:14])[H:7]>>[C:2]1([H:8])=[C:6]([H:14])[C:5]([H:13])=[C:4]([H:11])[C:3]1([H:9])[H:10].[O:1]([H:7])[H:12]"
O        0.49640077      -1.07064358       1.64745612
C        0.82550662      -0.67538391      -0.36645685
C       -0.65641395      -0.77936921      -0.72911962
C       -1.16620634       0.44331139       0.05048617
C       -0.12539735       1.40064698      -0.16607273
C        1.07041979       0.72992995      -0.45162387
H        1.07689537      -0.33648132       1.85367079
H        1.51168933      -1.40208177      -0.78233660
H       -0.87957810      -0.79327220      -1.79691041
H       -1.07310541      -1.70908277      -0.33343699
H       -2.19632922       0.74032259      -0.11525276
H       -0.75843482      -0.15159372       1.47110011
H       -0.18129244       2.42769961       0.17386136
H        2.05584576       1.17599795      -0.45536470
14
Frame=15 idx=005974 GeodesicLength=1.01851614179942 rxn_smarts="[O:1]([C@@:2]1([H:8])[C:3]([H:9])([H:10])[C:4]([H:11])([H:12])[C:5]([H:13])=[C:6]1[H:14])[H:7]>>[C:2]1([H:8])=[C:6]([H:14])[C:5]([H:13])=[C:4]([H:11])[C:3]1([H:9])[H:10].[O:1]([H:7])[H:12]"
O        0.50534317      -1.07725398       1.65900932
C        0.82963586      -0.67829316      -0.36495004
C       -0.65447718      -0.77706170      -0.73305149
C       -1.16561608       0.44350266       0.04985853
C       -0.12503825       1.40178837      -0.16966787
C        1.07124203       0.72858130      -0.45398169
H        1.07238888      -0.32822349       1.84831805
H        1.51139672      -1.39882061      -0.79901897
H       -0.88212446      -0.79959938      -1.79936800
H       -1.07177566      -1.70535191      -0.33350830
H       -2.19426715       0.74037704      -0.12589165
H       -0.77574153      -0.15000762       1.49708526
H       -0.17775933       2.42554959       0.18054255
H        2.05679298       1.17481290      -0.45537569
14
Frame=16 idx=005974 GeodesicLength=1.08641501188099 rxn_smarts="[O:1]([C@@:2]1([H:8])[C:3]([H:9])([H:10])[C:4]([H:11])([H:12])[C:5]([H:13])=[C:6]1[H:14])[H:7]>>[C:2]1([H:8])=[C:6]([H:14])[C:5]([H:13])=[C:4]([H:11])[C:3]1([H:9])[H:10].[O:1]([H:7])[H:12]"
O        0.51457789      -1.08389297       1.67055053
C        0.83388245      -0.68121795      -0.36366058
C       -0.65246009      -0.77473162      -0.73709847
C       -1.16489359       0.44365098       0.04927315
C       -0.12462582       1.40293637      -0.17342914
C        1.07214361       0.72723401      -0.45640692
H        1.06729218      -0.32025874       1.84286897
H        1.51103028      -1.39533142      -0.81577220
H       -0.88477912      -0.80594816      -1.80181050
H       -1.07027767      -1.70157939      -0.33358194
H       -2.19206379       0.74029715      -0.13613432
H       -0.79341926      -0.14813807       1.52352742
H       -0.17422595       2.42335750       0.18685009
H        2.05781889       1.17362231      -0.45517610
