14
Frame=0 idx=011727 GeodesicLength=0.0 rxn_smarts="[C:1]([C@@:2]12[C@:3]3([H:11])[C@@:4]4([H:12])[C@:5]3([H:13])[N:6]1[C@@:7]24[H:14])([H:8])([H:9])[H:10]>>[C:1]([C@@:2]12[C@:3]3([H:11])[C@@:4]([H:12])([C@:5]3([H:13])[N:6]1[H:14])[C:7]2)([H:8])([H:9])[H:10]"
C        1.98330430       0.14793656      -0.18182786
C        0.50858135       0.12623414       0.00489524
C       -0.65975521      -0.14416081      -0.98098006
C       -1.55284186       0.62316304      -0.03576572
C       -1.33261956      -0.83493963       0.16300032
N       -0.11869077      -0.73194519       1.04237346
C       -0.34471485       1.02358249       0.85831161
H        2.26304457       0.95406113      -0.86196388
H        2.34490453      -0.79792072      -0.58975599
H        2.46792332       0.32517667       0.77961632
H       -0.72300624      -0.33890177      -2.03850691
H       -2.48020226       1.14442470      -0.21508930
H       -2.01956647      -1.66739641       0.19570481
H       -0.33636084       0.17068578       1.85998791
14
Frame=1 idx=011727 GeodesicLength=0.0552854059742734 rxn_smarts="[C:1]([C@@:2]12[C@:3]3([H:11])[C@@:4]4([H:12])[C@:5]3([H:13])[N:6]1[C@@:7]24[H:14])([H:8])([H:9])[H:10]>>[C:1]([C@@:2]12[C@:3]3([H:11])[C@@:4]([H:12])([C@:5]3([H:13])[N:6]1[H:14])[C:7]2)([H:8])([H:9])[H:10]"
C        1.98483044       0.14433098      -0.18106615
C        0.51031893       0.12208399       0.00505154
C       -0.65952260      -0.14032226      -0.97894387
C       -1.56039417       0.61969024      -0.03239102
C       -1.33009917      -0.83770896       0.16345522
N       -0.12009735      -0.73015320       1.04550647
C       -0.34716140       1.02766382       0.84124936
H        2.26461010       0.95220558      -0.85902626
H        2.34486908      -0.80158767      -0.59014291
H        2.47037201       0.31865816       0.78048049
H       -0.72399709      -0.32307244      -2.03856571
H       -2.48890806       1.13726877      -0.21579576
H       -2.01500497      -1.67203924       0.19208596
H       -0.32981575       0.18298224       1.86810263
14
Frame=2 idx=011727 GeodesicLength=0.1105628438100778 rxn_smarts="[C:1]([C@@:2]12[C@:3]3([H:11])[C@@:4]4([H:12])[C@:5]3([H:13])[N:6]1[C@@:7]24[H:14])([H:8])([H:9])[H:10]>>[C:1]([C@@:2]12[C@:3]3([H:11])[C@@:4]([H:12])([C@:5]3([H:13])[N:6]1[H:14])[C:7]2)([H:8])([H:9])[H:10]"
C        1.98630379       0.14078029      -0.18029458
C        0.51200221       0.11795299       0.00523133
C       -0.65930001      -0.13657140      -0.97693651
C       -1.56782195       0.61621137      -0.02901640
C       -1.32762570      -0.84045498       0.16388495
N       -0.12153214      -0.72841300       1.04858304
C       -0.34963956       1.03150928       0.82416165
H        2.26609327       0.95042949      -0.85605027
H        2.34481378      -0.80517118      -0.59054792
H        2.47276019       0.31218242       0.78135104
H       -0.72498225      -0.30735273      -2.03851058
H       -2.49740653       1.13018684      -0.21654490
H       -2.01053753      -1.67659034       0.18846873
H       -0.32312755       0.19530093       1.87622042
14
Frame=3 idx=011727 GeodesicLength=0.16582905987287072 rxn_smarts="[C:1]([C@@:2]12[C@:3]3([H:11])[C@@:4]4([H:12])[C@:5]3([H:13])[N:6]1[C@@:7]24[H:14])([H:8])([H:9])[H:10]>>[C:1]([C@@:2]12[C@:3]3([H:11])[C@@:4]([H:12])([C@:5]3([H:13])[N:6]1[H:14])[C:7]2)([H:8])([H:9])[H:10]"
C        1.98772264       0.13729548      -0.17951460
C        0.51362953       0.11384220       0.00543502
C       -0.65908502      -0.13291815      -0.97496198
C       -1.57511307       0.61273634      -0.02564681
C       -1.32520728      -0.84317466       0.16428950
N       -0.12299324      -0.72674109       1.05159335
C       -0.35214713       1.03510964       0.80706727
H        2.26748474       0.94874227      -0.85304229
H        2.34474498      -0.80865896      -0.59096856
H        2.47508654       0.30577026       0.78222462
H       -0.72595854      -0.29177897      -2.03834339
H       -2.50567846       1.12320176      -0.21734598
H       -2.00618991      -1.68103360       0.18486119
H       -0.31629578       0.20760748       1.88435266
14
Frame=4 idx=011727 GeodesicLength=0.22107650339050372 rxn_smarts="[C:1]([C@@:2]12[C@:3]3([H:11])[C@@:4]4([H:12])[C@:5]3([H:13])[N:6]1[C@@:7]24[H:14])([H:8])([H:9])[H:10]>>[C:1]([C@@:2]12[C@:3]3([H:11])[C@@:4]([H:12])([C@:5]3([H:13])[N:6]1[H:14])[C:7]2)([H:8])([H:9])[H:10]"
C        1.98908497       0.13388672      -0.17872811
C        0.51519917       0.10975187       0.00566239
C       -0.65887455      -0.12937191      -0.97302168
C       -1.58225719       0.60927397      -0.02228854
C       -1.32285152      -0.84586432       0.16466826
N       -0.12447911      -0.72515378       1.05452779
C       -0.35468198       1.03845668       0.78998576
H        2.26877478       0.94715193      -0.85000891
H        2.34466896      -0.81203921      -0.59140276
H        2.47734898       0.29944181       0.78309701
H       -0.72692087      -0.27638510      -2.03806317
H       -2.51370710       1.11633419      -0.21820933
H       -2.00198630      -1.68535178       0.18127030
H       -0.30931824       0.21986895       1.89251099
14
Frame=5 idx=011727 GeodesicLength=0.27630901844138656 rxn_smarts="[C:1]([C@@:2]12[C@:3]3([H:11])[C@@:4]4([H:12])[C@:5]3([H:13])[N:6]1[C@@:7]24[H:14])([H:8])([H:9])[H:10]>>[C:1]([C@@:2]12[C@:3]3([H:11])[C@@:4]([H:12])([C@:5]3([H:13])[N:6]1[H:14])[C:7]2)([H:8])([H:9])[H:10]"
C        1.99039004       0.13055908      -0.17793541
C        0.51670988       0.10568691       0.00591303
C       -0.65866702      -0.12594087      -0.97112097
C       -1.58924791       0.60583242      -0.01894667
C       -1.32056253      -0.84852250       0.16502358
N       -0.12598732      -0.72365633       1.05738258
C       -0.35724339       1.04155262       0.77292573
H        2.26996212       0.94566523      -0.84694922
H        2.34458610      -0.81530626      -0.59185246
H        2.47954857       0.29320023       0.78396818
H       -0.72786973      -0.26118834      -2.03767878
H       -2.52148751       1.10959153      -0.21914025
H       -1.99793802      -1.68954069       0.17770295
H       -0.30219328       0.23206696       1.90070771
14
Frame=6 idx=011727 GeodesicLength=0.3315274731424926 rxn_smarts="[C:1]([C@@:2]12[C@:3]3([H:11])[C@@:4]4([H:12])[C@:5]3([H:13])[N:6]1[C@@:7]24[H:14])([H:8])([H:9])[H:10]>>[C:1]([C@@:2]12[C@:3]3([H:11])[C@@:4]([H:12])([C@:5]3([H:13])[N:6]1[H:14])[C:7]2)([H:8])([H:9])[H:10]"
C        1.99163714       0.12731684      -0.17713719
C        0.51816063       0.10165247       0.00618618
C       -0.65846036      -0.12263267      -0.96926409
C       -1.59608021       0.60241938      -0.01562653
C       -1.31834359      -0.85114729       0.16535751
N       -0.12751539      -0.72225340       1.06015378
C       -0.35983082       1.04439924       0.75589558
H        2.27104595       0.94428753      -0.84386175
H        2.34449666      -0.81845454      -0.59232039
H        2.48168598       0.28704700       0.78483690
H       -0.72880399      -0.24620413      -2.03719687
H       -2.52901694       1.10297916      -0.22014339
H       -1.99405454      -1.69359557       0.17416534
H       -0.29492053       0.24418597       1.90895492
14
Frame=7 idx=011727 GeodesicLength=0.3867243388741715 rxn_smarts="[C:1]([C@@:2]12[C@:3]3([H:11])[C@@:4]4([H:12])[C@:5]3([H:13])[N:6]1[C@@:7]24[H:14])([H:8])([H:9])[H:10]>>[C:1]([C@@:2]12[C@:3]3([H:11])[C@@:4]([H:12])([C@:5]3([H:13])[N:6]1[H:14])[C:7]2)([H:8])([H:9])[H:10]"
C        1.99282478       0.12416947      -0.17633493
C        0.51955020       0.09764770       0.00648145
C       -0.65825186      -0.11945426      -0.96745211
C       -1.60274647       0.59904306      -0.01233493
C       -1.31620218      -0.85373517       0.16566904
N       -0.12906227      -0.72096042       1.06283272
C       -0.36244153       1.04699252       0.73891267
H        2.27201716       0.94302533      -0.84075456
H        2.34440718      -0.82147409      -0.59280235
H        2.48375971       0.28100370       0.78569986
H       -0.72971924      -0.23146494      -2.03661871
H       -2.53628178       1.09651649      -0.22122875
H       -1.99035895      -1.69750069       0.17066400
H       -0.28749474       0.25619130       1.91726657
14
Frame=8 idx=011727 GeodesicLength=0.44190237469721205 rxn_smarts="[C:1]([C@@:2]12[C@:3]3([H:11])[C@@:4]4([H:12])[C@:5]3([H:13])[N:6]1[C@@:7]24[H:14])([H:8])([H:9])[H:10]>>[C:1]([C@@:2]12[C@:3]3([H:11])[C@@:4]([H:12])([C@:5]3([H:13])[N:6]1[H:14])[C:7]2)([H:8])([H:9])[H:10]"
C        1.99395280       0.12112109      -0.17552904
C        0.52087813       0.09367699       0.00679821
C       -0.65803960      -0.11641143      -0.96569028
C       -1.60924329       0.59571153      -0.00907643
C       -1.31414158      -0.85628490       0.16596006
N       -0.13062544      -0.71978178       1.06541591
C       -0.36507422       1.04933601       0.72198361
H        2.27287533       0.94188329      -0.83762711
H        2.34431856      -0.82436014      -0.59329971
H        2.48577100       0.27507327       0.78655631
H       -0.73061462      -0.21698679      -2.03595396
H       -2.54328072       1.09020966      -0.22239975
H       -1.98686104      -1.70125297       0.16720540
H       -0.27991531       0.26806616       1.92565677
14
Frame=9 idx=011727 GeodesicLength=0.4970593384683629 rxn_smarts="[C:1]([C@@:2]12[C@:3]3([H:11])[C@@:4]4([H:12])[C@:5]3([H:13])[N:6]1[C@@:7]24[H:14])([H:8])([H:9])[H:10]>>[C:1]([C@@:2]12[C@:3]3([H:11])[C@@:4]([H:12])([C@:5]3([H:13])[N:6]1[H:14])[C:7]2)([H:8])([H:9])[H:10]"
C        1.99502071       0.11817457      -0.17472081
C        0.52214370       0.08974357       0.00713452
C       -0.65782216      -0.11351022      -0.96397802
C       -1.61556845       0.59242842      -0.00585870
C       -1.31216448      -0.85879361       0.16623044
N       -0.13220396      -0.71872249       1.06790119
C       -0.36772893       1.05143431       0.70511681
H        2.27361963       0.94086434      -0.83448036
H        2.34423135      -0.82710957      -0.59381406
H        2.48772024       0.26925817       0.78740448
H       -0.73148906      -0.20277963      -2.03520327
H       -2.55001380       1.08405920      -0.22366362
H       -1.98356774      -1.70484544       0.16379103
H       -0.27217704       0.27979838       1.93414038
14
Frame=10 idx=011727 GeodesicLength=0.5522019715948095 rxn_smarts="[C:1]([C@@:2]12[C@:3]3([H:11])[C@@:4]4([H:12])[C@:5]3([H:13])[N:6]1[C@@:7]24[H:14])([H:8])([H:9])[H:10]>>[C:1]([C@@:2]12[C@:3]3([H:11])[C@@:4]([H:12])([C@:5]3([H:13])[N:6]1[H:14])[C:7]2)([H:8])([H:9])[H:10]"
C        1.99602768       0.11532710      -0.17390875
C        0.52334549       0.08585793       0.00749090
C       -0.65759858      -0.11075519      -0.96232178
C       -1.62172622       0.58920050      -0.00268636
C       -1.31026950      -0.86126092       0.16648839
N       -0.13379594      -0.71776880       1.07029391
C       -0.37040722       1.05330399       0.68830428
H        2.27425896       0.93997594      -0.83129527
H        2.34413526      -0.82971901      -0.59436626
H        2.48960939       0.26352480       0.78824950
H       -0.73234243      -0.18884400      -2.03438111
H       -2.55649578       1.07805441      -0.22502282
H       -1.98046661      -1.70829129       0.16042620
H       -0.26427449       0.29139452       1.94272918
14
Frame=11 idx=011727 GeodesicLength=0.6073365854610497 rxn_smarts="[C:1]([C@@:2]12[C@:3]3([H:11])[C@@:4]4([H:12])[C@:5]3([H:13])[N:6]1[C@@:7]24[H:14])([H:8])([H:9])[H:10]>>[C:1]([C@@:2]12[C@:3]3([H:11])[C@@:4]([H:12])([C@:5]3([H:13])[N:6]1[H:14])[C:7]2)([H:8])([H:9])[H:10]"
C        1.99697382       0.11257486      -0.17309291
C        0.52448294       0.08202829       0.00786535
C       -0.65736807      -0.10814922      -0.96072293
C       -1.62771916       0.58602872       0.00043692
C       -1.30845449      -0.86368669       0.16673508
N       -0.13539917      -0.71691506       1.07259700
C       -0.37311296       1.05495647       0.67154454
H        2.27480157       0.93921671      -0.82806511
H        2.34402430      -0.83219207      -0.59496239
H        2.49144008       0.25786068       0.78909152
H       -0.73317962      -0.17517061      -2.03349231
H       -2.56273644       1.07218342      -0.22648194
H       -1.97754920      -1.71159678       0.15711006
H       -0.25620361       0.30286128       1.95143712
14
Frame=12 idx=011727 GeodesicLength=0.6624641355481119 rxn_smarts="[C:1]([C@@:2]12[C@:3]3([H:11])[C@@:4]4([H:12])[C@:5]3([H:13])[N:6]1[C@@:7]24[H:14])([H:8])([H:9])[H:10]>>[C:1]([C@@:2]12[C@:3]3([H:11])[C@@:4]([H:12])([C@:5]3([H:13])[N:6]1[H:14])[C:7]2)([H:8])([H:9])[H:10]"
C        1.99785715       0.10991434      -0.17227252
C        0.52555412       0.07825919       0.00825610
C       -0.65713051      -0.10569592      -0.95918529
C       -1.63355131       0.58291609       0.00350486
C       -1.30671887      -0.86607055       0.16697290
N       -0.13701357      -0.71615375       1.07481271
C       -0.37584547       1.05640252       0.65483283
H        2.27524954       0.93858479      -0.82478316
H        2.34389289      -0.83453190      -0.59560320
H        2.49321075       0.25225562       0.78993223
H       -0.73399915      -0.16174834      -2.03254545
H       -2.56874802       1.06643432      -0.22804101
H       -1.97480813      -1.71476826       0.15384328
H       -0.24794942       0.31420183       1.96027573
14
Frame=13 idx=011727 GeodesicLength=0.7175809832501169 rxn_smarts="[C:1]([C@@:2]12[C@:3]3([H:11])[C@@:4]4([H:12])[C@:5]3([H:13])[N:6]1[C@@:7]24[H:14])([H:8])([H:9])[H:10]>>[C:1]([C@@:2]12[C@:3]3([H:11])[C@@:4]([H:12])([C@:5]3([H:13])[N:6]1[H:14])[C:7]2)([H:8])([H:9])[H:10]"
C        1.99868004       0.10735618      -0.17144875
C        0.52656099       0.07454746       0.00866169
C       -0.65688380      -0.10339871      -0.95771292
C       -1.63921663       0.57987104       0.00651243
C       -1.30506922      -0.86840902       0.16719922
N       -0.13863926      -0.71550019       1.07693133
C       -0.37860160       1.05763869       0.63817896
H        2.27559675       0.93808681      -0.82145891
H        2.34375231      -0.83672999      -0.59627901
H        2.49492357       0.24673389       0.79076744
H       -0.73479752      -0.14861208      -2.03154681
H       -2.57452185       1.06082398      -0.22970102
H       -1.97227078      -1.71778648       0.15063565
H       -0.23951298       0.32537843       1.96926071
14
Frame=14 idx=011727 GeodesicLength=0.7726936693926402 rxn_smarts="[C:1]([C@@:2]12[C@:3]3([H:11])[C@@:4]4([H:12])[C@:5]3([H:13])[N:6]1[C@@:7]24[H:14])([H:8])([H:9])[H:10]>>[C:1]([C@@:2]12[C@:3]3([H:11])[C@@:4]([H:12])([C@:5]3([H:13])[N:6]1[H:14])[C:7]2)([H:8])([H:9])[H:10]"
C        1.99944191       0.10489680      -0.17062024
C        0.52750239       0.07089833       0.00907954
C       -0.65662832      -0.10126192      -0.95630936
C       -1.64472010       0.57689635       0.00945255
C       -1.30350466      -0.87070201       0.16741697
N       -0.14027511      -0.71494577       1.07895817
C       -0.38138139       1.05867873       0.62157546
H        2.27585063       0.93772661      -0.81807817
H        2.34359626      -0.83878705      -0.59700056
H        2.49658020       0.24127375       0.79160107
H       -0.73557970      -0.13575420      -2.03050437
H       -2.58007280       1.05533922      -0.23146489
H       -1.96992759      -1.72066038       0.14748707
H       -0.23088171       0.33640153       1.97840675
14
Frame=15 idx=011727 GeodesicLength=0.827801642105753 rxn_smarts="[C:1]([C@@:2]12[C@:3]3([H:11])[C@@:4]4([H:12])[C@:5]3([H:13])[N:6]1[C@@:7]24[H:14])([H:8])([H:9])[H:10]>>[C:1]([C@@:2]12[C@:3]3([H:11])[C@@:4]([H:12])([C@:5]3([H:13])[N:6]1[H:14])[C:7]2)([H:8])([H:9])[H:10]"
C        2.00014233       0.10253330      -0.16978592
C        0.52837737       0.06731911       0.00950718
C       -0.65636390      -0.09928884      -0.95497847
C       -1.65006578       0.57399432       0.01231881
C       -1.30202378      -0.87294799       0.16762931
N       -0.14192148      -0.71447845       1.08089500
C       -0.38418677       1.05953480       0.60501155
H        2.27602177       0.93751135      -0.81461927
H        2.34341628      -0.84069950      -0.59778435
H        2.49818087       0.23584768       0.79243565
H       -0.73634428      -0.12317359      -2.02942555
H       -2.58541501       1.04996375      -0.23333159
H       -1.96777209      -1.72339399       0.14440524
H       -0.22204554       0.34727804       1.98772240
14
Frame=16 idx=011727 GeodesicLength=0.8829044400894173 rxn_smarts="[C:1]([C@@:2]12[C@:3]3([H:11])[C@@:4]4([H:12])[C@:5]3([H:13])[N:6]1[C@@:7]24[H:14])([H:8])([H:9])[H:10]>>[C:1]([C@@:2]12[C@:3]3([H:11])[C@@:4]([H:12])([C@:5]3([H:13])[N:6]1[H:14])[C:7]2)([H:8])([H:9])[H:10]"
C        2.00078169       0.10027367      -0.16894652
C        0.52918668       0.06380640       0.00994489
C       -0.65608839      -0.09747780      -0.95372253
C       -1.65525185       0.57117216       0.01510861
C       -1.30063267      -0.87514490       0.16783171
N       -0.14357857      -0.71411420       1.08273454
C       -0.38701437       1.06020390       0.58849913
H        2.27609898       0.93743465      -0.81110620
H        2.34322368      -0.84246486      -0.59861041
H        2.49972332       0.23049281       0.79326753
H       -0.73708627      -0.11089590      -2.02831601
H       -2.59054044       1.04471795      -0.23530401
H       -1.96582409      -1.72597552       0.14138955
H       -0.21299772       0.35797165       1.99722974
