14
Frame=0 idx=004091 GeodesicLength=0.0 rxn_smarts="[O:1]([C:2]([C:3]([C:4]([C:5](=[O:6])[H:14])([H:12])[H:13])([H:10])[H:11])([H:8])[H:9])[H:7]>>[C-:5]#[O+:6].[H:11][H:14].[O:1]([C:2]([C:3](=[C:4]([H:12])[H:13])[H:10])([H:8])[H:9])[H:7]"
O        2.33715138       0.12957224       0.78411288
C        1.40689518      -0.11355923      -0.26057377
C        0.11009450      -0.56480004       0.34749506
C       -0.78648043       0.35044276       0.85780045
C       -2.22647687       0.51684906      -0.56641600
O       -3.21082155       1.08875073      -0.55591422
H        3.18461206       0.34801271       0.39227826
H        1.78935683      -0.87964775      -0.94521241
H        1.23163093       0.80027276      -0.84514306
H        0.08955761      -1.58150231       0.72710598
H       -0.60065078      -0.94060132      -1.02008061
H       -1.47700142       0.05880973       1.64111220
H       -0.53789295       1.40704513       0.84065561
H       -1.30997455      -0.61964453      -1.39722039
14
Frame=1 idx=004091 GeodesicLength=0.08644025004654916 rxn_smarts="[O:1]([C:2]([C:3]([C:4]([C:5](=[O:6])[H:14])([H:12])[H:13])([H:10])[H:11])([H:8])[H:9])[H:7]>>[C-:5]#[O+:6].[H:11][H:14].[O:1]([C:2]([C:3](=[C:4]([H:12])[H:13])[H:10])([H:8])[H:9])[H:7]"
O        2.33514767       0.14680186       0.77229508
C        1.39951068      -0.10524942      -0.26547795
C        0.11486023      -0.57893421       0.35180826
C       -0.79183674       0.32700047       0.86852510
C       -2.22077570       0.52081910      -0.57008621
O       -3.13764881       1.19498380      -0.62897798
H        3.17378734       0.38764985       0.37484105
H        1.78703229      -0.86285059      -0.95685240
H        1.20686942       0.80822581      -0.84501387
H        0.12390042      -1.58940162       0.74853630
H       -0.61790292      -0.98249105      -1.00025621
H       -1.48277135       0.01755673       1.64517466
H       -0.53782840       1.38238063       0.88977436
H       -1.35234412      -0.66649136      -1.38429019
14
Frame=2 idx=004091 GeodesicLength=0.1720525293902822 rxn_smarts="[O:1]([C:2]([C:3]([C:4]([C:5](=[O:6])[H:14])([H:12])[H:13])([H:10])[H:11])([H:8])[H:9])[H:7]>>[C-:5]#[O+:6].[H:11][H:14].[O:1]([C:2]([C:3](=[C:4]([H:12])[H:13])[H:10])([H:8])[H:9])[H:7]"
O        2.33301109       0.16103275       0.76091925
C        1.39158541      -0.09624722      -0.27017785
C        0.11874544      -0.59122739       0.35532836
C       -0.79677529       0.30575402       0.87946925
C       -2.21912622       0.52303616      -0.56901033
O       -3.05537374       1.28641704      -0.70582994
H        3.16302619       0.42237960       0.35854539
H        1.78240308      -0.84450634      -0.96984800
H        1.18357375       0.81803975      -0.84281969
H        0.15568779      -1.59504032       0.76729390
H       -0.63585049      -1.02039420      -0.98083259
H       -1.48553933      -0.02065322       1.65165619
H       -0.53891000       1.35897345       0.93564177
H       -1.39645767      -0.70756407      -1.37033571
14
Frame=3 idx=004091 GeodesicLength=0.2582621730185704 rxn_smarts="[O:1]([C:2]([C:3]([C:4]([C:5](=[O:6])[H:14])([H:12])[H:13])([H:10])[H:11])([H:8])[H:9])[H:7]>>[C-:5]#[O+:6].[H:11][H:14].[O:1]([C:2]([C:3](=[C:4]([H:12])[H:13])[H:10])([H:8])[H:9])[H:7]"
O        2.32994639       0.17424554       0.75027901
C        1.38319018      -0.08713750      -0.27484517
C        0.12166290      -0.60256571       0.35756060
C       -0.80164977       0.28588672       0.89004068
C       -2.22071671       0.52548453      -0.56616184
O       -2.96226999       1.36649302      -0.78178383
H        3.15111142       0.45624723       0.34391045
H        1.77690995      -0.82609125      -0.98282652
H        1.16121911       0.82825976      -0.84022887
H        0.18548427      -1.59933424       0.78350234
H       -0.65467798      -1.05549461      -0.96245274
H       -1.48625880      -0.05704102       1.65933726
H       -0.54039071       1.33616440       0.97906358
H       -1.44356028      -0.74511685      -1.35539495
14
Frame=4 idx=004091 GeodesicLength=0.3448823037404397 rxn_smarts="[O:1]([C:2]([C:3]([C:4]([C:5](=[O:6])[H:14])([H:12])[H:13])([H:10])[H:11])([H:8])[H:9])[H:7]>>[C-:5]#[O+:6].[H:11][H:14].[O:1]([C:2]([C:3](=[C:4]([H:12])[H:13])[H:10])([H:8])[H:9])[H:7]"
O        2.32701452       0.18493764       0.73995046
C        1.37440991      -0.07744881      -0.27940811
C        0.12387395      -0.61247409       0.35904139
C       -0.80617084       0.26782083       0.90077002
C       -2.22211938       0.53194991      -0.56245839
O       -2.86370796       1.43034534      -0.85872070
H        3.13926224       0.48699371       0.33027598
H        1.76959287      -0.80636470      -0.99699664
H        1.14005786       0.84010900      -0.83597227
H        0.21330618      -1.60201698       0.79743546
H       -0.67424706      -1.08764451      -0.94439950
H       -1.48594764      -0.09157454       1.66743441
H       -0.54179122       1.31419429       1.02161218
H       -1.49353344      -0.77882708      -1.33856431
14
Frame=5 idx=004091 GeodesicLength=0.432604401084066 rxn_smarts="[O:1]([C:2]([C:3]([C:4]([C:5](=[O:6])[H:14])([H:12])[H:13])([H:10])[H:11])([H:8])[H:9])[H:7]>>[C-:5]#[O+:6].[H:11][H:14].[O:1]([C:2]([C:3](=[C:4]([H:12])[H:13])[H:10])([H:8])[H:9])[H:7]"
O        2.32346945       0.19500768       0.73004849
C        1.36535904      -0.06782603      -0.28396922
C        0.12536724      -0.62172298       0.35946357
C       -0.81058015       0.25082120       0.91093931
C       -2.22270367       0.54212995      -0.56029563
O       -2.75888250       1.48249470      -0.93182066
H        3.12626808       0.51807554       0.31797020
H        1.76176529      -0.78685230      -1.01087859
H        1.11977628       0.85195566      -0.83168175
H        0.23951183      -1.60367611       0.80944007
H       -0.69461447      -1.11796805      -0.92690592
H       -1.48533661      -0.12502779       1.67475114
H       -0.54274620       1.29240149       1.06292299
H       -1.54665362      -0.80981294      -1.31998400
14
Frame=6 idx=004091 GeodesicLength=0.5209035510947959 rxn_smarts="[O:1]([C:2]([C:3]([C:4]([C:5](=[O:6])[H:14])([H:12])[H:13])([H:10])[H:11])([H:8])[H:9])[H:7]>>[C-:5]#[O+:6].[H:11][H:14].[O:1]([C:2]([C:3](=[C:4]([H:12])[H:13])[H:10])([H:8])[H:9])[H:7]"
O        2.32042448       0.20251045       0.72100158
C        1.35666935      -0.05791732      -0.28823046
C        0.12646516      -0.62967520       0.35887969
C       -0.81446939       0.23571808       0.92052052
C       -2.22229394       0.55586639      -0.55850232
O       -2.65497416       1.51963912      -1.00255224
H        3.11390157       0.54607552       0.30763713
H        1.75320040      -0.76652256      -1.02532363
H        1.10163943       0.86505315      -0.82588015
H        0.26373907      -1.60409237       0.81912804
H       -0.71515579      -1.14562641      -0.91029664
H       -1.48363079      -0.15619225       1.68179357
H       -0.54345994       1.27183929       1.10203424
H       -1.60205545      -0.83667589      -1.30020934
14
Frame=7 idx=004091 GeodesicLength=0.6104639802083488 rxn_smarts="[O:1]([C:2]([C:3]([C:4]([C:5](=[O:6])[H:14])([H:12])[H:13])([H:10])[H:11])([H:8])[H:9])[H:7]>>[C-:5]#[O+:6].[H:11][H:14].[O:1]([C:2]([C:3](=[C:4]([H:12])[H:13])[H:10])([H:8])[H:9])[H:7]"
O        2.31709798       0.20942742       0.71248874
C        1.34811881      -0.04808858      -0.29242889
C        0.12709109      -0.63701180       0.35719598
C       -0.81819447       0.22157886       0.92930250
C       -2.22103523       0.57228726      -0.55820598
O       -2.54836340       1.54637362      -1.06889745
H        3.10092856       0.57403908       0.29892643
H        1.74465654      -0.74637688      -1.03938391
H        1.08483327       0.87815279      -0.82007184
H        0.28652167      -1.60368778       0.82698336
H       -0.73615191      -1.17176101      -0.89430417
H       -1.48152610      -0.18616332       1.68799585
H       -0.54383026       1.25155174       1.13932255
H       -1.66014655      -0.86032140      -1.27892316
14
Frame=8 idx=004091 GeodesicLength=0.7006168514352685 rxn_smarts="[O:1]([C:2]([C:3]([C:4]([C:5](=[O:6])[H:14])([H:12])[H:13])([H:10])[H:11])([H:8])[H:9])[H:7]>>[C-:5]#[O+:6].[H:11][H:14].[O:1]([C:2]([C:3](=[C:4]([H:12])[H:13])[H:10])([H:8])[H:9])[H:7]"
O        2.31451920       0.21398216       0.70508669
C        1.34037660      -0.03807835      -0.29624016
C        0.12757916      -0.64327684       0.35442999
C       -0.82132598       0.20912653       0.93718973
C       -2.21886207       0.59113487      -0.55852102
O       -2.44630660       1.56062596      -1.13224073
H        3.08900336       0.59910653       0.29266897
H        1.73610373      -0.72557873      -1.05369504
H        1.07054150       0.89233504      -0.81288120
H        0.30756891      -1.60247212       0.83268851
H       -0.75695480      -1.19579302      -0.87941495
H       -1.47812233      -0.21392343       1.69385964
H       -0.54387919       1.23264558       1.17392694
H       -1.72024148      -0.87983420      -1.25685738
14
Frame=9 idx=004091 GeodesicLength=0.7916053175105675 rxn_smarts="[O:1]([C:2]([C:3]([C:4]([C:5](=[O:6])[H:14])([H:12])[H:13])([H:10])[H:11])([H:8])[H:9])[H:7]>>[C-:5]#[O+:6].[H:11][H:14].[O:1]([C:2]([C:3](=[C:4]([H:12])[H:13])[H:10])([H:8])[H:9])[H:7]"
O        2.31174156       0.21834603       0.69813324
C        1.33305059      -0.02840840      -0.29996125
C        0.12779702      -0.64909501       0.35066896
C       -0.82434675       0.19742630       0.94395328
C       -2.21558772       0.61167630      -0.56066301
O       -2.34451655       1.56657305      -1.18989470
H        3.07657648       0.62438219       0.28797706
H        1.72817332      -0.70544351      -1.06714088
H        1.05767812       0.90590132      -0.80611055
H        0.32744856      -1.60046729       0.83709066
H       -0.77786840      -1.21896752      -0.86477589
H       -1.47442571      -0.24044466       1.69862139
H       -0.54363269       1.21386567       1.20633974
H       -1.78208782      -0.89534447      -1.23423805
14
Frame=10 idx=004091 GeodesicLength=0.8830295668504013 rxn_smarts="[O:1]([C:2]([C:3]([C:4]([C:5](=[O:6])[H:14])([H:12])[H:13])([H:10])[H:11])([H:8])[H:9])[H:7]>>[C-:5]#[O+:6].[H:11][H:14].[O:1]([C:2]([C:3](=[C:4]([H:12])[H:13])[H:10])([H:8])[H:9])[H:7]"
O        2.30959397       0.22112685       0.69227124
C        1.32666857      -0.01865305      -0.30331534
C        0.12804662      -0.65415057       0.34587710
C       -0.82684353       0.18695191       0.94973553
C       -2.21144667       0.63376592      -0.56358995
O       -2.24827807       1.56290927      -1.24448396
H        3.06516363       0.64742785       0.28570189
H        1.72083408      -0.68494244      -1.08042523
H        1.04709533       0.92011457      -0.79844000
H        0.34599465      -1.59797744       0.83966101
H       -0.79832181      -1.24073537      -0.85110092
H       -1.46951388      -0.26523429       1.70298121
H       -0.54306601       1.19618205       1.23614669
H       -1.84592687      -0.90678525      -1.21101928
14
Frame=11 idx=004091 GeodesicLength=0.9749779657710109 rxn_smarts="[O:1]([C:2]([C:3]([C:4]([C:5](=[O:6])[H:14])([H:12])[H:13])([H:10])[H:11])([H:8])[H:9])[H:7]>>[C-:5]#[O+:6].[H:11][H:14].[O:1]([C:2]([C:3](=[C:4]([H:12])[H:13])[H:10])([H:8])[H:9])[H:7]"
O        2.30792091       0.22280196       0.68726352
C        1.32110485      -0.00879625      -0.30637507
C        0.12835058      -0.65861686       0.34010210
C       -0.82894361       0.17732212       0.95458672
C       -2.20621818       0.65726851      -0.56750121
O       -2.15643648       1.55085431      -1.29636516
H        3.05449251       0.66891394       0.28553517
H        1.71415747      -0.66405039      -1.09346367
H        1.03839976       0.93479313      -0.79006986
H        0.36352109      -1.59506702       0.84059264
H       -0.81833092      -1.26152062      -0.83809876
H       -1.46368690      -0.28882612       1.70673686
H       -0.54225228       1.17914480       1.26377263
H       -1.91207880      -0.91422149      -1.18671589
14
Frame=12 idx=004091 GeodesicLength=1.0675108822379642 rxn_smarts="[O:1]([C:2]([C:3]([C:4]([C:5](=[O:6])[H:14])([H:12])[H:13])([H:10])[H:11])([H:8])[H:9])[H:7]>>[C-:5]#[O+:6].[H:11][H:14].[O:1]([C:2]([C:3](=[C:4]([H:12])[H:13])[H:10])([H:8])[H:9])[H:7]"
O        2.30681262       0.22342322       0.68306168
C        1.31635621       0.00124096      -0.30914662
C        0.12878551      -0.66260541       0.33340924
C       -0.83064430       0.16834125       0.95858792
C       -2.19960108       0.68216689      -0.57247706
O       -2.06912321       1.53095456      -1.34637836
H        3.04458799       0.68909013       0.28744418
H        1.70813901      -0.64256706      -1.10636084
H        1.03143527       0.95004749      -0.78090407
H        0.38019283      -1.59192634       0.83997754
H       -0.83783829      -1.28163120      -0.82569864
H       -1.45702774      -0.31154256       1.70986019
H       -0.54115684       1.16258506       1.28957444
H       -1.98091798      -0.91757701      -1.16094961
14
Frame=13 idx=004091 GeodesicLength=1.1610383791579346 rxn_smarts="[O:1]([C:2]([C:3]([C:4]([C:5](=[O:6])[H:14])([H:12])[H:13])([H:10])[H:11])([H:8])[H:9])[H:7]>>[C-:5]#[O+:6].[H:11][H:14].[O:1]([C:2]([C:3](=[C:4]([H:12])[H:13])[H:10])([H:8])[H:9])[H:7]"
O        2.30571729       0.22404776       0.67907064
C        1.31201989       0.01122127      -0.31183580
C        0.12928155      -0.66632847       0.32598574
C       -0.83234168       0.15957359       0.96170042
C       -2.19148571       0.70803940      -0.57910939
O       -1.98317021       1.50472209      -1.39283303
H        3.03446019       0.70927140       0.29051217
H        1.70276169      -0.62110465      -1.11876917
H        1.02547310       0.96509226      -0.77178218
H        0.39642717      -1.58831779       0.83844215
H       -0.85676555      -1.30184134      -0.81323340
H       -1.45012714      -0.33379517       1.71203825
H       -0.54014381       1.14581635       1.31395128
H       -2.05210678      -0.91639669      -1.13413769
14
Frame=14 idx=004091 GeodesicLength=1.2549989969164692 rxn_smarts="[O:1]([C:2]([C:3]([C:4]([C:5](=[O:6])[H:14])([H:12])[H:13])([H:10])[H:11])([H:8])[H:9])[H:7]>>[C-:5]#[O+:6].[H:11][H:14].[O:1]([C:2]([C:3](=[C:4]([H:12])[H:13])[H:10])([H:8])[H:9])[H:7]"
O        2.30502585       0.22424363       0.67581866
C        1.30845085       0.02137157      -0.31424296
C        0.13006905      -0.66981727       0.31780646
C       -0.83370269       0.15106069       0.96399903
C       -2.18139133       0.73508631      -0.58705118
O       -1.90203697       1.47165479      -1.43778025
H        3.02497400       0.72851465       0.29538848
H        1.69827458      -0.59915067      -1.13082107
H        1.02075983       0.98043096      -0.76213425
H        0.41221416      -1.58463679       0.83572362
H       -0.87481420      -1.32199879      -0.80115745
H       -1.44259427      -0.35565561       1.71344561
H       -0.53895928       1.12914422       1.33680340
H       -2.12626959      -0.91024769      -1.10579810
14
Frame=15 idx=004091 GeodesicLength=1.3495910655464705 rxn_smarts="[O:1]([C:2]([C:3]([C:4]([C:5](=[O:6])[H:14])([H:12])[H:13])([H:10])[H:11])([H:8])[H:9])[H:7]>>[C-:5]#[O+:6].[H:11][H:14].[O:1]([C:2]([C:3](=[C:4]([H:12])[H:13])[H:10])([H:8])[H:9])[H:7]"
O        2.30456992       0.22438871       0.67308738
C        1.30547752       0.03168599      -0.31643437
C        0.13118573      -0.67321894       0.30895956
C       -0.83485076       0.14250248       0.96552570
C       -2.16889138       0.76327475      -0.59655568
O       -1.82459744       1.43199276      -1.48125455
H        3.01575461       0.74738857       0.30174827
H        1.69462858      -0.57672168      -1.14249250
H        1.01688510       0.99589851      -0.75212769
H        0.42783982      -1.58088260       0.83203952
H       -0.89184905      -1.34254238      -0.78921029
H       -1.43468621      -0.37751873       1.71391493
H       -0.53776735       1.11217648       1.35842978
H       -2.20369908      -0.89842391      -1.07563007
14
Frame=16 idx=004091 GeodesicLength=1.444808117005597 rxn_smarts="[O:1]([C:2]([C:3]([C:4]([C:5](=[O:6])[H:14])([H:12])[H:13])([H:10])[H:11])([H:8])[H:9])[H:7]>>[C-:5]#[O+:6].[H:11][H:14].[O:1]([C:2]([C:3](=[C:4]([H:12])[H:13])[H:10])([H:8])[H:9])[H:7]"
O        2.30422565       0.22484527       0.67083488
C        1.30302069       0.04217428      -0.31841007
C        0.13273775      -0.67670119       0.29954417
C       -0.83582087       0.13362379       0.96630931
C       -2.15336921       0.79263139      -0.60779304
O       -1.75077820       1.38570361      -1.52359641
H        3.00662515       0.76620043       0.30940560
H        1.69188876      -0.55381792      -1.15369496
H        1.01346986       1.01135326      -0.74187751
H        0.44356820      -1.57714830       0.82754899
H       -0.90760726      -1.36381799      -0.77729050
H       -1.42656615      -0.39974274       1.71329434
H       -0.53666085       1.09459306       1.37903437
H       -2.28473351      -0.87989695      -1.04330918
