13
Frame=0 idx=003128 GeodesicLength=0.0 rxn_smarts="[O:1]([C:2]([C:3]([C:4]([C:5]#[N:6])([H:12])[H:13])([H:10])[H:11])([H:8])[H:9])[H:7]>>[C:2](=[C:3]([C:4]([C:5]#[N:6])([H:12])[H:13])[H:11])([H:8])[H:9].[O:1]([H:7])[H:10]"
O        1.96814619      -0.60215839       0.91236300
C        1.05038791       0.53297593      -0.15957863
C       -0.00228450      -0.37978989      -0.42841063
C       -1.34368620      -0.20257399       0.25411024
C       -2.19241644       0.81296878      -0.38198034
N       -2.83569020       1.61230915      -0.89654880
H        2.79862430      -0.91376544       0.52986461
H        1.79870661       0.73376422      -0.91781471
H        0.92386503       1.33086643       0.56353866
H        0.99191673      -1.07718704       0.39893074
H       -0.04217038      -0.78738664      -1.43334279
H       -1.21415439       0.08117718       1.30183963
H       -1.90124469      -1.14120034       0.25702908
13
Frame=1 idx=003128 GeodesicLength=0.05994330916873154 rxn_smarts="[O:1]([C:2]([C:3]([C:4]([C:5]#[N:6])([H:12])[H:13])([H:10])[H:11])([H:8])[H:9])[H:7]>>[C:2](=[C:3]([C:4]([C:5]#[N:6])([H:12])[H:13])[H:11])([H:8])[H:9].[O:1]([H:7])[H:10]"
O        1.94943672      -0.61704616       0.92842860
C        1.05566066       0.53524823      -0.16853599
C       -0.00131514      -0.37063003      -0.44352388
C       -1.33534965      -0.19949909       0.25521229
C       -2.19509930       0.80973947      -0.37478293
N       -2.85331406       1.60146420      -0.88207030
H        2.79990074      -0.91271947       0.58008371
H        1.80677011       0.72833119      -0.92650604
H        0.92361140       1.34377891       0.54196160
H        0.98419898      -1.09995208       0.37603256
H       -0.05163600      -0.76276305      -1.45410337
H       -1.19789557       0.08679201       1.30112421
H       -1.88496888      -1.14274413       0.26667955
13
Frame=2 idx=003128 GeodesicLength=0.11984682132769812 rxn_smarts="[O:1]([C:2]([C:3]([C:4]([C:5]#[N:6])([H:12])[H:13])([H:10])[H:11])([H:8])[H:9])[H:7]>>[C:2](=[C:3]([C:4]([C:5]#[N:6])([H:12])[H:13])[H:11])([H:8])[H:9].[O:1]([H:7])[H:10]"
O        1.93058113      -0.63228127       0.94344267
C        1.06097734       0.53786827      -0.17734293
C       -0.00008019      -0.36147481      -0.45809655
C       -1.32676780      -0.19644366       0.25637185
C       -2.19751992       0.80618785      -0.36773355
N       -2.87031481       1.59010876      -0.86785601
H        2.79923508      -0.91211376       0.63014831
H        1.81425611       0.72365390      -0.93548683
H        0.92373183       1.35663620       0.52065401
H        0.97656589      -1.12235007       0.35318604
H       -0.06082183      -0.73809791      -1.47397958
H       -1.18168153       0.09261878       1.30037642
H       -1.86816128      -1.14431229       0.27631616
13
Frame=3 idx=003128 GeodesicLength=0.1796739420942454 rxn_smarts="[O:1]([C:2]([C:3]([C:4]([C:5]#[N:6])([H:12])[H:13])([H:10])[H:11])([H:8])[H:9])[H:7]>>[C:2](=[C:3]([C:4]([C:5]#[N:6])([H:12])[H:13])[H:11])([H:8])[H:9].[O:1]([H:7])[H:10]"
O        1.91178314      -0.64780771       0.95737842
C        1.06627422       0.54081094      -0.18596480
C        0.00140456      -0.35240871      -0.47207707
C       -1.31798735      -0.19345014       0.25758100
C       -2.19966073       0.80230985      -0.36086945
N       -2.88642879       1.57846640      -0.85395750
H        2.79677219      -0.91185688       0.67979961
H        1.82101610       0.71983081      -0.94478455
H        0.92408568       1.36940009       0.49966620
H        0.96893150      -1.14437343       0.33062202
H       -0.06969337      -0.71359380      -1.49287869
H       -1.16557657       0.09857520       1.29960172
H       -1.85092060      -1.14590262       0.28588310
13
Frame=4 idx=003128 GeodesicLength=0.2393947036110078 rxn_smarts="[O:1]([C:2]([C:3]([C:4]([C:5]#[N:6])([H:12])[H:13])([H:10])[H:11])([H:8])[H:9])[H:7]>>[C:2](=[C:3]([C:4]([C:5]#[N:6])([H:12])[H:13])[H:11])([H:8])[H:9].[O:1]([H:7])[H:10]"
O        1.89321517      -0.66354586       0.97022937
C        1.07152693       0.54408143      -0.19437776
C        0.00313792      -0.34347814      -0.48544650
C       -1.30904136      -0.19053290       0.25884040
C       -2.20150676       0.79812458      -0.35419139
N       -2.90155674       1.56662575      -0.84043236
H        2.79262576      -0.91201930       0.72886455
H        1.82698650       0.71695673      -0.95441496
H        0.92457255       1.38208837       0.47904013
H        0.96120917      -1.16602728       0.30849507
H       -0.07821565      -0.68939195      -1.51076613
H       -1.14962893       0.10463059       1.29881327
H       -1.83332457      -1.14751203       0.29534631
13
Frame=5 idx=003128 GeodesicLength=0.29906976855029926 rxn_smarts="[O:1]([C:2]([C:3]([C:4]([C:5]#[N:6])([H:12])[H:13])([H:10])[H:11])([H:8])[H:9])[H:7]>>[C:2](=[C:3]([C:4]([C:5]#[N:6])([H:12])[H:13])[H:11])([H:8])[H:9].[O:1]([H:7])[H:10]"
O        1.87488325      -0.67951491       0.98210151
C        1.07676474       0.54763924      -0.20262215
C        0.00511285      -0.33469152      -0.49827029
C       -1.29993105      -0.18769242       0.26014073
C       -2.20306584       0.79366385      -0.34767353
N       -2.91579451       1.55464026      -0.82717884
H        2.78689788      -0.91248561       0.77751842
H        1.83223484       0.71497420      -0.96440783
H        0.92515782       1.39472361       0.45866403
H        0.95335885      -1.18740648       0.28673742
H       -0.08642182      -0.66547785      -1.52772940
H       -1.13379749       0.11075508       1.29801077
H       -1.81539951      -1.14912746       0.30470916
13
Frame=6 idx=003128 GeodesicLength=0.358737875812858 rxn_smarts="[O:1]([C:2]([C:3]([C:4]([C:5]#[N:6])([H:12])[H:13])([H:10])[H:11])([H:8])[H:9])[H:7]>>[C:2](=[C:3]([C:4]([C:5]#[N:6])([H:12])[H:13])[H:11])([H:8])[H:9].[O:1]([H:7])[H:10]"
O        1.85677090      -0.69576085       0.99306311
C        1.08204304       0.55145640      -0.21071908
C        0.00733091      -0.32602752      -0.51061510
C       -1.29064480      -0.18489261       0.26148365
C       -2.20433910       0.78897998      -0.34126593
N       -2.92933740       1.54240983      -0.81414810
H        2.77963477      -0.91320757       0.82593289
H        1.83686209       0.71381989      -0.97476521
H        0.92586059       1.40733663       0.43847294
H        0.94533268      -1.20860102       0.26523046
H       -0.09433865      -0.64179042      -1.54386465
H       -1.11802936       0.11698941       1.29719814
H       -1.79714567      -1.15071215       0.31399689
13
Frame=7 idx=003128 GeodesicLength=0.41838027905722364 rxn_smarts="[O:1]([C:2]([C:3]([C:4]([C:5]#[N:6])([H:12])[H:13])([H:10])[H:11])([H:8])[H:9])[H:7]>>[C:2](=[C:3]([C:4]([C:5]#[N:6])([H:12])[H:13])[H:11])([H:8])[H:9].[O:1]([H:7])[H:10]"
O        1.83880874      -0.71228163       1.00318044
C        1.08737371       0.55551953      -0.21872350
C        0.00980612      -0.31743796      -0.52254423
C       -1.28110324      -0.18210847       0.26285082
C       -2.20525896       0.78408315      -0.33496654
N       -2.94233542       1.52983132      -0.80119022
H        2.77071253      -0.91424155       0.87434319
H        1.84089385       0.71344572      -0.98550474
H        0.92665994       1.41993942       0.41832393
H        0.93708839      -1.22963483       0.24388620
H       -0.10198669      -0.61822636      -1.55923168
H       -1.10220750       0.12333681       1.29633475
H       -1.77845147      -1.15222517       0.32324158
13
Frame=8 idx=003128 GeodesicLength=0.47806404263754576 rxn_smarts="[O:1]([C:2]([C:3]([C:4]([C:5]#[N:6])([H:12])[H:13])([H:10])[H:11])([H:8])[H:9])[H:7]>>[C:2](=[C:3]([C:4]([C:5]#[N:6])([H:12])[H:13])[H:11])([H:8])[H:9].[O:1]([H:7])[H:10]"
O        1.82109096      -0.72909339       1.01247471
C        1.09279705       0.55981429      -0.22663592
C        0.01253266      -0.30896934      -0.53408141
C       -1.27136614      -0.17935006       0.26425368
C       -2.20587980       0.77901397      -0.32872617
N       -2.95479192       1.51698127      -0.78831556
H        2.76025451      -0.91545820       0.92278276
H        1.84439670       0.71385121      -0.99664540
H        0.92755143       1.43256469       0.39822171
H        0.92859905      -1.25059314       0.22266855
H       -0.10937198      -0.59486634      -1.57387972
H       -1.08637421       0.12978612       1.29545976
H       -1.75943829      -1.15368108       0.33242301
13
Frame=9 idx=003128 GeodesicLength=0.5377501029720526 rxn_smarts="[O:1]([C:2]([C:3]([C:4]([C:5]#[N:6])([H:12])[H:13])([H:10])[H:11])([H:8])[H:9])[H:7]>>[C:2](=[C:3]([C:4]([C:5]#[N:6])([H:12])[H:13])[H:11])([H:8])[H:9].[O:1]([H:7])[H:10]"
O        1.80362305      -0.74621649       1.02095630
C        1.09828450       0.56431428      -0.23448152
C        0.01550395      -0.30062924      -0.54524518
C       -1.26139604      -0.17662802       0.26569346
C       -2.20614621       0.77378538      -0.32251279
N       -2.96662741       1.50389760      -0.77548901
H        2.74820326      -0.91673067       0.97135796
H        1.84731466       0.71502403      -1.00820412
H        0.92847605       1.44517824       0.37810220
H        0.91982192      -1.27151262       0.20153528
H       -0.11652163      -0.57170161      -1.58781908
H       -1.07046072       0.13628040       1.29456721
H       -1.74007537      -1.15506130       0.34153928
13
Frame=10 idx=003128 GeodesicLength=0.5974358178915568 rxn_smarts="[O:1]([C:2]([C:3]([C:4]([C:5]#[N:6])([H:12])[H:13])([H:10])[H:11])([H:8])[H:9])[H:7]>>[C:2](=[C:3]([C:4]([C:5]#[N:6])([H:12])[H:13])[H:11])([H:8])[H:9].[O:1]([H:7])[H:10]"
O        1.78650837      -0.76360074       1.02863705
C        1.10382286       0.56903068      -0.24227471
C        0.01872250      -0.29246765      -0.55603510
C       -1.25122095      -0.17398105       0.26717368
C       -2.20606045       0.76840722      -0.31630523
N       -2.97772350       1.49073288      -0.76269564
H        2.73457241      -0.91800127       1.02005246
H        1.84962849       0.71701188      -1.02020546
H        0.92936487       1.45780095       0.35794852
H        0.91073870      -1.29242615       0.18051587
H       -0.12342126      -0.54885580      -1.60104469
H       -1.05449030       0.14274705       1.29367790
H       -1.72044175      -1.15639800       0.35055534
13
Frame=11 idx=003128 GeodesicLength=0.6570864554533286 rxn_smarts="[O:1]([C:2]([C:3]([C:4]([C:5]#[N:6])([H:12])[H:13])([H:10])[H:11])([H:8])[H:9])[H:7]>>[C:2](=[C:3]([C:4]([C:5]#[N:6])([H:12])[H:13])[H:11])([H:8])[H:9].[O:1]([H:7])[H:10]"
O        1.76984366      -0.78117427       1.03553595
C        1.10937975       0.57398210      -0.25002447
C        0.02219078      -0.28452039      -0.56644241
C       -1.24084482      -0.17144106       0.26869928
C       -2.20560154       0.76287936      -0.31008698
N       -2.98795021       1.47760386      -0.74994862
H        2.71933627      -0.91927538       1.06880930
H        1.85128420       0.71986744      -1.03265782
H        0.93013246       1.47044201       0.33775006
H        0.90132478      -1.31334202       0.15965610
H       -0.13006026      -0.52643186      -1.61354069
H       -1.03845806       0.14911911       1.29280650
H       -1.70057701      -1.15770889       0.35944380
13
Frame=12 idx=003128 GeodesicLength=0.7167320719778254 rxn_smarts="[O:1]([C:2]([C:3]([C:4]([C:5]#[N:6])([H:12])[H:13])([H:10])[H:11])([H:8])[H:9])[H:7]>>[C:2](=[C:3]([C:4]([C:5]#[N:6])([H:12])[H:13])[H:11])([H:8])[H:9].[O:1]([H:7])[H:10]"
O        1.75360166      -0.79900885       1.04166781
C        1.11498593       0.57914625      -0.25777733
C        0.02591620      -0.27678475      -0.57652350
C       -1.23023662      -0.16901320       0.27027420
C       -2.20475970       0.75721321      -0.30380569
N       -2.99735552       1.46452191      -0.73714735
H        2.70237305      -0.92037416       1.11786179
H        1.85233616       0.72353200      -1.04558306
H        0.93078756       1.48309937       0.31742045
H        0.89156809      -1.33432956       0.13881439
H       -0.13646963      -0.50437951      -1.62537879
H       -1.02229164       0.15537708       1.29195445
H       -1.68045553      -1.15899977       0.36822264
13
Frame=13 idx=003128 GeodesicLength=0.7763657513754503 rxn_smarts="[O:1]([C:2]([C:3]([C:4]([C:5]#[N:6])([H:12])[H:13])([H:10])[H:11])([H:8])[H:9])[H:7]>>[C:2](=[C:3]([C:4]([C:5]#[N:6])([H:12])[H:13])[H:11])([H:8])[H:9].[O:1]([H:7])[H:10]"
O        1.73789563      -0.81703678       1.04705088
C        1.12063010       0.58455597      -0.26554168
C        0.02990849      -0.26927585      -0.58627375
C       -1.21939329      -0.16670401       0.27191196
C       -2.20352274       0.75143147      -0.29743695
N       -3.00591149       1.45150754      -0.72435107
H        2.68362468      -0.92139233       1.16715598
H        1.85275637       0.72805929      -1.05898748
H        0.93127875       1.49578911       0.29697230
H        0.88145483      -1.35538640       0.11802157
H       -0.14264611      -0.48276936      -1.63655811
H       -1.00597032       0.16148973       1.29115033
H       -1.66010490      -1.16026838       0.37688601
13
Frame=14 idx=003128 GeodesicLength=0.8359686477057391 rxn_smarts="[O:1]([C:2]([C:3]([C:4]([C:5]#[N:6])([H:12])[H:13])([H:10])[H:11])([H:8])[H:9])[H:7]>>[C:2](=[C:3]([C:4]([C:5]#[N:6])([H:12])[H:13])[H:11])([H:8])[H:9].[O:1]([H:7])[H:10]"
O        1.72266674      -0.83527820       1.05168663
C        1.12632682       0.59022111      -0.27337001
C        0.03418878      -0.26197668      -0.59572797
C       -1.20824907      -0.16452461       0.27361584
C       -2.20182984       0.74550673      -0.29094216
N       -3.01360288       1.43853096      -0.71143348
H        2.66279864      -0.92224755       1.21683856
H        1.85257434       0.73342328      -1.07287865
H        0.93160677       1.50852580       0.27629662
H        0.87095908      -1.37653602       0.09717530
H       -0.14859210      -0.46155343      -1.64709969
H       -0.98940295       0.16744196       1.29036674
H       -1.63944433      -1.16153336       0.38547228
13
Frame=15 idx=003128 GeodesicLength=0.8956234650692436 rxn_smarts="[O:1]([C:2]([C:3]([C:4]([C:5]#[N:6])([H:12])[H:13])([H:10])[H:11])([H:8])[H:9])[H:7]>>[C:2](=[C:3]([C:4]([C:5]#[N:6])([H:12])[H:13])[H:11])([H:8])[H:9].[O:1]([H:7])[H:10]"
O        1.70802424      -0.85377571       1.05556119
C        1.13210632       0.59613628      -0.28130852
C        0.03876691      -0.25490755      -0.60494196
C       -1.19679969      -0.16248254       0.27539345
C       -2.19971853       0.73947721      -0.28426524
N       -3.02050280       1.42565772      -0.69834102
H        2.63978670      -0.92281735       1.26713484
H        1.85182909       0.73959191      -1.08730420
H        0.93176772       1.52130759       0.25537842
H        0.86010572      -1.39783379       0.07617338
H       -0.15433791      -0.44075397      -1.65709276
H       -0.97253810       0.17320367       1.28964683
H       -1.61848966      -1.16280346       0.39396560
13
Frame=16 idx=003128 GeodesicLength=0.9552751801937008 rxn_smarts="[O:1]([C:2]([C:3]([C:4]([C:5]#[N:6])([H:12])[H:13])([H:10])[H:11])([H:8])[H:9])[H:7]>>[C:2](=[C:3]([C:4]([C:5]#[N:6])([H:12])[H:13])[H:11])([H:8])[H:9].[O:1]([H:7])[H:10]"
O        1.69397719      -0.87256976       1.05854805
C        1.13797430       0.60230438      -0.28943657
C        0.04365593      -0.24806840      -0.61395053
C       -1.18496440      -0.16060935       0.27725362
C       -2.19707852       0.73333320      -0.27730666
N       -3.02649192       1.41287219      -0.68493824
H        2.61413781      -0.92287474       1.31832248
H        1.85050833       0.74655594      -1.10230844
H        0.93177657       1.53410544       0.23412934
H        0.84884645      -1.41929860       0.05488370
H       -0.15991424      -0.42034356      -1.66653729
H       -0.95524440       0.17869602       1.28896610
H       -1.59718309      -1.16410274       0.40237443
