16
Frame=0 idx=001105 GeodesicLength=0.0 rxn_smarts="[C:1]([O:2][C:3]([C:4]1([H:12])[C:5]([H:13])([H:14])[C:6]1([H:15])[H:16])([H:10])[H:11])([H:7])([H:8])[H:9]>>[C:1]([O:2][C:3]([C:4][C:5]([C:6]([H:12])([H:15])[H:16])([H:13])[H:14])([H:10])[H:11])([H:7])([H:8])[H:9]"
C        2.66139694      -0.37186074       0.10836500
O        1.54151536       0.31211283      -0.38415562
C        0.42730569       0.20807744       0.46088214
C       -0.71688573       1.03719526      -0.03872744
C       -2.00835485       0.47913243       0.40727016
C       -1.81218683      -0.13549834      -0.97177224
H        2.45667158      -1.44312099       0.24326983
H        3.46222187      -0.25401820      -0.62028459
H        2.99437451       0.03925602       1.07086618
H        0.19404687      -0.86188862       0.63558813
H        0.64207234       0.64543785       1.45235527
H       -0.87548716       0.46681466      -1.37785586
H       -2.84482855       1.16572195       0.48748286
H       -2.00778421      -0.26518473       1.20516217
H       -1.56717414      -1.19258298      -0.96930381
H       -2.54690367       0.17040623      -1.70914221
16
Frame=1 idx=001105 GeodesicLength=0.056372269246913784 rxn_smarts="[C:1]([O:2][C:3]([C:4]1([H:12])[C:5]([H:13])([H:14])[C:6]1([H:15])[H:16])([H:10])[H:11])([H:7])([H:8])[H:9]>>[C:1]([O:2][C:3]([C:4][C:5]([C:6]([H:12])([H:15])[H:16])([H:13])[H:14])([H:10])[H:11])([H:7])([H:8])[H:9]"
C        2.66822204      -0.37191479       0.11499255
O        1.54773220       0.30584678      -0.38480480
C        0.43158516       0.20343070       0.45764187
C       -0.71347269       1.02600916      -0.04431849
C       -2.00722848       0.47690385       0.40703483
C       -1.82238268      -0.13366858      -0.97512643
H        2.46651452      -1.44301774       0.25546167
H        3.47107564      -0.25589702      -0.61170052
H        2.99690542       0.04568704       1.07621031
H        0.19809841      -0.86571988       0.63556388
H        0.64391517       0.64342321       1.44882912
H       -0.89139003       0.49287502      -1.39867038
H       -2.83537465       1.17304620       0.49171400
H       -2.00761244      -0.26853232       1.20382329
H       -1.57116413      -1.18943306      -0.97824239
H       -2.57542344       0.16096143      -1.69840853
16
Frame=2 idx=001105 GeodesicLength=0.11271555151467834 rxn_smarts="[C:1]([O:2][C:3]([C:4]1([H:12])[C:5]([H:13])([H:14])[C:6]1([H:15])[H:16])([H:10])[H:11])([H:7])([H:8])[H:9]>>[C:1]([O:2][C:3]([C:4][C:5]([C:6]([H:12])([H:15])[H:16])([H:13])[H:14])([H:10])[H:11])([H:7])([H:8])[H:9]"
C        2.67503376      -0.37207280       0.12164913
O        1.55392540       0.29925806      -0.38555031
C        0.43591263       0.19872160       0.45443636
C       -0.71004473       1.01452112      -0.05022409
C       -2.00604338       0.47454892       0.40668626
C       -1.83258499      -0.13185728      -0.97859509
H        2.47635487      -1.44294749       0.26805446
H        3.47985994      -0.25809013      -0.60317983
H        2.99946162       0.05232051       1.08138737
H        0.20221545      -0.86957082       0.63589228
H        0.64580420       0.64175482       1.44515793
H       -0.90824982       0.52025482      -1.41892310
H       -2.82570218       1.18019317       0.49581081
H       -2.00741387      -0.27204244       1.20235258
H       -1.57496925      -1.18620290      -0.98754492
H       -2.60355965       0.15121085      -1.68740984
16
Frame=3 idx=001105 GeodesicLength=0.16899329120911788 rxn_smarts="[C:1]([O:2][C:3]([C:4]1([H:12])[C:5]([H:13])([H:14])[C:6]1([H:15])[H:16])([H:10])[H:11])([H:7])([H:8])[H:9]>>[C:1]([O:2][C:3]([C:4][C:5]([C:6]([H:12])([H:15])[H:16])([H:13])[H:14])([H:10])[H:11])([H:7])([H:8])[H:9]"
C        2.68180183      -0.37232814       0.12833105
O        1.56011299       0.29237809      -0.38633268
C        0.44029501       0.19396945       0.45126112
C       -0.70656934       1.00266511      -0.05646881
C       -2.00477482       0.47204697       0.40618534
C       -1.84277626      -0.13009140      -0.98214667
H        2.48609707      -1.44285488       0.28094686
H        3.48855290      -0.26056358      -0.59467428
H        3.00202101       0.05906097       1.08637687
H        0.20638322      -0.87336461       0.63658663
H        0.64774666       0.64046114       1.44126537
H       -0.92605201       0.54892708      -1.43847442
H       -2.81577804       1.18710174       0.49971784
H       -2.00718416      -0.27568233       1.20069701
H       -1.57863682      -1.18288098      -0.99714462
H       -2.63123924       0.14115538      -1.67612662
16
Frame=4 idx=001105 GeodesicLength=0.2252301992268645 rxn_smarts="[C:1]([O:2][C:3]([C:4]1([H:12])[C:5]([H:13])([H:14])[C:6]1([H:15])[H:16])([H:10])[H:11])([H:7])([H:8])[H:9]>>[C:1]([O:2][C:3]([C:4][C:5]([C:6]([H:12])([H:15])[H:16])([H:13])[H:14])([H:10])[H:11])([H:7])([H:8])[H:9]"
C        2.68855888      -0.37269249       0.13503631
O        1.56631063       0.28523346      -0.38717589
C        0.44473076       0.18918514       0.44811397
C       -0.70307995       0.99046977      -0.06310240
C       -2.00343600       0.46942162       0.40554684
C       -1.85298154      -0.12839110      -0.98581339
H        2.49579909      -1.44279763       0.29410804
H        3.49720074      -0.26330408      -0.58620301
H        3.00458973       0.06588546       1.09123617
H        0.21063793      -0.87713479       0.63766084
H        0.64971499       0.63958586       1.43719402
H       -0.94484398       0.57889398      -1.45725536
H       -2.80562977       1.19382798       0.50344478
H       -2.00691318      -0.27944629       1.19891583
H       -1.58219514      -1.17952850      -1.00705859
H       -2.65846319       0.13079160      -1.66464818
16
Frame=5 idx=001105 GeodesicLength=0.2814172750541473 rxn_smarts="[C:1]([O:2][C:3]([C:4]1([H:12])[C:5]([H:13])([H:14])[C:6]1([H:15])[H:16])([H:10])[H:11])([H:7])([H:8])[H:9]>>[C:1]([O:2][C:3]([C:4][C:5]([C:6]([H:12])([H:15])[H:16])([H:13])[H:14])([H:10])[H:11])([H:7])([H:8])[H:9]"
C        2.69531307      -0.37315332       0.14178348
O        1.57254093       0.27781354      -0.38807706
C        0.44922457       0.18435491       0.44495928
C       -0.69955771       0.97789137      -0.07017742
C       -2.00200496       0.46666780       0.40475522
C       -1.86322721      -0.12676525      -0.98959440
H        2.50546373      -1.44274722       0.30755711
H        3.50582563      -0.26629857      -0.57772030
H        3.00715689       0.07280918       1.09597032
H        0.21497794      -0.88087856       0.63908079
H        0.65170022       0.63912140       1.43288732
H       -0.96465137       0.61013586      -1.47515201
H       -2.79521188       1.20037166       0.50699206
H       -2.00658601      -0.28332680       1.19698812
H       -1.58572844      -1.17615095      -1.01728143
H       -2.68523539       0.12015496      -1.65297109
16
Frame=6 idx=001105 GeodesicLength=0.33755855561569825 rxn_smarts="[C:1]([O:2][C:3]([C:4]1([H:12])[C:5]([H:13])([H:14])[C:6]1([H:15])[H:16])([H:10])[H:11])([H:7])([H:8])[H:9]>>[C:1]([O:2][C:3]([C:4][C:5]([C:6]([H:12])([H:15])[H:16])([H:13])[H:14])([H:10])[H:11])([H:7])([H:8])[H:9]"
C        2.70207943      -0.37370111       0.14858933
O        1.57882811       0.27011633      -0.38903822
C        0.45377998       0.17946891       0.44176327
C       -0.69599662       0.96489399      -0.07775057
C       -2.00046636       0.46378612       0.40379979
C       -1.87354352      -0.12522504      -0.99349592
H        2.51510752      -1.44268961       0.32130374
H        3.51445867      -0.26953112      -0.56918782
H        3.00971343       0.07983959       1.10059757
H        0.21941175      -0.88459960       0.64081726
H        0.65368716       0.63906873       1.42830125
H       -0.98549391       0.64262717      -1.49205270
H       -2.78449134       1.20674551       0.51036440
H       -2.00618667      -0.28731527       1.19490906
H       -1.58932060      -1.17276817      -1.02780876
H       -2.71156704       0.10928356      -1.64111169
16
Frame=7 idx=001105 GeodesicLength=0.3936530812344065 rxn_smarts="[C:1]([O:2][C:3]([C:4]1([H:12])[C:5]([H:13])([H:14])[C:6]1([H:15])[H:16])([H:10])[H:11])([H:7])([H:8])[H:9]>>[C:1]([O:2][C:3]([C:4][C:5]([C:6]([H:12])([H:15])[H:16])([H:13])[H:14])([H:10])[H:11])([H:7])([H:8])[H:9]"
C        2.70887175      -0.37432569       0.15546951
O        1.58519803       0.26214935      -0.39005945
C        0.45839979       0.17452148       0.43849121
C       -0.69239299       0.95144377      -0.08588052
C       -1.99880473       0.46077889       0.40266935
C       -1.88396112      -0.12378248      -0.99752249
H        2.52474316      -1.44261360       0.33534091
H        3.52313249      -0.27297628      -0.56056476
H        3.01224621       0.08697128       1.10514369
H        0.22394910      -0.88829915       0.64283950
H        0.65565762       0.63943226       1.42339279
H       -1.00737732       0.67632350      -1.50784259
H       -2.77343308       1.21296383       0.51356244
H       -2.00569922      -0.29140028       1.19267579
H       -1.59306101      -1.16940436      -1.03862952
H       -2.73746870       0.09821749      -1.62908585
16
Frame=8 idx=001105 GeodesicLength=0.4497045934492895 rxn_smarts="[C:1]([O:2][C:3]([C:4]1([H:12])[C:5]([H:13])([H:14])[C:6]1([H:15])[H:16])([H:10])[H:11])([H:7])([H:8])[H:9]>>[C:1]([O:2][C:3]([C:4][C:5]([C:6]([H:12])([H:15])[H:16])([H:13])[H:14])([H:10])[H:11])([H:7])([H:8])[H:9]"
C        2.71570380      -0.37501423       0.16244123
O        1.59167610       0.25391536      -0.39114425
C        0.46308630       0.16950419       0.43510446
C       -0.68874409       0.93750173      -0.09462632
C       -1.99700385       0.45764567       0.40135310
C       -1.89451435      -0.12244805      -1.00167998
H        2.53438511      -1.44250361       0.34967766
H        3.53187798      -0.27661338      -0.55181139
H        3.01474262       0.09421419       1.10962933
H        0.22859952      -0.89198030       0.64511462
H        0.65759337       0.64021442       1.41811274
H       -1.03028907       0.71117244      -1.52239859
H       -2.76199947       1.21903866       0.51659232
H       -2.00510673      -0.29557540       1.19028418
H       -1.59704901      -1.16608786      -1.04973539
H       -2.76295823       0.08701618      -1.61691372
16
Frame=9 idx=001105 GeodesicLength=0.505716005330076 rxn_smarts="[C:1]([O:2][C:3]([C:4]1([H:12])[C:5]([H:13])([H:14])[C:6]1([H:15])[H:16])([H:10])[H:11])([H:7])([H:8])[H:9]>>[C:1]([O:2][C:3]([C:4][C:5]([C:6]([H:12])([H:15])[H:16])([H:13])[H:14])([H:10])[H:11])([H:7])([H:8])[H:9]"
C        2.72258819      -0.37575176       0.16952191
O        1.59828722       0.24541737      -0.39229733
C        0.46784077       0.16440834       0.43156189
C       -0.68504922       0.92302618      -0.10404703
C       -1.99504733       0.45438505       0.39984000
C       -1.90523968      -0.12123010      -1.00597371
H        2.54404711      -1.44234184       0.36432472
H        3.54072534      -0.28041976      -0.54288706
H        3.01718784       0.10158171       1.11407460
H        0.23337226      -0.89564610       0.64760771
H        0.65947482       0.64141683       1.41240849
H       -1.05419659       0.74710883      -1.53559407
H       -2.75014963       1.22498137       0.51946135
H       -2.00439279      -0.29983595       1.18772929
H       -1.60139137      -1.16284742      -1.06111662
H       -2.78805693       0.07574726      -1.60461413
16
Frame=10 idx=001105 GeodesicLength=0.5616919638335498 rxn_smarts="[C:1]([O:2][C:3]([C:4]1([H:12])[C:5]([H:13])([H:14])[C:6]1([H:15])[H:16])([H:10])[H:11])([H:7])([H:8])[H:9]>>[C:1]([O:2][C:3]([C:4][C:5]([C:6]([H:12])([H:15])[H:16])([H:13])[H:14])([H:10])[H:11])([H:7])([H:8])[H:9]"
C        2.72953576      -0.37652081       0.17672815
O        1.60505533       0.23666121      -0.39352375
C        0.47266310       0.15922544       0.42782095
C       -0.68130992       0.90797310      -0.11420038
C       -1.99291907       0.45099547       0.39811913
C       -1.91617527      -0.12013599      -1.01040767
H        2.55374122      -1.44210899       0.37928849
H        3.54970368      -0.28436655      -0.53375049
H        3.01956367       0.10908678       1.11850052
H        0.23827641      -0.89929937       0.65028277
H        0.66128050       0.64304007       1.40622564
H       -1.07904043       0.78405119      -1.54730213
H       -2.73783981       1.23080400       0.52217703
H       -2.00354227      -0.30417749       1.18500696
H       -1.60620220      -1.15971537      -1.07275965
H       -2.81279068       0.06448733      -1.59220557
16
Frame=11 idx=001105 GeodesicLength=0.6176533559474522 rxn_smarts="[C:1]([O:2][C:3]([C:4]1([H:12])[C:5]([H:13])([H:14])[C:6]1([H:15])[H:16])([H:10])[H:11])([H:7])([H:8])[H:9]>>[C:1]([O:2][C:3]([C:4][C:5]([C:6]([H:12])([H:15])[H:16])([H:13])[H:14])([H:10])[H:11])([H:7])([H:8])[H:9]"
C        2.73655560      -0.37730082       0.18407534
O        1.61200129       0.22765035      -0.39483353
C        0.47755135       0.15394475       0.42383919
C       -0.67753053       0.89229670      -0.12514035
C       -1.99060371       0.44747431       0.39618294
C       -1.92736157      -0.11917130      -1.01498872
H        2.56348061      -1.44178546       0.39458462
H        3.55883901      -0.28842420      -0.52436656
H        3.02185026       0.11675568       1.12292533
H        0.24332007      -0.90294857       0.65310627
H        0.66298792       0.64508380       1.39951186
H       -1.10473060       0.82191073      -1.55740255
H       -2.72502325       1.23652186       0.52475386
H       -2.00254211      -0.30860178       1.18211818
H       -1.61160283      -1.15673058      -1.08465442
H       -2.83719151       0.05332453      -1.57971147
16
Frame=12 idx=001105 GeodesicLength=0.6736620730867434 rxn_smarts="[C:1]([O:2][C:3]([C:4]1([H:12])[C:5]([H:13])([H:14])[C:6]1([H:15])[H:16])([H:10])[H:11])([H:7])([H:8])[H:9]>>[C:1]([O:2][C:3]([C:4][C:5]([C:6]([H:12])([H:15])[H:16])([H:13])[H:14])([H:10])[H:11])([H:7])([H:8])[H:9]"
C        2.74366825      -0.37807714       0.19157711
O        1.61914040       0.21837723      -0.39625645
C        0.48250233       0.14855363       0.41958097
C       -0.67373366       0.87596247      -0.13691972
C       -1.98809942       0.44382365       0.39403984
C       -1.93884401      -0.11833996      -1.01974590
H        2.57331451      -1.44137419       0.41026150
H        3.56816410      -0.29258153      -0.51472538
H        3.02403335       0.12464345       1.12736909
H        0.24852931      -0.90662377       0.65606746
H        0.66456839       0.64756159       1.39223701
H       -1.13117755       0.86061873      -1.56580802
H       -2.71168184       1.24217374       0.52723349
H       -2.00137874      -0.31312605       1.17909671
H       -1.61769870      -1.15395570      -1.09682570
H       -2.86130670       0.04236385      -1.56718203
16
Frame=13 idx=001105 GeodesicLength=0.7293860143046194 rxn_smarts="[C:1]([O:2][C:3]([C:4]1([H:12])[C:5]([H:13])([H:14])[C:6]1([H:15])[H:16])([H:10])[H:11])([H:7])([H:8])[H:9]>>[C:1]([O:2][C:3]([C:4][C:5]([C:6]([H:12])([H:15])[H:16])([H:13])[H:14])([H:10])[H:11])([H:7])([H:8])[H:9]"
C        2.75082243      -0.37880017       0.19924689
O        1.62648320       0.20887734      -0.39771596
C        0.48750592       0.14305761       0.41497602
C       -0.66988321       0.85887534      -0.14955464
C       -1.98536046       0.44000772       0.39160244
C       -1.95063729      -0.11761431      -1.02455916
H        2.58311948      -1.44073118       0.42620396
H        3.57764893      -0.29674049      -0.50468944
H        3.02606211       0.13266354       1.13179827
H        0.25384681      -0.91020798       0.65904496
H        0.66601998       0.65040540       1.38423158
H       -1.15811351       0.89985728      -1.57225506
H       -2.69767713       1.24762859       0.52949181
H       -2.00006450      -0.31769704       1.17575549
H       -1.62465048      -1.15127542      -1.10911854
H       -2.88512227       0.03169377      -1.55445863
16
Frame=14 idx=001105 GeodesicLength=0.7853470201937643 rxn_smarts="[C:1]([O:2][C:3]([C:4]1([H:12])[C:5]([H:13])([H:14])[C:6]1([H:15])[H:16])([H:10])[H:11])([H:7])([H:8])[H:9]>>[C:1]([O:2][C:3]([C:4][C:5]([C:6]([H:12])([H:15])[H:16])([H:13])[H:14])([H:10])[H:11])([H:7])([H:8])[H:9]"
C        2.75809046      -0.37946546       0.20709857
O        1.63404013       0.19908776      -0.39935747
C        0.49255672       0.13740804       0.41001039
C       -0.66605493       0.84103788      -0.16311688
C       -1.98241521       0.43605412       0.38897854
C       -1.96283059      -0.11702016      -1.02959116
H        2.59308964      -1.43997235       0.44265760
H        3.58736986      -0.30096207      -0.49437366
H        3.02794681       0.14106493       1.13626622
H        0.25935390      -0.91389427       0.66211293
H        0.66728972       0.65367727       1.37558951
H       -1.18548922       0.93979647      -1.57685294
H       -2.68305409       1.25308649       0.53174466
H       -1.99856496      -0.32242179       1.17234073
H       -1.63255595      -1.14892777      -1.12172491
H       -2.90877230       0.02145092      -1.54178213
16
Frame=15 idx=001105 GeodesicLength=0.841119339002279 rxn_smarts="[C:1]([O:2][C:3]([C:4]1([H:12])[C:5]([H:13])([H:14])[C:6]1([H:15])[H:16])([H:10])[H:11])([H:7])([H:8])[H:9]>>[C:1]([O:2][C:3]([C:4][C:5]([C:6]([H:12])([H:15])[H:16])([H:13])[H:14])([H:10])[H:11])([H:7])([H:8])[H:9]"
C        2.76543960      -0.37998830       0.21518225
O        1.64182121       0.18889377      -0.40113604
C        0.49764701       0.13152198       0.40455051
C       -0.66219736       0.82225177      -0.17764338
C       -1.97920529       0.43188387       0.38605288
C       -1.97548062      -0.11647522      -1.03472187
H        2.60316448      -1.43882327       0.45976888
H        3.59731050      -0.30522497      -0.48358818
H        3.02964190       0.14997594       1.14061950
H        0.26497597      -0.91759623       0.66509084
H        0.66838436       0.65721213       1.36602265
H       -1.21299825       0.98015021      -1.57923397
H       -2.66761681       1.25835965       0.53391135
H       -1.99689854      -0.32728646       1.16857449
H       -1.64166821      -1.14669901      -1.13452610
H       -2.93231996       0.01184415      -1.52892383
16
Frame=16 idx=001105 GeodesicLength=0.8969845704433104 rxn_smarts="[C:1]([O:2][C:3]([C:4]1([H:12])[C:5]([H:13])([H:14])[C:6]1([H:15])[H:16])([H:10])[H:11])([H:7])([H:8])[H:9]>>[C:1]([O:2][C:3]([C:4][C:5]([C:6]([H:12])([H:15])[H:16])([H:13])[H:14])([H:10])[H:11])([H:7])([H:8])[H:9]"
C        2.77287850      -0.38036200       0.22347284
O        1.64981052       0.17834444      -0.40310873
C        0.50275793       0.12541501       0.39862038
C       -0.65838146       0.80255041      -0.19313337
C       -1.97576015       0.42752810       0.38289156
C       -1.98861651      -0.11600294      -1.04001366
H        2.61340193      -1.43738130       0.47749962
H        3.60748237      -0.30947419      -0.47242315
H        3.03112439       0.15941905       1.14492820
H        0.27076122      -0.92139621       0.66805205
H        0.66926224       0.66107664       1.35563064
H       -1.24041334       1.02087472      -1.57949822
H       -2.65139649       1.26356844       0.53606074
H       -1.99506860      -0.33233206       1.16462014
H       -1.65203855      -1.14476455      -1.14757445
H       -2.95580401       0.00293642      -1.51602458
