14
Frame=0 idx=005768 GeodesicLength=0.0 rxn_smarts="[O:1]([C@@:2]1([H:8])[C@@:3]2([H:9])[C:4]([H:10])([H:11])[C:5]([H:12])([H:13])[C@@:6]12[H:14])[H:7]>>[H:7][H:8].[O:1]=[C:2]1[C@@:3]2([H:9])[C:4]([H:10])([H:11])[C:5]([H:12])([H:13])[C@@:6]12[H:14]"
O        1.51860764      -1.47071171      -0.42514396
C        0.93220163      -0.59986762       0.34431912
C        0.47071377       0.81012852       0.22964491
C       -0.38154780       0.87714552      -1.03714855
C       -1.30461675      -0.24123355      -0.47891019
C       -0.45690506      -0.31052168       0.79103479
H        1.92790795      -1.13020423       0.92073136
H        1.58721981      -0.52894843       1.56964367
H        0.94243633       1.64655685       0.72850216
H        0.14840698       0.65432950      -1.96350332
H       -0.89919026       1.82959435      -1.13624527
H       -2.31534598       0.11296803      -0.28441242
H       -1.34927514      -1.16637473      -1.05405874
H       -0.82061315      -0.48286080       1.79554642
14
Frame=1 idx=005768 GeodesicLength=0.09733380700712259 rxn_smarts="[O:1]([C@@:2]1([H:8])[C@@:3]2([H:9])[C:4]([H:10])([H:11])[C:5]([H:12])([H:13])[C@@:6]12[H:14])[H:7]>>[H:7][H:8].[O:1]=[C:2]1[C@@:3]2([H:9])[C:4]([H:10])([H:11])[C:5]([H:12])([H:13])[C@@:6]12[H:14]"
O        1.51745486      -1.47119121      -0.41481732
C        0.92969168      -0.59683027       0.34921182
C        0.46838396       0.81105849       0.22592819
C       -0.38536682       0.87910431      -1.03956316
C       -1.30846298      -0.23910665      -0.48194629
C       -0.46081135      -0.31088309       0.78763691
H        1.95333357      -1.14450158       0.92636072
H        1.60574075      -0.53426992       1.57948299
H        0.93840575       1.64835072       0.72508064
H        0.14385741       0.65772660      -1.96675090
H       -0.90310403       1.83164901      -1.13731006
H       -2.31879077       0.11592918      -0.28686374
H       -1.35492267      -1.16344687      -1.05824130
H       -0.82540936      -0.48358871       1.79179149
14
Frame=2 idx=005768 GeodesicLength=0.19454639834522452 rxn_smarts="[O:1]([C@@:2]1([H:8])[C@@:3]2([H:9])[C:4]([H:10])([H:11])[C:5]([H:12])([H:13])[C@@:6]12[H:14])[H:7]>>[H:7][H:8].[O:1]=[C:2]1[C@@:3]2([H:9])[C:4]([H:10])([H:11])[C:5]([H:12])([H:13])[C@@:6]12[H:14]"
O        1.51633394      -1.47156481      -0.40395784
C        0.92692095      -0.59362060       0.35426691
C        0.46586558       0.81210487       0.22224797
C       -0.38925912       0.88110070      -1.04202081
C       -1.31241416      -0.23693559      -0.48505884
C       -0.46496287      -0.31110232       0.78425657
H        1.97965716      -1.15941979       0.93181661
H        1.62483136      -0.53989921       1.58912668
H        0.93420833       1.65022827       0.72172456
H        0.13931822       0.66112753      -1.96998297
H       -0.90709726       1.83372762      -1.13850820
H       -2.32236864       0.11892081      -0.28951342
H       -1.36059034      -1.16050237      -1.06245549
H       -0.83044316      -0.48416512       1.78805829
14
Frame=3 idx=005768 GeodesicLength=0.2916980250601948 rxn_smarts="[O:1]([C@@:2]1([H:8])[C@@:3]2([H:9])[C:4]([H:10])([H:11])[C:5]([H:12])([H:13])[C@@:6]12[H:14])[H:7]>>[H:7][H:8].[O:1]=[C:2]1[C@@:3]2([H:9])[C:4]([H:10])([H:11])[C:5]([H:12])([H:13])[C@@:6]12[H:14]"
O        1.51525093      -1.47181995      -0.39250933
C        0.92386518      -0.59022107       0.35950069
C        0.46314059       0.81328158       0.21861354
C       -0.39322863       0.88313682      -1.04452348
C       -1.31647693      -0.23471780      -0.48825306
C       -0.46938174      -0.31116367       0.78090061
H        2.00695609      -1.17501677       0.93707574
H        1.64453673      -0.54587159       1.59853490
H        0.92982535       1.65220510       0.71844121
H        0.13479698       0.66452899      -1.97319421
H       -0.91117612       1.83583026      -1.13985401
H       -2.32609022       0.12194330      -0.29238182
H       -1.36627351      -1.15754345      -1.06670119
H       -0.83574470      -0.48457174       1.78435042
14
Frame=4 idx=005768 GeodesicLength=0.3888438907522461 rxn_smarts="[O:1]([C@@:2]1([H:8])[C@@:3]2([H:9])[C:4]([H:10])([H:11])[C:5]([H:12])([H:13])[C@@:6]12[H:14])[H:7]>>[H:7][H:8].[O:1]=[C:2]1[C@@:3]2([H:9])[C:4]([H:10])([H:11])[C:5]([H:12])([H:13])[C@@:6]12[H:14]"
O        1.51421304      -1.47194015      -0.38040559
C        0.92049772      -0.58661128       0.36493402
C        0.46018772       0.81460536       0.21503630
C       -0.39727909       0.88521484      -1.04707327
C       -1.32065814      -0.23245043      -0.49153447
C       -0.47409361      -0.31104848       0.77757755
H        2.03531362      -1.19136046       0.94210699
H        1.66491012      -0.55222800       1.60765905
H        0.92523275       1.65429979       0.71523898
H        0.13030391       0.66792671      -1.97637771
H       -0.91534677       1.83795620      -1.14136517
H       -2.32996674       0.12499673      -0.29549266
H       -1.37196543      -1.15457304      -1.07097707
H       -0.84134909      -0.48478780       1.78067306
14
Frame=5 idx=005768 GeodesicLength=0.4860243220177587 rxn_smarts="[O:1]([C@@:2]1([H:8])[C@@:3]2([H:9])[C:4]([H:10])([H:11])[C:5]([H:12])([H:13])[C@@:6]12[H:14])[H:7]>>[H:7][H:8].[O:1]=[C:2]1[C@@:3]2([H:9])[C:4]([H:10])([H:11])[C:5]([H:12])([H:13])[C@@:6]12[H:14]"
O        1.51322707      -1.47190668      -0.36757519
C        0.91679020      -0.58276901       0.37059048
C        0.45698540       0.81609288       0.21152852
C       -0.40141420       0.88733653      -1.04967229
C       -1.32496463      -0.23013142      -0.49490945
C       -0.47912501      -0.31073804       0.77429627
H        2.06481571      -1.20852187       0.94687695
H        1.68600716      -0.55901078       1.61644484
H        0.92040676       1.65653235       0.71212852
H        0.12585016       0.67131562      -1.97952637
H       -0.91961613       1.84010482      -1.14305952
H       -2.33401018       0.12808050      -0.29887152
H       -1.37765840      -1.15159532      -1.07528272
H       -0.84729392      -0.48478959       1.77703149
14
Frame=6 idx=005768 GeodesicLength=0.5832740299286636 rxn_smarts="[O:1]([C@@:2]1([H:8])[C@@:3]2([H:9])[C:4]([H:10])([H:11])[C:5]([H:12])([H:13])[C@@:6]12[H:14])[H:7]>>[H:7][H:8].[O:1]=[C:2]1[C@@:3]2([H:9])[C:4]([H:10])([H:11])[C:5]([H:12])([H:13])[C@@:6]12[H:14]"
O        1.51229851      -1.47169651      -0.35393376
C        0.91271212      -0.57866845       0.37650222
C        0.45350727       0.81776513       0.20810651
C       -0.40563638       0.88950337      -1.05232215
C       -1.32940272      -0.22775868      -0.49838469
C       -0.48450791      -0.31020911       0.77106867
H        2.09555268      -1.22658630       0.95133393
H        1.70789748      -0.56626597       1.62482813
H        0.91531505       1.65892714       0.70912232
H        0.12145234       0.67468929      -1.98262936
H       -0.92398996       1.84227329      -1.14495967
H       -2.33823271       0.13119240      -0.30254987
H       -1.38334052      -1.14861581      -1.07961523
H       -0.85362527      -0.48454979       1.77343296
14
Frame=7 idx=005768 GeodesicLength=0.680605000944027 rxn_smarts="[O:1]([C@@:2]1([H:8])[C@@:3]2([H:9])[C:4]([H:10])([H:11])[C:5]([H:12])([H:13])[C@@:6]12[H:14])[H:7]>>[H:7][H:8].[O:1]=[C:2]1[C@@:3]2([H:9])[C:4]([H:10])([H:11])[C:5]([H:12])([H:13])[C@@:6]12[H:14]"
O        1.51143098      -1.47128330      -0.33939351
C        0.90823301      -0.57428213       0.38270616
C        0.44972805       0.81964269       0.20478743
C       -0.40994701       0.89171548      -1.05502413
C       -1.33397795      -0.22533162      -0.50196728
C       -0.49027383      -0.30943890       0.76790669
H        2.12761334      -1.24563895       0.95541639
H        1.73064816      -0.57404131       1.63274489
H        0.90992567       1.66151153       0.70623514
H        0.11712901       0.67803903      -1.98567538
H       -0.92847399       1.84445823      -1.14708796
H       -2.34264639       0.13432905      -0.30656039
H       -1.38899859      -1.14564227      -1.08397231
H       -0.86039045      -0.48403752       1.76988427
14
Frame=8 idx=005768 GeodesicLength=0.7780140635364629 rxn_smarts="[O:1]([C@@:2]1([H:8])[C@@:3]2([H:9])[C:4]([H:10])([H:11])[C:5]([H:12])([H:13])[C@@:6]12[H:14])[H:7]>>[H:7][H:8].[O:1]=[C:2]1[C@@:3]2([H:9])[C:4]([H:10])([H:11])[C:5]([H:12])([H:13])[C@@:6]12[H:14]"
O        1.51062814      -1.47063449      -0.32385392
C        0.90332065      -0.56957560       0.38925039
C        0.44561761       0.82175330       0.20159350
C       -0.41434600       0.89397285      -1.05777869
C       -1.33869397      -0.22285108      -0.50566467
C       -0.49645846      -0.30839877       0.76482637
H        2.16108019      -1.26578614       0.95904750
H        1.75434263      -0.58238919       1.64011188
H        0.90419838       1.66432059       0.70348506
H        0.11290577       0.68135521      -1.98864881
H       -0.93307472       1.84665303      -1.14947210
H       -2.34726393       0.13748228      -0.31094249
H       -1.39461175      -1.14268597      -1.08834924
H       -0.86764454      -0.48321602       1.76639523
14
Frame=9 idx=005768 GeodesicLength=0.8753885061616912 rxn_smarts="[O:1]([C@@:2]1([H:8])[C@@:3]2([H:9])[C:4]([H:10])([H:11])[C:5]([H:12])([H:13])[C@@:6]12[H:14])[H:7]>>[H:7][H:8].[O:1]=[C:2]1[C@@:3]2([H:9])[C:4]([H:10])([H:11])[C:5]([H:12])([H:13])[C@@:6]12[H:14]"
O        1.50990100      -1.46969537      -0.30720785
C        0.89795364      -0.56451713       0.39619079
C        0.44114841       0.82411555       0.19854742
C       -0.41882768       0.89627131      -1.06058419
C       -1.34354483      -0.22032148      -0.50947910
C       -0.50309204      -0.30706777       0.76184685
H        2.19596260      -1.28714263       0.96210478
H        1.77907566      -0.59133229       1.64685636
H        0.89808501       1.66738343       0.70088797
H        0.10881091       0.68462615      -1.99153151
H       -0.93778980       1.84884747      -1.15213824
H       -2.35208280       0.14064123      -0.31573047
H       -1.40014937      -1.13976017      -1.09273296
H       -0.87545071      -0.48204830       1.76297014
14
Frame=10 idx=005768 GeodesicLength=0.9728258294140433 rxn_smarts="[O:1]([C@@:2]1([H:8])[C@@:3]2([H:9])[C:4]([H:10])([H:11])[C:5]([H:12])([H:13])[C@@:6]12[H:14])[H:7]>>[H:7][H:8].[O:1]=[C:2]1[C@@:3]2([H:9])[C:4]([H:10])([H:11])[C:5]([H:12])([H:13])[C@@:6]12[H:14]"
O        1.50925039      -1.46842662      -0.28933770
C        0.89208821      -0.55905843       0.40358532
C        0.43628364       0.82676853       0.19567704
C       -0.42339387       0.89861212      -1.06344188
C       -1.34853658      -0.21774549      -0.51342371
C       -0.51021834      -0.30540856       0.75898487
H        2.23237052      -1.30986095       0.96452395
H        1.80495466      -0.60092931       1.65286332
H        0.89153768       1.67075055       0.69846993
H        0.10487628       0.68784185      -1.99430508
H       -0.94263407       1.85103450      -1.15512007
H       -2.35712429       0.14379166      -0.32097763
H       -1.40558494      -1.13688154      -1.09712374
H       -0.88386929      -0.48048832       1.75962538
14
Frame=11 idx=005768 GeodesicLength=1.0703116556705694 rxn_smarts="[O:1]([C@@:2]1([H:8])[C@@:3]2([H:9])[C:4]([H:10])([H:11])[C:5]([H:12])([H:13])[C@@:6]12[H:14])[H:7]>>[H:7][H:8].[O:1]=[C:2]1[C@@:3]2([H:9])[C:4]([H:10])([H:11])[C:5]([H:12])([H:13])[C@@:6]12[H:14]"
O        1.50868213      -1.46676172      -0.27012754
C        0.88569434      -0.55315114       0.41150330
C        0.43098726       0.82974499       0.19301192
C       -0.42804080       0.90099287      -1.06635066
C       -1.35366362      -0.21513066      -0.51750665
C       -0.51787524      -0.30339044       0.75626119
H        2.27032438      -1.33412353       0.96620554
H        1.83210854      -0.61119389       1.65801839
H        0.88449859       1.67446870       0.69625599
H        0.10113809       0.69099201      -1.99694772
H       -0.94761523       1.85320239      -1.15845047
H       -2.36239343       0.14691291      -0.32673359
H       -1.41087731      -1.13407044      -1.10151322
H       -0.89296769      -0.47849206       1.75637350
14
Frame=12 idx=005768 GeodesicLength=1.167813310314666 rxn_smarts="[O:1]([C@@:2]1([H:8])[C@@:3]2([H:9])[C:4]([H:10])([H:11])[C:5]([H:12])([H:13])[C@@:6]12[H:14])[H:7]>>[H:7][H:8].[O:1]=[C:2]1[C@@:3]2([H:9])[C:4]([H:10])([H:11])[C:5]([H:12])([H:13])[C@@:6]12[H:14]"
O        1.50820498      -1.46461968      -0.24945225
C        0.87874658      -0.54673737       0.42002786
C        0.42522187       0.83308533       0.19058664
C       -0.43276143       0.90341031      -1.06930616
C       -1.35891352      -0.21249009      -0.52173550
C       -0.52609845      -0.30097959       0.75369943
H        2.30979553      -1.36015606       0.96703129
H        1.86068618      -0.62211959       1.66218553
H        0.87689866       1.67859767       0.69427372
H        0.09764090       0.69406736      -1.99943087
H       -0.95274220       1.85533396      -1.16216316
H       -2.36789180       0.14997226      -0.33305263
H       -1.41597145      -1.13135428      -1.10589065
H       -0.90281585      -0.47601021       1.75322676
14
Frame=13 idx=005768 GeodesicLength=1.2652945543858296 rxn_smarts="[O:1]([C@@:2]1([H:8])[C@@:3]2([H:9])[C:4]([H:10])([H:11])[C:5]([H:12])([H:13])[C@@:6]12[H:14])[H:7]>>[H:7][H:8].[O:1]=[C:2]1[C@@:3]2([H:9])[C:4]([H:10])([H:11])[C:5]([H:12])([H:13])[C@@:6]12[H:14]"
O        1.50783508      -1.46190066      -0.22718636
C        0.87122769      -0.53974945       0.42924770
C        0.41895123       0.83683299       0.18843728
C       -0.43754698       0.90586011      -1.07230299
C       -1.36426572      -0.20984316      -0.52611730
C       -0.53491606      -0.29814484       0.75132312
H        2.35068406      -1.38822924       0.96687035
H        1.89085575      -0.63366650       1.66522517
H        0.86866267       1.68320600       0.69255373
H        0.09443252       0.69706051      -2.00172460
H       -0.95802759       1.85740899      -1.16629074
H       -2.37361420       0.15292561      -0.33998860
H       -1.42079880      -1.12876711      -1.11024419
H       -0.91347966      -0.47299326       1.75019742
14
Frame=14 idx=005768 GeodesicLength=1.3627080674091234 rxn_smarts="[O:1]([C@@:2]1([H:8])[C@@:3]2([H:9])[C:4]([H:10])([H:11])[C:5]([H:12])([H:13])[C@@:6]12[H:14])[H:7]>>[H:7][H:8].[O:1]=[C:2]1[C@@:3]2([H:9])[C:4]([H:10])([H:11])[C:5]([H:12])([H:13])[C@@:6]12[H:14]"
O        1.50758942      -1.45848852      -0.20321051
C        0.86312986      -0.53210941       0.43926543
C        0.41213869       0.84103841       0.18660632
C       -0.44238412       0.90833685      -1.07533158
C       -1.36968885      -0.20721621      -0.53065654
C       -0.54434997      -0.29485494       0.74915941
H        2.39281216      -1.41866114       0.96558259
H        1.92280621      -0.64575483       1.66697083
H        0.85970410       1.68837270       0.69113070
H        0.09157026       0.69996657      -2.00379216
H       -0.96348548       1.85940061      -1.17086632
H       -2.37954649       0.15571278      -0.34759844
H       -1.42527159      -1.12635077      -1.11455804
H       -0.92502419      -0.46939210       1.74729830
14
Frame=15 idx=005768 GeodesicLength=1.4600169118281736 rxn_smarts="[O:1]([C@@:2]1([H:8])[C@@:3]2([H:9])[C:4]([H:10])([H:11])[C:5]([H:12])([H:13])[C@@:6]12[H:14])[H:7]>>[H:7][H:8].[O:1]=[C:2]1[C@@:3]2([H:9])[C:4]([H:10])([H:11])[C:5]([H:12])([H:13])[C@@:6]12[H:14]"
O        1.50749216      -1.45424906      -0.17741988
C        0.85445976      -0.52373047       0.45018481
C        0.40475214       0.84575397       0.18513571
C       -0.44725709       0.91083438      -1.07837987
C       -1.37513950      -0.20464428      -0.53535600
C       -0.55440691      -0.29108557       0.74723372
H        2.43589738      -1.45181798       0.96303037
H        1.95674347      -0.65824989       1.66725275
H        0.84993050       1.69418547       0.69004097
H        0.08911293       0.70278653      -2.00559495
H       -0.96913430       1.86127837      -1.17591694
H       -2.38566406       0.15825805      -0.35593379
H       -1.42928557      -1.12415444      -1.11881597
H       -0.93750092      -0.46516508       1.74453907
14
Frame=16 idx=005768 GeodesicLength=1.5572007110506407 rxn_smarts="[O:1]([C@@:2]1([H:8])[C@@:3]2([H:9])[C:4]([H:10])([H:11])[C:5]([H:12])([H:13])[C@@:6]12[H:14])[H:7]>>[H:7][H:8].[O:1]=[C:2]1[C@@:3]2([H:9])[C:4]([H:10])([H:11])[C:5]([H:12])([H:13])[C@@:6]12[H:14]"
O        1.50757578      -1.44902908      -0.14971147
C        0.84523735      -0.51451382       0.46212105
C        0.39676265       0.85103782       0.18407333
C       -0.45214368       0.91334437      -1.08143111
C       -1.38055912      -0.20217302      -0.54021603
C       -0.56508091      -0.28681637       0.74557388
H        2.47953623      -1.48811801       0.95904717
H        1.99289303      -0.67095585       1.66588456
H        0.83923748       1.70074400       0.68932680
H        0.08713063       0.70552482      -2.00708757
H       -0.97499370       1.86300381      -1.18146600
H       -2.39193071       0.16046499      -0.36504578
H       -1.43271174      -1.12223780      -1.12299914
H       -0.95095329      -0.46027585       1.74193031
