20
Frame=0 idx=003446 GeodesicLength=0.0 rxn_smarts="[C:1]([C:2]([C:3]([H:11])([H:12])[H:13])([C:4]([C:5]([H:15])([H:16])[H:17])([C:6]([H:18])([H:19])[H:20])[H:14])[H:10])([H:7])([H:8])[H:9]>>[C:1]([C:2](=[C:3]([H:11])[H:13])[H:10])([H:7])([H:8])[H:9].[C:4]([C:5]([H:15])([H:16])[H:17])(=[C:6]([H:19])[H:20])[H:14].[H:12][H:18]"
C       -1.94867541       0.82523391       0.56175071
C       -1.06911841      -0.39373937       0.49911892
C       -1.23260206      -1.32433838      -0.49421185
C        1.04644184       0.66049149       0.15543958
C        1.87887042      -0.16913772       1.09460669
C        1.30376150       0.65877926      -1.19111409
H       -1.56805695       1.57521234       1.25659284
H       -2.03759002       1.29370276      -0.42189389
H       -2.95904210       0.56326797       0.89013074
H       -0.59335359      -0.70693187       1.41870474
H       -0.85606146      -2.33253482      -0.36200695
H       -0.25835181      -0.94849004      -1.61149782
H       -2.05906045      -1.22793877      -1.19256627
H        0.51897073       1.50624296       0.57545755
H        2.00419582      -1.18389503       0.70736841
H        1.43111197      -0.24292097       2.08661842
H        2.87776412       0.25936110       1.21911717
H        0.40414021      -0.41328002      -1.80156516
H        0.94409359       1.46916587      -1.81537488
H        2.17256206       0.13174932      -1.57467485
20
Frame=1 idx=003446 GeodesicLength=0.09741624701572646 rxn_smarts="[C:1]([C:2]([C:3]([H:11])([H:12])[H:13])([C:4]([C:5]([H:15])([H:16])[H:17])([C:6]([H:18])([H:19])[H:20])[H:14])[H:10])([H:7])([H:8])[H:9]>>[C:1]([C:2](=[C:3]([H:11])[H:13])[H:10])([H:7])([H:8])[H:9].[C:4]([C:5]([H:15])([H:16])[H:17])(=[C:6]([H:19])[H:20])[H:14].[H:12][H:18]"
C       -1.95103704       0.83157468       0.53620176
C       -1.06748253      -0.38609013       0.50328480
C       -1.22479556      -1.33650374      -0.47595309
C        1.04487635       0.65309172       0.16619188
C        1.88574163      -0.18564915       1.08984353
C        1.30279527       0.66991989      -1.18359425
H       -1.57366356       1.60082796       1.21157989
H       -2.04236681       1.27757177      -0.45748384
H       -2.96045744       0.57718887       0.87294222
H       -0.61966100      -0.68894209       1.44068981
H       -0.80690922      -2.32972432      -0.35183706
H       -0.30023775      -0.93307722      -1.63767225
H       -2.08920529      -1.30576778      -1.13308337
H        0.54189433       1.50708701       0.60055036
H        2.02409569      -1.19187407       0.68557534
H        1.43887592      -0.28353163       2.08021846
H        2.87931798       0.25151560       1.22577459
H        0.37459561      -0.37421788      -1.81418634
H        0.98323127       1.51556484      -1.78262726
H        2.16039214       0.13103565      -1.57641520
20
Frame=2 idx=003446 GeodesicLength=0.19417132775751478 rxn_smarts="[C:1]([C:2]([C:3]([H:11])([H:12])[H:13])([C:4]([C:5]([H:15])([H:16])[H:17])([C:6]([H:18])([H:19])[H:20])[H:14])[H:10])([H:7])([H:8])[H:9]>>[C:1]([C:2](=[C:3]([H:11])[H:13])[H:10])([H:7])([H:8])[H:9].[C:4]([C:5]([H:15])([H:16])[H:17])(=[C:6]([H:19])[H:20])[H:14].[H:12][H:18]"
C       -1.95351853       0.83727607       0.51130405
C       -1.06607151      -0.37844653       0.50725119
C       -1.21724314      -1.34724227      -0.45881853
C        1.04312453       0.64607044       0.17647700
C        1.89219912      -0.20143353       1.08478115
C        1.30141312       0.68059773      -1.17642337
H       -1.57835853       1.62517041       1.16623780
H       -2.04833416       1.26082660      -0.49170446
H       -2.96171517       0.59059099       0.85691807
H       -0.64612411      -0.67106381       1.46115404
H       -0.76020797      -2.32469607      -0.34455880
H       -0.34263957      -0.91870083      -1.66224114
H       -2.11368897      -1.38086862      -1.07136776
H        0.56427684       1.50737231       0.62469916
H        2.04449007      -1.19846194       0.66349160
H        1.44548446      -0.32406245       2.07251637
H        2.87999916       0.24454572       1.23314955
H        0.34556540      -0.33623154      -1.82507275
H        1.02370265       1.55863532      -1.74942622
H        2.14764631       0.13012201      -1.57836695
20
Frame=3 idx=003446 GeodesicLength=0.29040546355313224 rxn_smarts="[C:1]([C:2]([C:3]([H:11])([H:12])[H:13])([C:4]([C:5]([H:15])([H:16])[H:17])([C:6]([H:18])([H:19])[H:20])[H:14])[H:10])([H:7])([H:8])[H:9]>>[C:1]([C:2](=[C:3]([H:11])[H:13])[H:10])([H:7])([H:8])[H:9].[C:4]([C:5]([H:15])([H:16])[H:17])(=[C:6]([H:19])[H:20])[H:14].[H:12][H:18]"
C       -1.95610260       0.84246003       0.48688974
C       -1.06485357      -0.37073075       0.51102868
C       -1.20997815      -1.35676100      -0.44260481
C        1.04119776       0.63946309       0.18642581
C        1.89827741      -0.21667285       1.07933560
C        1.29952671       0.69113938      -1.16950655
H       -1.58226394       1.64834832       1.12046878
H       -2.05527285       1.24354172      -0.52477007
H       -2.96284799       0.60367750       0.84174655
H       -0.67279198      -0.65317441       1.48023059
H       -0.71605448      -2.31782547      -0.33960206
H       -0.38523006      -0.90572890      -1.68516376
H       -2.13271384      -1.45336114      -1.00760569
H        0.58621218       1.50715991       0.64820536
H        2.06520002      -1.20376228       0.64090335
H        1.45110907      -0.36473668       2.06342522
H        2.87988960       0.23806566       1.24111848
H        0.31721681      -0.29932019      -1.83434882
H        1.06509369       1.59862180      -1.71567010
H        2.13438620       0.12959628      -1.58050631
20
Frame=4 idx=003446 GeodesicLength=0.3862411840815255 rxn_smarts="[C:1]([C:2]([C:3]([H:11])([H:12])[H:13])([C:4]([C:5]([H:15])([H:16])[H:17])([C:6]([H:18])([H:19])[H:20])[H:14])[H:10])([H:7])([H:8])[H:9]>>[C:1]([C:2](=[C:3]([H:11])[H:13])[H:10])([H:7])([H:8])[H:9].[C:4]([C:5]([H:15])([H:16])[H:17])(=[C:6]([H:19])[H:20])[H:14].[H:12][H:18]"
C       -1.95877669       0.84722023       0.46282284
C       -1.06380975      -0.36288661       0.51463159
C       -1.20304010      -1.36524033      -0.42712667
C        1.03910793       0.63328621       0.19614171
C        1.90400125      -0.23151248       1.07344627
C        1.29710320       0.70181911      -1.16275843
H       -1.58547316       1.67044116       1.07419143
H       -2.06300790       1.22576469      -0.55685829
H       -2.96388783       0.61661558       0.82718281
H       -0.69970757      -0.63516677       1.49803381
H       -0.67445388      -2.30943098      -0.33649108
H       -0.42783207      -0.89441646      -1.70650617
H       -2.14649512      -1.52335413      -0.94189601
H        0.60777528       1.50648193       0.67130545
H        2.08608062      -1.20785011       0.61765948
H        1.45587667      -0.40571960       2.05286544
H        2.87905760       0.23175290       1.24959995
H        0.28967340      -0.26345756      -1.84216283
H        1.10710741       1.63575291      -1.68128643
H        2.12070075       0.12990032      -1.58279486
20
Frame=5 idx=003446 GeodesicLength=0.48176659699004815 rxn_smarts="[C:1]([C:2]([C:3]([H:11])([H:12])[H:13])([C:4]([C:5]([H:15])([H:16])[H:17])([C:6]([H:18])([H:19])[H:20])[H:14])[H:10])([H:7])([H:8])[H:9]>>[C:1]([C:2](=[C:3]([H:11])[H:13])[H:10])([H:7])([H:8])[H:9].[C:4]([C:5]([H:15])([H:16])[H:17])(=[C:6]([H:19])[H:20])[H:14].[H:12][H:18]"
C       -1.96153474       0.85161674       0.43900580
C       -1.06293035      -0.35487478       0.51807953
C       -1.19645586      -1.37282827      -0.41221588
C        1.03685789       0.62754105       0.20569619
C        1.90937140      -0.24605823       1.06707038
C        1.29415501       0.71285045      -1.15610308
H       -1.58806267       1.69148894       1.02735064
H       -2.07140458       1.20752299      -0.58809126
H       -2.96485557       0.62951834       0.81304220
H       -0.72689630      -0.61695560       1.51465099
H       -0.63532176      -2.29975695      -0.33484402
H       -0.47041075      -0.88489565      -1.72638505
H       -2.15517631      -1.59095759      -0.87430287
H        0.62901828       1.50535129       0.69416082
H        2.10697858      -1.21078369       0.59368757
H        1.45986813      -0.44708452       2.04076555
H        2.87754919       0.22533122       1.25851735
H        0.26298214      -0.22854439      -1.84867682
H        1.14961590       1.67022808      -1.64622570
H        2.10665238       0.13129056      -1.58518235
20
Frame=6 idx=003446 GeodesicLength=0.5770522304497095 rxn_smarts="[C:1]([C:2]([C:3]([H:11])([H:12])[H:13])([C:4]([C:5]([H:15])([H:16])[H:17])([C:6]([H:18])([H:19])[H:20])[H:14])[H:10])([H:7])([H:8])[H:9]>>[C:1]([C:2](=[C:3]([H:11])[H:13])[H:10])([H:7])([H:8])[H:9].[C:4]([C:5]([H:15])([H:16])[H:17])(=[C:6]([H:19])[H:20])[H:14].[H:12][H:18]"
C       -1.96435584       0.85569638       0.41535276
C       -1.06219741      -0.34667088       0.52137365
C       -1.19025128      -1.37965573      -0.39774725
C        1.03445909       0.62221649       0.21515295
C        1.91438888      -0.26039150       1.06018621
C        1.29071625       0.72440167      -1.14945918
H       -1.59006652       1.71152388       0.97988160
H       -2.08036244       1.18882393      -0.61857303
H       -2.96575090       0.64248687       0.79918366
H       -0.75438215      -0.59847307       1.53013967
H       -0.59854717      -2.28900277      -0.33441911
H       -0.51302221      -0.87725636      -1.74495250
H       -2.15891089      -1.65621108      -0.80479484
H        0.64998214       1.50376389       0.71690028
H        2.12779436      -1.21259500       0.56894758
H        1.46313886      -0.48888737       2.02705765
H        2.87538831       0.21859123       1.26785052
H        0.23720199      -0.19451928      -1.85403003
H        1.19244765       1.70218594      -1.61044672
H        2.09232929       0.13397277      -1.58760388
20
Frame=7 idx=003446 GeodesicLength=0.6721597980680235 rxn_smarts="[C:1]([C:2]([C:3]([H:11])([H:12])[H:13])([C:4]([C:5]([H:15])([H:16])[H:17])([C:6]([H:18])([H:19])[H:20])[H:14])[H:10])([H:7])([H:8])[H:9]>>[C:1]([C:2](=[C:3]([H:11])[H:13])[H:10])([H:7])([H:8])[H:9].[C:4]([C:5]([H:15])([H:16])[H:17])(=[C:6]([H:19])[H:20])[H:14].[H:12][H:18]"
C       -1.96724107       0.85948099       0.39181414
C       -1.06160354      -0.33825730       0.52452226
C       -1.18443509      -1.38582393      -0.38361198
C        1.03191815       0.61729213       0.22455222
C        1.91904305      -0.27456459       1.05279001
C        1.28685447       0.73658535      -1.14275819
H       -1.59152719       1.73054714       0.93174965
H       -2.08983137       1.16966463      -0.64835933
H       -2.96658085       0.65557548       0.78551973
H       -0.78217401      -0.57966841       1.54454253
H       -0.56396765      -2.27729583      -0.33504761
H       -0.55581517      -0.87151082      -1.76236108
H       -2.15774122      -1.71914587      -0.73337833
H        0.67069185       1.50170925       0.73959593
H        2.14842296      -1.21331175       0.54346933
H        1.46572036      -0.53110714       2.01169551
H        2.87259226       0.21135337       1.27757385
H        0.21231988      -0.16123420      -1.85837031
H        1.23557892       1.73172142      -1.57393754
H        2.07777527       0.13799005      -1.59000081
20
Frame=8 idx=003446 GeodesicLength=0.7671419496584778 rxn_smarts="[C:1]([C:2]([C:3]([H:11])([H:12])[H:13])([C:4]([C:5]([H:15])([H:16])[H:17])([C:6]([H:18])([H:19])[H:20])[H:14])[H:10])([H:7])([H:8])[H:9]>>[C:1]([C:2](=[C:3]([H:11])[H:13])[H:10])([H:7])([H:8])[H:9].[C:4]([C:5]([H:15])([H:16])[H:17])(=[C:6]([H:19])[H:20])[H:14].[H:12][H:18]"
C       -1.97019154       0.86298685       0.36835298
C       -1.06114451      -0.32962115       0.52753559
C       -1.17901057      -1.39142103      -0.36971099
C        1.02924390       0.61274336       0.23393090
C        1.92332583      -0.28861789       1.04488774
C        1.28264355       0.74948380      -1.13593097
H       -1.59248073       1.74854856       0.88293732
H       -2.09976548       1.15004491      -0.67748884
H       -2.96735417       0.66882948       0.77197453
H       -0.81027736      -0.56049691       1.55789571
H       -0.53142668      -2.26472972      -0.33660998
H       -0.59897420      -0.86768027      -1.77873987
H       -2.15164629      -1.77973566      -0.66010435
H        0.69116901       1.49917201       0.76230484
H        2.16878454      -1.21295435       0.51730176
H        1.46763640      -0.57371039       1.99464047
H        2.86917508       0.20346583       1.28767461
H        0.18831488      -0.12853876      -1.86182327
H        1.27895189       1.75888307      -1.53670923
H        2.06302645       0.14334826      -1.59231895
20
Frame=9 idx=003446 GeodesicLength=0.8620486407357094 rxn_smarts="[C:1]([C:2]([C:3]([H:11])([H:12])[H:13])([C:4]([C:5]([H:15])([H:16])[H:17])([C:6]([H:18])([H:19])[H:20])[H:14])[H:10])([H:7])([H:8])[H:9]>>[C:1]([C:2](=[C:3]([H:11])[H:13])[H:10])([H:7])([H:8])[H:9].[C:4]([C:5]([H:15])([H:16])[H:17])(=[C:6]([H:19])[H:20])[H:14].[H:12][H:18]"
C       -1.97322206       0.86621748       0.34495494
C       -1.06082241      -0.32075182       0.53043242
C       -1.17396249      -1.39651759      -0.35595069
C        1.02644402       0.60854451       0.24331689
C        1.92722344      -0.30257771       1.03649777
C        1.27817253       0.76314504      -1.12891548
H       -1.59297115       1.76550516       0.83344195
H       -2.11014803       1.12995762      -0.70597095
H       -2.96808387       0.68227025       0.75850412
H       -0.83868957      -0.54092399       1.57023251
H       -0.50075335      -2.25135600      -0.33902600
H       -0.64273040      -0.86577338      -1.79418774
H       -2.14051279      -1.83792893      -0.58511951
H        0.71143095       1.49613820       0.78506019
H        2.18877095      -1.21156104       0.49054046
H        1.46890501      -0.61659545       1.97588756
H        2.86516381       0.19478055       1.29811112
H        0.16513449      -0.09623273      -1.86450188
H        1.32256234       1.78368330      -1.49879604
H        2.04808857       0.14997654      -1.59451166
20
Frame=10 idx=003446 GeodesicLength=0.9569257208685613 rxn_smarts="[C:1]([C:2]([C:3]([H:11])([H:12])[H:13])([C:4]([C:5]([H:15])([H:16])[H:17])([C:6]([H:18])([H:19])[H:20])[H:14])[H:10])([H:7])([H:8])[H:9]>>[C:1]([C:2](=[C:3]([H:11])[H:13])[H:10])([H:7])([H:8])[H:9].[C:4]([C:5]([H:15])([H:16])[H:17])(=[C:6]([H:19])[H:20])[H:14].[H:12][H:18]"
C       -1.97632899       0.86918170       0.32159557
C       -1.06063274      -0.31164080       0.53322315
C       -1.16927274      -1.40118133      -0.34224476
C        1.02353247       0.60466580       0.25274592
C        1.93073115      -0.31647035       1.02764283
C        1.27352176       0.77760104      -1.12163840
H       -1.59302137       1.78139290       0.78326113
H       -2.12093476       1.10940369      -0.73382586
H       -2.96877556       0.69593067       0.74504148
H       -0.86740934      -0.52091424       1.58157666
H       -0.47180508      -2.23721167      -0.34225786
H       -0.68733778      -0.86584866      -1.80877807
H       -2.12423948      -1.89361532      -0.50854534
H        0.73149886       1.49258700       0.80790058
H        2.20834609      -1.20914508       0.46326132
H        1.46953438      -0.65972160       1.95541205
H        2.86056227       0.18518736       1.30889450
H        0.14274687      -0.06415198      -1.86648752
H        1.36630073       1.80611806      -1.46024825
H        2.03298328       0.15783283      -1.59652912
20
Frame=11 idx=003446 GeodesicLength=1.0518177550198629 rxn_smarts="[C:1]([C:2]([C:3]([H:11])([H:12])[H:13])([C:4]([C:5]([H:15])([H:16])[H:17])([C:6]([H:18])([H:19])[H:20])[H:14])[H:10])([H:7])([H:8])[H:9]>>[C:1]([C:2](=[C:3]([H:11])[H:13])[H:10])([H:7])([H:8])[H:9].[C:4]([C:5]([H:15])([H:16])[H:17])(=[C:6]([H:19])[H:20])[H:14].[H:12][H:18]"
C       -1.97951474       0.87188099       0.29826002
C       -1.06057257      -0.30227811       0.53592263
C       -1.16490407      -1.40546584      -0.32850688
C        1.02052302       0.60107644       0.26225040
C        1.93383982      -0.33031686       1.01835432
C        1.26877954       0.79285932      -1.11402810
H       -1.59265516       1.79618229       0.73238908
H       -2.13210341       1.08837503      -0.76106046
H       -2.96943169       0.70983116       0.73154076
H       -0.89642765      -0.50043551       1.59194891
H       -0.44443574      -2.22230265      -0.34629295
H       -0.73309405      -0.86797589      -1.82254967
H       -2.10266847      -1.94666478      -0.43057817
H        0.75139284       1.48849706       0.83085207
H        2.22745870      -1.20573321       0.43556930
H        1.46952884      -0.70301393       1.93321012
H        2.85537763       0.17457562       1.32001956
H        0.12110836      -0.03210011      -1.86784589
H        1.41008369       1.82617297      -1.42113132
H        2.01771511       0.16683601      -1.59832373
20
Frame=12 idx=003446 GeodesicLength=1.146781178627122 rxn_smarts="[C:1]([C:2]([C:3]([H:11])([H:12])[H:13])([C:4]([C:5]([H:15])([H:16])[H:17])([C:6]([H:18])([H:19])[H:20])[H:14])[H:10])([H:7])([H:8])[H:9]>>[C:1]([C:2](=[C:3]([H:11])[H:13])[H:10])([H:7])([H:8])[H:9].[C:4]([C:5]([H:15])([H:16])[H:17])(=[C:6]([H:19])[H:20])[H:14].[H:12][H:18]"
C       -1.98278514       0.87431751       0.27493562
C       -1.06064339      -0.29265040       0.53854996
C       -1.16080802      -1.40941764      -0.31464809
C        1.01743411       0.59774564       0.27186469
C        1.93654426      -0.34413797       1.00866812
C        1.26403991       0.80891173      -1.10601313
H       -1.59189614       1.80984564       0.68081770
H       -2.14363587       1.06686018      -0.78767939
H       -2.97005943       0.72399461       0.71795909
H       -0.92573791      -0.47945233       1.60137173
H       -0.41850674      -2.20661398      -0.35113635
H       -0.78034141      -0.87226596      -1.83550390
H       -2.07561880      -1.99693355      -0.35147139
H        0.77113805       1.48384714       0.85394244
H        2.24607278      -1.20135758       0.40757394
H        1.46888859      -0.74639751       1.90928477
H        2.84962034       0.16284159       1.33148432
H        0.10018038       0.00012607      -1.86862790
H        1.45382201       1.84383685      -1.38151981
H        2.00229241       0.17689996      -1.59985242
20
Frame=13 idx=003446 GeodesicLength=1.241870860342353 rxn_smarts="[C:1]([C:2]([C:3]([H:11])([H:12])[H:13])([C:4]([C:5]([H:15])([H:16])[H:17])([C:6]([H:18])([H:19])[H:20])[H:14])[H:10])([H:7])([H:8])[H:9]>>[C:1]([C:2](=[C:3]([H:11])[H:13])[H:10])([H:7])([H:8])[H:9].[C:4]([C:5]([H:15])([H:16])[H:17])(=[C:6]([H:19])[H:20])[H:14].[H:12][H:18]"
C       -1.98615055       0.87648552       0.25161886
C       -1.06084462      -0.28274457       0.54112397
C       -1.15691447      -1.41307056      -0.30058611
C        1.01428368       0.59464587       0.28161917
C        1.93883258      -0.35794717       0.99863037
C        1.25940790       0.82573254      -1.09752487
H       -1.59076643       1.82234876       0.62852740
H       -2.15553829       1.04483338      -0.81367236
H       -2.97065952       0.73843705       0.70427915
H       -0.95532929      -0.45794371       1.60986055
H       -0.39387754      -2.19010121      -0.35682999
H       -0.82947869      -0.87885772      -1.84760046
H       -2.04287270      -2.04427152      -0.27155205
H        0.79075736       1.47862078       0.87718681
H        2.26412149      -1.19607497       0.37941751
H        1.46760965      -0.78974487       1.88367667
H        2.84330963       0.14988359       1.34325817
H        0.07991863       0.03276775      -1.86887128
H        1.49747839       1.85909370      -1.34149183
H        1.98671279       0.18790736      -1.60106971
20
Frame=14 idx=003446 GeodesicLength=1.3371505085641935 rxn_smarts="[C:1]([C:2]([C:3]([H:11])([H:12])[H:13])([C:4]([C:5]([H:15])([H:16])[H:17])([C:6]([H:18])([H:19])[H:20])[H:14])[H:10])([H:7])([H:8])[H:9]>>[C:1]([C:2](=[C:3]([H:11])[H:13])[H:10])([H:7])([H:8])[H:9].[C:4]([C:5]([H:15])([H:16])[H:17])(=[C:6]([H:19])[H:20])[H:14].[H:12][H:18]"
C       -1.98958744       0.87839489       0.22826463
C       -1.06116770      -0.27253826       0.54365794
C       -1.15315488      -1.41646335      -0.28621719
C        1.01109782       0.59174932       0.29156480
C        1.94070177      -0.37178219       0.98827002
C        1.25496084       0.84331559      -1.08847417
H       -1.58926021       1.83366153       0.57548389
H       -2.16773288       1.02228288      -0.83907848
H       -2.97122396       0.75320225       0.69039492
H       -0.98519838      -0.43586180       1.61742880
H       -0.37046123      -2.17272982      -0.36340932
H       -0.88093912      -0.88801287      -1.85873975
H       -2.00424808      -2.08848136      -0.19105268
H        0.81028859       1.47278420       0.90064458
H        2.28162197      -1.18990156       0.35116686
H        1.46567260      -0.83306530       1.85634789
H        2.83643008       0.13559255       1.35537823
H        0.06032836       0.06600075      -1.86858931
H        1.54085637       1.87199523      -1.30111730
H        1.97101546       0.19985733      -1.60192435
20
Frame=15 idx=003446 GeodesicLength=1.4327014897133632 rxn_smarts="[C:1]([C:2]([C:3]([H:11])([H:12])[H:13])([C:4]([C:5]([H:15])([H:16])[H:17])([C:6]([H:18])([H:19])[H:20])[H:14])[H:10])([H:7])([H:8])[H:9]>>[C:1]([C:2](=[C:3]([H:11])[H:13])[H:10])([H:7])([H:8])[H:9].[C:4]([C:5]([H:15])([H:16])[H:17])(=[C:6]([H:19])[H:20])[H:14].[H:12][H:18]"
C       -1.99309227       0.88004153       0.20484022
C       -1.06160457      -0.26200843       0.54615681
C       -1.14944106      -1.41961705      -0.27146020
C        1.00790333       0.58903342       0.30174367
C        1.94213966      -0.38566850       0.97763201
C        1.25080424       0.86163764      -1.07877910
H       -1.58737948       1.84374489       0.52162878
H       -2.18020538       0.99917170      -0.86391595
H       -2.97174518       0.76831687       0.67624928
H       -1.01533863      -0.41318146       1.62407334
H       -0.34815981      -2.15441994      -0.37098639
H       -0.93526526      -0.90001075      -1.86877503
H       -1.95949566      -2.12938328      -0.11025447
H        0.82976254       1.46631218       0.92435405
H        2.29854548      -1.18288641       0.32294247
H        1.46305426      -0.87628562       1.82731228
H        2.82897947       0.11986074       1.36784513
H        0.04140456       0.10007311      -1.86779446
H        1.58390822       1.88258263      -1.26045027
H        1.95522555       0.21268672      -1.60236218
20
Frame=16 idx=003446 GeodesicLength=1.5286239591124096 rxn_smarts="[C:1]([C:2]([C:3]([H:11])([H:12])[H:13])([C:4]([C:5]([H:15])([H:16])[H:17])([C:6]([H:18])([H:19])[H:20])[H:14])[H:10])([H:7])([H:8])[H:9]>>[C:1]([C:2](=[C:3]([H:11])[H:13])[H:10])([H:7])([H:8])[H:9].[C:4]([C:5]([H:15])([H:16])[H:17])(=[C:6]([H:19])[H:20])[H:14].[H:12][H:18]"
C       -1.99665243       0.88142463       0.18129434
C       -1.06214406      -0.25112447       0.54861637
C       -1.14567749      -1.42254495      -0.25623499
C        1.00473047       0.58647799       0.31220456
C        1.94312939      -0.39964051       0.96675985
C        1.24704623       0.88067963      -1.06834908
H       -1.58511715       1.85255467       0.46688988
H       -2.19291457       0.97546383      -0.88822072
H       -2.97221325       0.78381393       0.66174881
H       -1.04574925      -0.38987555       1.62977834
H       -0.32690145      -2.13505967      -0.37972870
H       -0.99310799      -0.91522090      -1.87747637
H       -1.90830372      -2.16678032      -0.02940405
H        0.84921320       1.45917363       0.94836777
H        2.31488179      -1.17507317       0.29485144
H        1.45971366      -0.91936660       1.79656203
H        2.82093725       0.10257049       1.38068002
H        0.02316428       0.13524329      -1.86648839
H        1.62658083       1.89092287      -1.21952943
H        1.93938427       0.22636116      -1.60232166
