12
Frame=0 idx=005562 GeodesicLength=0.0 rxn_smarts="[C:1]1([H:7])([H:8])[O:2][C@:3]1([C@@:4]1([H:10])[C:5]([H:11])([H:12])[O:6]1)[H:9]>>[C:1]([O:2][H:10])(/[C:3](=[C:4]1\[C:5]([H:11])([H:12])[O:6]1)[H:9])([H:7])[H:8]"
C        1.62163343       0.40016490       0.18027301
O        1.53180712      -0.67043693       1.09567957
C        0.63513346      -0.37223077      -0.59247327
C       -0.63916061      -0.35890247      -0.00830898
C       -1.88843190       0.36461995      -0.12937964
O       -1.78577477      -1.03305087      -0.42452243
H        1.26940683       1.36285442       0.56081266
H        2.61145401       0.49515347      -0.26612743
H        0.98321631      -1.16549438      -1.24421511
H        0.18358218      -0.63033105       1.05577000
H       -2.07165660       0.99808096      -0.99292428
H       -2.45120950       0.60957272       0.76541591
12
Frame=1 idx=005562 GeodesicLength=0.05530461060659163 rxn_smarts="[C:1]1([H:7])([H:8])[O:2][C@:3]1([C@@:4]1([H:10])[C:5]([H:11])([H:12])[O:6]1)[H:9]>>[C:1]([O:2][H:10])(/[C:3](=[C:4]1\[C:5]([H:11])([H:12])[O:6]1)[H:9])([H:7])[H:8]"
C        1.61769980       0.40641302       0.17452169
O        1.53714838      -0.66228847       1.09378831
C        0.63465609      -0.38171513      -0.58671438
C       -0.64234884      -0.37317817      -0.00628108
C       -1.88236710       0.36624466      -0.12792664
O       -1.79002679      -1.02737781      -0.44658282
H        1.25654239       1.36777822       0.54943503
H        2.60496515       0.50368586      -0.27650739
H        0.98300563      -1.17660864      -1.23635025
H        0.18110365      -0.64237922       1.07847072
H       -2.04741921       1.01890764      -0.98065934
H       -2.45295917       0.60051803       0.76480615
12
Frame=2 idx=005562 GeodesicLength=0.11064599208798491 rxn_smarts="[C:1]1([H:7])([H:8])[O:2][C@:3]1([C@@:4]1([H:10])[C:5]([H:11])([H:12])[O:6]1)[H:9]>>[C:1]([O:2][H:10])(/[C:3](=[C:4]1\[C:5]([H:11])([H:12])[O:6]1)[H:9])([H:7])[H:8]"
C        1.61368123       0.41261863       0.16860449
O        1.54182684      -0.65380548       1.09203059
C        0.63423344      -0.39097984      -0.58109633
C       -0.64556682      -0.38740264      -0.00457976
C       -1.87621401       0.36777819      -0.12634688
O       -1.79380395      -1.02119842      -0.46884776
H        1.24366834       1.37267915       0.53763093
H        2.59852930       0.51172901      -0.28677793
H        0.98293283      -1.18764549      -1.22840756
H        0.17856794      -0.65437967       1.10128292
H       -2.02310199       1.03932293      -0.96755592
H       -2.45475315       0.59128363       0.76406321
12
Frame=3 idx=005562 GeodesicLength=0.16601792389595088 rxn_smarts="[C:1]1([H:7])([H:8])[O:2][C@:3]1([C@@:4]1([H:10])[C:5]([H:11])([H:12])[O:6]1)[H:9]>>[C:1]([O:2][H:10])(/[C:3](=[C:4]1\[C:5]([H:11])([H:12])[O:6]1)[H:9])([H:7])[H:8]"
C        1.60959747       0.41877701       0.16252449
O        1.54583393      -0.64501026       1.09039674
C        0.63386388      -0.40000212      -0.57562691
C       -0.64881264      -0.40154299      -0.00321726
C       -1.86999546       0.36921366      -0.12464593
O       -1.79709473      -1.01452157      -0.49126064
H        1.23082107       1.37755186       0.52540813
H        2.59218081       0.51927278      -0.29692239
H        0.98298879      -1.19857709      -1.22040072
H        0.17597480      -0.66633284       1.12420875
H       -1.99876001       1.05928431      -0.95363545
H       -2.45659792       0.58188726       0.76317119
12
Frame=4 idx=005562 GeodesicLength=0.22141542965383276 rxn_smarts="[C:1]1([H:7])([H:8])[O:2][C@:3]1([C@@:4]1([H:10])[C:5]([H:11])([H:12])[O:6]1)[H:9]>>[C:1]([O:2][H:10])(/[C:3](=[C:4]1\[C:5]([H:11])([H:12])[O:6]1)[H:9])([H:7])[H:8]"
C        1.60546965       0.42488319       0.15628765
O        1.54917059      -0.63592936       1.08887539
C        0.63354571      -0.40876071      -0.57031372
C       -0.65208338      -0.41556939      -0.00220380
C       -1.86373300       0.37054710      -0.12283097
O       -1.79989420      -1.00735745      -0.51376317
H        1.21803646       1.38238936       0.51278307
H        2.58595146       0.52631389      -0.30692309
H        0.98316400      -1.20937459      -1.21234732
H        0.17332520      -0.67824277       1.14725172
H       -1.97445716       1.07874534      -0.93894249
H       -2.45849532       0.57235540       0.76212674
12
Frame=5 idx=005562 GeodesicLength=0.2768397435245104 rxn_smarts="[C:1]1([H:7])([H:8])[O:2][C@:3]1([C@@:4]1([H:10])[C:5]([H:11])([H:12])[O:6]1)[H:9]>>[C:1]([O:2][H:10])(/[C:3](=[C:4]1\[C:5]([H:11])([H:12])[O:6]1)[H:9])([H:7])[H:8]"
C        1.60131689       0.43093444       0.14990013
O        1.55183900      -0.62658808       1.08745545
C        0.63327678      -0.41723777      -0.56516442
C       -0.65537691      -0.42945228      -0.00155128
C       -1.85744871       0.37177406      -0.12091315
O       -1.80220140      -0.99972062      -0.53630183
H        1.20534958       1.38718651       0.49977111
H        2.57987288       0.53284913      -0.31676596
H        0.98344898      -1.22001420      -1.20426164
H        0.17062068      -0.69010819       1.17041986
H       -1.95025372       1.09766887      -0.92350598
H       -2.46044406       0.56270812       0.76091772
12
Frame=6 idx=005562 GeodesicLength=0.3322751198320264 rxn_smarts="[C:1]1([H:7])([H:8])[O:2][C@:3]1([C@@:4]1([H:10])[C:5]([H:11])([H:12])[O:6]1)[H:9]>>[C:1]([O:2][H:10])(/[C:3](=[C:4]1\[C:5]([H:11])([H:12])[O:6]1)[H:9])([H:7])[H:8]"
C        1.59715920       0.43692918       0.14336459
O        1.55382923      -0.61699981       1.08613406
C        0.63305746      -0.42541743      -0.56018813
C       -0.65868860      -0.44316216      -0.00127275
C       -1.85116197       0.37289401      -0.11889792
O       -1.80401887      -0.99160856      -0.55883338
H        1.19279470       1.39194823       0.48637157
H        2.57398088       0.53887091      -0.32643119
H        0.98383740      -1.23048074      -1.19614950
H        0.16787002      -0.70194501       1.19371165
H       -1.92621582       1.11601158      -0.90733460
H       -2.46244362       0.55295980       0.75952559
12
Frame=7 idx=005562 GeodesicLength=0.387729580855562 rxn_smarts="[C:1]1([H:7])([H:8])[O:2][C@:3]1([C@@:4]1([H:10])[C:5]([H:11])([H:12])[O:6]1)[H:9]>>[C:1]([O:2][H:10])(/[C:3](=[C:4]1\[C:5]([H:11])([H:12])[O:6]1)[H:9])([H:7])[H:8]"
C        1.59301367       0.44286319       0.13668902
O        1.55515715      -0.60718861       1.08489736
C        0.63288452      -0.43328869      -0.55539136
C       -0.66201655      -0.45668443      -0.00137655
C       -1.84488773       0.37391006      -0.11679216
O       -1.80535756      -0.98304917      -0.58131302
H        1.18039690       1.39666467       0.47260463
H        2.56829271       0.54439283      -0.33589968
H        0.98432287      -1.24075414      -1.18802890
H        0.16507695      -0.71376024       1.21714060
H       -1.90239964       1.13375545      -0.89050946
H       -2.46448330       0.54313909       0.75797952
12
Frame=8 idx=005562 GeodesicLength=0.44319759944600073 rxn_smarts="[C:1]1([H:7])([H:8])[O:2][C@:3]1([C@@:4]1([H:10])[C:5]([H:11])([H:12])[O:6]1)[H:9]>>[C:1]([O:2][H:10])(/[C:3](=[C:4]1\[C:5]([H:11])([H:12])[O:6]1)[H:9])([H:7])[H:8]"
C        1.58889568       0.44873602       0.12987720
O        1.55582634      -0.59716838       1.08373981
C        0.63275744      -0.44084405      -0.55078240
C       -0.66535710      -0.47000346      -0.00187229
C       -1.83864004       0.37482424      -0.11460205
O       -1.80622583      -0.97404958      -0.60370803
H        1.16818094       1.40133741       0.45847574
H        2.56283209       0.54941663      -0.34515546
H        0.98490102      -1.25082453      -1.17990747
H        0.16224990      -0.72556420       1.24071508
H       -1.87886261       1.15087657      -0.87305898
H       -2.46655782       0.53326332       0.75627885
12
Frame=9 idx=005562 GeodesicLength=0.49870742072101826 rxn_smarts="[C:1]1([H:7])([H:8])[O:2][C@:3]1([C@@:4]1([H:10])[C:5]([H:11])([H:12])[O:6]1)[H:9]>>[C:1]([O:2][H:10])(/[C:3](=[C:4]1\[C:5]([H:11])([H:12])[O:6]1)[H:9])([H:7])[H:8]"
C        1.58482687       0.45454116       0.12294253
O        1.55587550      -0.58696546       1.08263126
C        0.63267400      -0.44807725      -0.54636048
C       -0.66870514      -0.48307859      -0.00276572
C       -1.83242966       0.37563176      -0.11233793
O       -1.80665950      -0.96459919      -0.62599106
H        1.15618146       1.40596698       0.44402907
H        2.55760564       0.55394828      -0.35419334
H        0.98554950      -1.26068419      -1.17178955
H        0.15941283      -0.73735025       1.26446682
H       -1.85566848       1.16733157      -0.85504096
H       -2.46866301       0.52333516       0.75440937
12
Frame=10 idx=005562 GeodesicLength=0.5542283080491244 rxn_smarts="[C:1]1([H:7])([H:8])[O:2][C@:3]1([C@@:4]1([H:10])[C:5]([H:11])([H:12])[O:6]1)[H:9]>>[C:1]([O:2][H:10])(/[C:3](=[C:4]1\[C:5]([H:11])([H:12])[O:6]1)[H:9])([H:7])[H:8]"
C        1.58081262       0.46028402       0.11587751
O        1.55527638      -0.57657308       1.08159071
C        0.63263156      -0.45498577      -0.54213632
C       -0.67206183      -0.49592326      -0.00406906
C       -1.82627496       0.37633672      -0.11000018
O       -1.80665478      -0.95473235      -0.64814014
H        1.14440725       1.41055826       0.42922181
H        2.55264504       0.55799054      -0.36299306
H        0.98627876      -1.27032759      -1.16368132
H        0.15656350      -0.74913996       1.28839337
H       -1.83282743       1.18315169      -0.83645976
H       -2.47079610       0.51336078       0.75239644
12
Frame=11 idx=005562 GeodesicLength=0.6097639906938703 rxn_smarts="[C:1]1([H:7])([H:8])[O:2][C@:3]1([C@@:4]1([H:10])[C:5]([H:11])([H:12])[O:6]1)[H:9]>>[C:1]([O:2][H:10])(/[C:3](=[C:4]1\[C:5]([H:11])([H:12])[O:6]1)[H:9])([H:7])[H:8]"
C        1.57686499       0.46596339       0.10868596
O        1.55403882      -0.56600695       1.08061148
C        0.63262661      -0.46156725      -0.53811461
C       -0.67542587      -0.50852671      -0.00578966
C       -1.82018883       0.37693602      -0.10759423
O       -1.80623229      -0.94446148      -0.67013297
H        1.13287635       1.41511425       0.41405841
H        2.54796630       0.56155190      -0.37154581
H        0.98708146      -1.27974753      -1.15559092
H        0.15371397      -0.76093335       1.31251704
H       -1.81036755       1.19833448      -0.81734925
H       -2.47295396       0.50334322       0.75024455
12
Frame=12 idx=005562 GeodesicLength=0.6652980500717782 rxn_smarts="[C:1]1([H:7])([H:8])[O:2][C@:3]1([C@@:4]1([H:10])[C:5]([H:11])([H:12])[O:6]1)[H:9]>>[C:1]([O:2][H:10])(/[C:3](=[C:4]1\[C:5]([H:11])([H:12])[O:6]1)[H:9])([H:7])[H:8]"
C        1.57299577       0.47158132       0.10136540
O        1.55215332      -0.55526005       1.07969472
C        0.63265689      -0.46782143      -0.53429934
C       -0.67879530      -0.52087844      -0.00793699
C       -1.81418438       0.37742522      -0.10512165
O       -1.80541031      -0.93378201      -0.69196449
H        1.12160825       1.41964801       0.39851722
H        2.54359495       0.56462648      -0.37983852
H        0.98795374      -1.28894796      -1.14751066
H        0.15088070      -0.77274212       1.33684881
H       -1.78831646       1.21288149      -0.79770385
H       -2.47513715       0.49326950       0.74794936
12
Frame=13 idx=005562 GeodesicLength=0.7208423812410298 rxn_smarts="[C:1]1([H:7])([H:8])[O:2][C@:3]1([C@@:4]1([H:10])[C:5]([H:11])([H:12])[O:6]1)[H:9]>>[C:1]([O:2][H:10])(/[C:3](=[C:4]1\[C:5]([H:11])([H:12])[O:6]1)[H:9])([H:7])[H:8]"
C        1.56921249       0.47713575       0.09392005
O        1.54963742      -0.54434622       1.07883014
C        0.63271844      -0.47375215      -0.53069401
C       -0.68217039      -0.53297873      -0.01051789
C       -1.80826913       0.37780735      -0.10258541
O       -1.80421039      -0.92270907      -0.71362562
H        1.11061449       1.42415381       0.38260502
H        2.53953506       0.56722934      -0.38786176
H        0.98889069      -1.29792515      -1.13944995
H        0.14807758      -0.78455882       1.36141986
H       -1.76669552       1.22680237      -0.77756969
H       -2.47734073       0.48314153       0.74552926
12
Frame=14 idx=005562 GeodesicLength=0.7763932504582121 rxn_smarts="[C:1]1([H:7])([H:8])[O:2][C@:3]1([C@@:4]1([H:10])[C:5]([H:11])([H:12])[O:6]1)[H:9]>>[C:1]([O:2][H:10])(/[C:3](=[C:4]1\[C:5]([H:11])([H:12])[O:6]1)[H:9])([H:7])[H:8]"
C        1.56552355       0.48262572       0.08635029
O        1.54649545      -0.53326682       1.07801324
C        0.63280787      -0.47936308      -0.52730231
C       -0.68555070      -0.54482661      -0.01354092
C       -1.80245043       0.37808285      -0.09998663
O       -1.80265320      -0.91124439      -0.73511289
H        1.09990519       1.42863499       0.36631375
H        2.53579739       0.56936661      -0.39560381
H        0.98988842      -1.30668055      -1.13141024
H        0.14532047      -0.79638522       1.38625269
H       -1.74552205       1.24010351      -0.75696937
H       -2.47956196       0.47295299       0.74299620
12
Frame=15 idx=005562 GeodesicLength=0.831947672818494 rxn_smarts="[C:1]1([H:7])([H:8])[O:2][C@:3]1([C@@:4]1([H:10])[C:5]([H:11])([H:12])[O:6]1)[H:9]>>[C:1]([O:2][H:10])(/[C:3](=[C:4]1\[C:5]([H:11])([H:12])[O:6]1)[H:9])([H:7])[H:8]"
C        1.56193603       0.48805067       0.07865388
O        1.54272617      -0.52201840       1.07724116
C        0.63292247      -0.48466093      -0.52412772
C       -0.68893646      -0.55642122      -0.01701705
C       -1.79673490       0.37825059      -0.09732756
O       -1.80075727      -0.89938105      -0.75643578
H        1.08949190       1.43309743       0.34962463
H        2.53239328       0.57103976      -0.40305459
H        0.99094414      -1.31522249      -1.12338605
H        0.14262753      -0.80821545       1.41137320
H       -1.72481193       1.25279253      -0.73589453
H       -2.48180096       0.46268856       0.74035042
12
Frame=16 idx=005562 GeodesicLength=0.8875091072467004 rxn_smarts="[C:1]1([H:7])([H:8])[O:2][C@:3]1([C@@:4]1([H:10])[C:5]([H:11])([H:12])[O:6]1)[H:9]>>[C:1]([O:2][H:10])(/[C:3](=[C:4]1\[C:5]([H:11])([H:12])[O:6]1)[H:9])([H:7])[H:8]"
C        1.55845556       0.49340870       0.07083099
O        1.53833560      -0.51060370       1.07650636
C        0.63305821      -0.48965202      -0.52117372
C       -0.69232858      -0.56776505      -0.02095648
C       -1.79112771       0.37830882      -0.09460867
O       -1.79854307      -0.88711364      -0.77759702
H        1.07938195       1.43754049       0.33253005
H        2.52932846       0.57225679      -0.41020385
H        0.99205342      -1.32355350      -1.11537999
H        0.14001749      -0.82004085       1.43681342
H       -1.70457418       1.26487550      -0.71436127
H       -2.48405716       0.45233847       0.73760019
