10
Frame=0 idx=006110 GeodesicLength=0.0 rxn_smarts="[C:1]1([H:6])([H:7])[C:2]([H:8])([H:9])[N:3]=[C:4]([H:10])[O:5]1>>[C-:1]([O+:5]=[C:4]([N:3]=[C:2]([H:8])[H:9])[H:10])([H:6])[H:7]"
C       -0.49236439      -1.72879125      -0.29561807
C       -0.44438964       1.81642927       0.18229876
N        0.34748884       0.83143562       0.15728135
C        1.17255039      -0.14092654       0.13812326
O        0.72291791      -1.41290398      -0.09113724
H       -0.68158853      -2.77802093      -0.46110493
H       -1.25451807      -0.96053582      -0.29556336
H       -1.52046433       1.69133519       0.02263043
H       -0.09428173       2.83701512       0.36426661
H        2.24464955      -0.15503666       0.27882319
10
Frame=1 idx=006110 GeodesicLength=0.05559991591004634 rxn_smarts="[C:1]1([H:6])([H:7])[C:2]([H:8])([H:9])[N:3]=[C:4]([H:10])[O:5]1>>[C-:1]([O+:5]=[C:4]([N:3]=[C:2]([H:8])[H:9])[H:10])([H:6])[H:7]"
C       -0.50510607      -1.70356790      -0.23345772
C       -0.45395785       1.77854085       0.21984467
N        0.38571994       0.84903147       0.02062081
C        1.19137873      -0.13590662       0.11026725
O        0.73012166      -1.40109180      -0.11720433
H       -0.70684020      -2.75375021      -0.38124280
H       -1.25631132      -0.93648976      -0.36470373
H       -1.51301565       1.66880845      -0.03281150
H       -0.12715143       2.79108341       0.47602964
H        2.25516220      -0.15665790       0.30265771
10
Frame=2 idx=006110 GeodesicLength=0.12249214815960524 rxn_smarts="[C:1]1([H:6])([H:7])[C:2]([H:8])([H:9])[N:3]=[C:4]([H:10])[O:5]1>>[C-:1]([O+:5]=[C:4]([N:3]=[C:2]([H:8])[H:9])[H:10])([H:6])[H:7]"
C       -0.51634017      -1.66928903      -0.18437911
C       -0.46131054       1.73012833       0.24984273
N        0.41365246       0.86316297      -0.07628416
C        1.20808654      -0.12586902       0.06967993
O        0.73373857      -1.38756810      -0.13424234
H       -0.73131625      -2.72280331      -0.28832272
H       -1.25297470      -0.92239185      -0.44749653
H       -1.50020280       1.65684508      -0.08465087
H       -0.15357896       2.72777874       0.57877082
H        2.26024585      -0.14999383       0.31708224
10
Frame=3 idx=006110 GeodesicLength=0.19458432225222339 rxn_smarts="[C:1]1([H:6])([H:7])[C:2]([H:8])([H:9])[N:3]=[C:4]([H:10])[O:5]1>>[C-:1]([O+:5]=[C:4]([N:3]=[C:2]([H:8])[H:9])[H:10])([H:6])[H:7]"
C       -0.52761941      -1.62895019      -0.14719016
C       -0.46835114       1.67843330       0.27163674
N        0.43560015       0.87522380      -0.14927563
C        1.22460822      -0.11552280       0.02504865
O        0.73508963      -1.37471666      -0.13886097
H       -0.75617185      -2.68435946      -0.19399941
H       -1.24356969      -0.91686952      -0.53502770
H       -1.48648906       1.65011351      -0.12650872
H       -0.17630085       2.65564436       0.66981700
H        2.26320400      -0.13899635       0.32436020
10
Frame=4 idx=006110 GeodesicLength=0.27017611823273024 rxn_smarts="[C:1]1([H:6])([H:7])[C:2]([H:8])([H:9])[N:3]=[C:4]([H:10])[O:5]1>>[C-:1]([O+:5]=[C:4]([N:3]=[C:2]([H:8])[H:9])[H:10])([H:6])[H:7]"
C       -0.53843359      -1.58603065      -0.11943717
C       -0.47493905       1.62673627       0.28563968
N        0.45452156       0.88614966      -0.20781218
C        1.23949056      -0.10619330      -0.01349501
O        0.73569815      -1.36167772      -0.13986084
H       -0.78023665      -2.64006656      -0.10711751
H       -1.23231240      -0.91818914      -0.61258398
H       -1.47248326       1.64619700      -0.16146387
H       -0.19664030       2.57931141       0.74866268
H        2.26533500      -0.12623696       0.32746821
10
Frame=5 idx=006110 GeodesicLength=0.34811492340704786 rxn_smarts="[C:1]1([H:6])([H:7])[C:2]([H:8])([H:9])[N:3]=[C:4]([H:10])[O:5]1>>[C-:1]([O+:5]=[C:4]([N:3]=[C:2]([H:8])[H:9])[H:10])([H:6])[H:7]"
C       -0.54859630      -1.54268397      -0.09845536
C       -0.48108715       1.57657281       0.29314124
N        0.47122269       0.89620808      -0.25710690
C        1.25252149      -0.09770484      -0.04561799
O        0.73598620      -1.34857429      -0.13888457
H       -0.80302057      -2.59204559      -0.02853946
H       -1.22072753      -0.92430846      -0.67917657
H       -1.45857592       1.64471398      -0.19130535
H       -0.21490273       2.50028785       0.81799008
H        2.26717981      -0.11246557       0.32795487
10
Frame=6 idx=006110 GeodesicLength=0.42777464958142625 rxn_smarts="[C:1]1([H:6])([H:7])[C:2]([H:8])([H:9])[N:3]=[C:4]([H:10])[O:5]1>>[C-:1]([O+:5]=[C:4]([N:3]=[C:2]([H:8])[H:9])[H:10])([H:6])[H:7]"
C       -0.55796339      -1.49991650      -0.08249410
C       -0.48685289       1.52852036       0.29567918
N        0.48626454       0.90563003      -0.29970525
C        1.26394167      -0.08983904      -0.07244967
O        0.73620480      -1.33550227      -0.13776987
H       -0.82423398      -2.54165477       0.04285590
H       -1.20977609      -0.93381976      -0.73579336
H       -1.44477931       1.64536089      -0.21710332
H       -0.23155426       2.41954841       0.87933472
H        2.26874890      -0.09832736       0.32744577
10
Frame=7 idx=006110 GeodesicLength=0.508850766722817 rxn_smarts="[C:1]1([H:6])([H:7])[C:2]([H:8])([H:9])[N:3]=[C:4]([H:10])[O:5]1>>[C-:1]([O+:5]=[C:4]([N:3]=[C:2]([H:8])[H:9])[H:10])([H:6])[H:7]"
C       -0.56651940      -1.45821620      -0.07056655
C       -0.49220400       1.48273623       0.29450637
N        0.49994741       0.91453877      -0.33732698
C        1.27402469      -0.08241673      -0.09521098
O        0.73647142      -1.32259399      -0.13718438
H       -0.84385177      -2.48963830       0.10840239
H       -1.19979830      -0.94585676      -0.78422062
H       -1.43116558       1.64771506      -0.23907475
H       -0.24674376       2.33777518       0.93362591
H        2.26983929      -0.08404326       0.32704960
10
Frame=8 idx=006110 GeodesicLength=0.591050580190347 rxn_smarts="[C:1]1([H:6])([H:7])[C:2]([H:8])([H:9])[N:3]=[C:4]([H:10])[O:5]1>>[C-:1]([O+:5]=[C:4]([N:3]=[C:2]([H:8])[H:9])[H:10])([H:6])[H:7]"
C       -0.57429885      -1.41794564      -0.06193543
C       -0.49705186       1.43926245       0.29068538
N        0.51241221       0.92293662      -0.37107473
C        1.28293970      -0.07534512      -0.11459978
O        0.73683848      -1.30998894      -0.13736955
H       -0.86180066      -2.43671006       0.16847337
H       -1.19105500      -0.95978116      -0.82564771
H       -1.41788924       1.65119067      -0.25705570
H       -0.26032776       2.25608923       0.98097145
H        2.27023298      -0.06970805       0.32755271
10
Frame=9 idx=006110 GeodesicLength=0.6743356106925084 rxn_smarts="[C:1]1([H:6])([H:7])[C:2]([H:8])([H:9])[N:3]=[C:4]([H:10])[O:5]1>>[C-:1]([O+:5]=[C:4]([N:3]=[C:2]([H:8])[H:9])[H:10])([H:6])[H:7]"
C       -0.58141721      -1.37915058      -0.05605590
C       -0.50146764       1.39797773       0.28478664
N        0.52385251       0.93090514      -0.40173354
C        1.29086309      -0.06854088      -0.13130423
O        0.73728981      -1.29773468      -0.13809581
H       -0.87829562      -2.38300909       0.22415954
H       -1.18337332      -0.97525312      -0.86150072
H       -1.40485381       1.65568852      -0.27164752
H       -0.27259247       2.17442701       1.02255908
H        2.26999467      -0.05531005       0.32883245
10
Frame=10 idx=006110 GeodesicLength=0.7586991459359299 rxn_smarts="[C:1]1([H:6])([H:7])[C:2]([H:8])([H:9])[N:3]=[C:4]([H:10])[O:5]1>>[C-:1]([O+:5]=[C:4]([N:3]=[C:2]([H:8])[H:9])[H:10])([H:6])[H:7]"
C       -0.58792336      -1.34186699      -0.05256338
C       -0.50545885       1.35875466       0.27723308
N        0.53441253       0.93848586      -0.42994362
C        1.29795239      -0.06194249      -0.14585110
O        0.73785821      -1.28585431      -0.13941755
H       -0.89344514      -2.32860692       0.27617732
H       -1.17675280      -0.99200343      -0.89263638
H       -1.39199812       1.66104070      -0.28315195
H       -0.28367645       2.09282050       1.05905837
H        2.26903159      -0.04082759       0.33109521
10
Frame=11 idx=006110 GeodesicLength=0.8440296346078687 rxn_smarts="[C:1]1([H:6])([H:7])[C:2]([H:8])([H:9])[N:3]=[C:4]([H:10])[O:5]1>>[C-:1]([O+:5]=[C:4]([N:3]=[C:2]([H:8])[H:9])[H:10])([H:6])[H:7]"
C       -0.59391189      -1.30615063      -0.05107958
C       -0.50900934       1.32148922       0.26850716
N        0.54415700       0.94565872      -0.45610724
C        1.30428098      -0.05553278      -0.15849523
O        0.73852240      -1.27438385      -0.14116085
H       -0.90731335      -2.27381133       0.32454739
H       -1.17115254      -1.00980054      -0.91963835
H       -1.37937199       1.66689696      -0.29159177
H       -0.29351044       2.01188971       1.09060865
H        2.26730916      -0.02625549       0.33440981
10
Frame=12 idx=006110 GeodesicLength=0.9302365638505573 rxn_smarts="[C:1]1([H:6])([H:7])[C:2]([H:8])([H:9])[N:3]=[C:4]([H:10])[O:5]1>>[C-:1]([O+:5]=[C:4]([N:3]=[C:2]([H:8])[H:9])[H:10])([H:6])[H:7]"
C       -0.59946281      -1.27201371      -0.05130816
C       -0.51211736       1.28605730       0.25898359
N        0.55314512       0.95240738      -0.48054635
C        1.30991608      -0.04929976      -0.16945552
O        0.73926855      -1.26334192      -0.14322791
H       -0.91997093      -2.21888839       0.36934488
H       -1.16652919      -1.02846424      -0.94298037
H       -1.36699517       1.67296798      -0.29707203
H       -0.30204665       1.93216763       1.11744432
H        2.26479237      -0.01159227       0.33881755
10
Frame=13 idx=006110 GeodesicLength=1.0172646193617112 rxn_smarts="[C:1]1([H:6])([H:7])[C:2]([H:8])([H:9])[N:3]=[C:4]([H:10])[O:5]1>>[C-:1]([O+:5]=[C:4]([N:3]=[C:2]([H:8])[H:9])[H:10])([H:6])[H:7]"
C       -0.60464727      -1.23942747      -0.05302248
C       -0.51480291       1.25232466       0.24893335
N        0.56144154       0.95873014      -0.50351558
C        1.31492077      -0.04323267      -0.17892925
O        0.74008522      -1.25273051      -0.14552917
H       -0.93151596      -2.16400816       0.41074178
H       -1.16280803      -1.04786306      -0.96308645
H       -1.35484705       1.67904915      -0.29978864
H       -0.30930816       1.85399587       1.13992625
H        2.26148185       0.00316205       0.34427019
10
Frame=14 idx=006110 GeodesicLength=1.1050190823895147 rxn_smarts="[C:1]1([H:6])([H:7])[C:2]([H:8])([H:9])[N:3]=[C:4]([H:10])[O:5]1>>[C-:1]([O+:5]=[C:4]([N:3]=[C:2]([H:8])[H:9])[H:10])([H:6])[H:7]"
C       -0.60953072      -1.20836609      -0.05601921
C       -0.51709388       1.22016282       0.23860434
N        0.56909423       0.96461934      -0.52519307
C        1.31933621      -0.03732907      -0.18704608
O        0.74095798      -1.24255444      -0.14799847
H       -0.94202338      -2.10940528       0.44880333
H       -1.15992671      -1.06787486      -0.98027376
H       -1.34290631       1.68494654      -0.29992995
H       -0.31530459       1.77781740       1.15835892
H        2.25739716       0.01798366       0.35069393
10
Frame=15 idx=006110 GeodesicLength=1.1934226996553008 rxn_smarts="[C:1]1([H:6])([H:7])[C:2]([H:8])([H:9])[N:3]=[C:4]([H:10])[O:5]1>>[C-:1]([O+:5]=[C:4]([N:3]=[C:2]([H:8])[H:9])[H:10])([H:6])[H:7]"
C       -0.61417061      -1.17878284      -0.06013835
C       -0.51902482       1.18944459       0.22818082
N        0.57615139       0.97007630      -0.54572769
C        1.32320072      -0.03158530      -0.19393046
O        0.74187487      -1.23280898      -0.15057079
H       -0.95158544      -2.05525715       0.48364307
H       -1.15780544      -1.08840424      -0.99482972
H       -1.33113666       1.69051321      -0.29771289
H       -0.32007823       1.70395294       1.17310518
H        2.25257422       0.03285148       0.35798084
10
Frame=16 idx=006110 GeodesicLength=1.282404585141508 rxn_smarts="[C:1]1([H:6])([H:7])[C:2]([H:8])([H:9])[N:3]=[C:4]([H:10])[O:5]1>>[C-:1]([O+:5]=[C:4]([N:3]=[C:2]([H:8])[H:9])[H:10])([H:6])[H:7]"
C       -0.61861756      -1.15062069      -0.06525391
C       -0.52063135       1.16004808       0.21780700
N        0.58265688       0.97510644      -0.56524337
C        1.32654761      -0.02599767      -0.19969653
O        0.74282535      -1.22348402      -0.15318052
H       -0.96030565      -2.00170397       0.51538537
H       -1.15635336      -1.10937499      -1.00701114
H       -1.31950051       1.69562722      -0.29335473
H       -0.32368070       1.63265267       1.18454107
H        2.24705929       0.04774694       0.36600676
