16
Frame=0 idx=004367 GeodesicLength=0.0 rxn_smarts="[C:1]([C:2]([O:3][C:4]([C:5]([O:6][H:16])([H:14])[H:15])([H:12])[H:13])([H:10])[H:11])([H:7])([H:8])[H:9]>>[C:1](=[C:2]([H:10])[H:11])([H:7])[H:8].[O:3]([C:4]([C:5]([O:6][H:16])([H:14])[H:15])([H:12])[H:13])[H:9]"
C       -2.33875182      -0.39350999       0.12603826
C       -1.58383940      -0.46147440      -1.06081993
O        0.05651058      -0.51570382      -0.16623747
C        0.84481610       0.65469723      -0.21026666
C        1.95415152       0.54092810       0.81624272
O        2.76708805      -0.58158887       0.56960129
H       -2.85185900      -1.28506746       0.46428450
H       -2.79564531       0.55181464       0.39293878
H       -0.98122121      -0.43297275       0.52026711
H       -1.40305663       0.42623927      -1.65786102
H       -1.45458138      -1.39755902      -1.58934364
H        0.23183070       1.54694350      -0.00492325
H        1.27912739       0.75182965      -1.21046777
H        1.50838514       0.49289081       1.81958289
H        2.59603886       1.42362932       0.77406316
H        2.17100636      -1.32109616       0.41690101
16
Frame=1 idx=004367 GeodesicLength=0.06331729480988113 rxn_smarts="[C:1]([C:2]([O:3][C:4]([C:5]([O:6][H:16])([H:14])[H:15])([H:12])[H:13])([H:10])[H:11])([H:7])([H:8])[H:9]>>[C:1](=[C:2]([H:10])[H:11])([H:7])[H:8].[O:3]([C:4]([C:5]([O:6][H:16])([H:14])[H:15])([H:12])[H:13])[H:9]"
C       -2.34157638      -0.41644642       0.13269956
C       -1.59491352      -0.43963055      -1.06189099
O        0.05991815      -0.50749540      -0.17027227
C        0.86271057       0.65156237      -0.22745336
C        1.95766447       0.54684324       0.81520866
O        2.75847256      -0.59190502       0.60569695
H       -2.83663488      -1.32628442       0.44929664
H       -2.81561300       0.51271075       0.42602373
H       -0.97885258      -0.44420883       0.53362878
H       -1.44003727       0.46927677      -1.63440663
H       -1.47140983      -1.35682367      -1.62456150
H        0.26425868       1.55973161      -0.05301571
H        1.31059252       0.72007894      -1.22417830
H        1.49870754       0.52932427       1.81361805
H        2.61235906       1.41940910       0.76037229
H        2.15435392      -1.32614274       0.45923410
16
Frame=2 idx=004367 GeodesicLength=0.12642125895152798 rxn_smarts="[C:1]([C:2]([O:3][C:4]([C:5]([O:6][H:16])([H:14])[H:15])([H:12])[H:13])([H:10])[H:11])([H:7])([H:8])[H:9]>>[C:1](=[C:2]([H:10])[H:11])([H:7])[H:8].[O:3]([C:4]([C:5]([O:6][H:16])([H:14])[H:15])([H:12])[H:13])[H:9]"
C       -2.34405106      -0.44007932       0.13878596
C       -1.60630534      -0.41647673      -1.06216010
O        0.06323051      -0.49945399      -0.17383623
C        0.88094256       0.64746887      -0.24508319
C        1.96112614       0.55316499       0.81373324
O        2.74891086      -0.60110756       0.64290969
H       -2.82080108      -1.36778220       0.43162881
H       -2.83515270       0.47129359       0.45935509
H       -0.97639970      -0.45671952       0.54726733
H       -1.47726630       0.51332161      -1.60752747
H       -1.48931156      -1.31275325      -1.65957626
H        0.29811680       1.57094915      -0.10304538
H        1.34218293       0.68588381      -1.23746551
H        1.48920078       0.56728663       1.80616494
H        2.62885872       1.41490165       0.74598605
H        2.13671843      -1.32989772       0.50286305
16
Frame=3 idx=004367 GeodesicLength=0.18926508244869736 rxn_smarts="[C:1]([C:2]([O:3][C:4]([C:5]([O:6][H:16])([H:14])[H:15])([H:12])[H:13])([H:10])[H:11])([H:7])([H:8])[H:9]>>[C:1](=[C:2]([H:10])[H:11])([H:7])[H:8].[O:3]([C:4]([C:5]([O:6][H:16])([H:14])[H:15])([H:12])[H:13])[H:9]"
C       -2.34614783      -0.46436298       0.14422291
C       -1.61803161      -0.39194561      -1.06150185
O        0.06646943      -0.49165425      -0.17694627
C        0.89950036       0.64229192      -0.26317631
C        1.96449085       0.55992623       0.81178449
O        2.73841620      -0.60897497       0.68126895
H       -2.80441791      -1.40935654       0.41107989
H       -2.85413440       0.42751082       0.49282881
H       -0.97383246      -0.47075460       0.56112766
H       -1.51461467       0.55831382      -1.57693595
H       -1.50838170      -1.26512078      -1.69417330
H        0.33338563       1.58029807      -0.15512696
H        1.37387289       0.64909858      -1.25021696
H        1.47981498       0.60676079       1.79707322
H        2.64542581       1.41014871       0.73093152
H        2.11818444      -1.33217920       0.54776015
16
Frame=4 idx=004367 GeodesicLength=0.2518139460106269 rxn_smarts="[C:1]([C:2]([O:3][C:4]([C:5]([O:6][H:16])([H:14])[H:15])([H:12])[H:13])([H:10])[H:11])([H:7])([H:8])[H:9]>>[C:1](=[C:2]([H:10])[H:11])([H:7])[H:8].[O:3]([C:4]([C:5]([O:6][H:16])([H:14])[H:15])([H:12])[H:13])[H:9]"
C       -2.34785544      -0.48920762       0.14891541
C       -1.63009803      -0.36601026      -1.05979046
O        0.06966282      -0.48418917      -0.17960718
C        0.91835445       0.63591424      -0.28172112
C        1.96772006       0.56716193       0.80933326
O        2.72704638      -0.61525126       0.72074059
H       -2.78763831      -1.45071321       0.38746067
H       -2.87240143       0.38139245       0.52627246
H       -0.97113222      -0.48662216       0.57513117
H       -1.55188706       0.60411758      -1.54239254
H       -1.52870816      -1.21378191      -1.72805882
H        0.36998824       1.58744717      -0.20928937
H        1.40560289       0.60964912      -1.26228661
H        1.47051579       0.64766221       1.78620409
H        2.66193505       1.40522766       0.71525554
H        2.09889499      -1.33279676       0.59383291
16
Frame=5 idx=004367 GeodesicLength=0.3140084513922809 rxn_smarts="[C:1]([C:2]([O:3][C:4]([C:5]([O:6][H:16])([H:14])[H:15])([H:12])[H:13])([H:10])[H:11])([H:7])([H:8])[H:9]>>[C:1](=[C:2]([H:10])[H:11])([H:7])[H:8].[O:3]([C:4]([C:5]([O:6][H:16])([H:14])[H:15])([H:12])[H:13])[H:9]"
C       -2.34910981      -0.51462301       0.15280641
C       -1.64251469      -0.33848480      -1.05682731
O        0.07285293      -0.47717309      -0.18192487
C        0.93752820       0.62813338      -0.30081930
C        1.97070225       0.57492671       0.80631541
O        2.71472313      -0.61970592       0.76150570
H       -2.77035778      -1.49174181       0.36051604
H       -2.88984121       0.33274311       0.55969351
H       -0.96818122      -0.50461444       0.58914719
H       -1.58897713       0.65080832      -1.50338385
H       -1.55042012      -1.15821865      -1.76108824
H        0.40795001       1.59200403      -0.26584132
H        1.43744694       0.56721997      -1.27357186
H        1.46111767       0.69011782       1.77331312
H        2.67823140       1.40017674       0.69891906
H        2.07884941      -1.33156837       0.64124033
16
Frame=6 idx=004367 GeodesicLength=0.37582293566674463 rxn_smarts="[C:1]([C:2]([O:3][C:4]([C:5]([O:6][H:16])([H:14])[H:15])([H:12])[H:13])([H:10])[H:11])([H:7])([H:8])[H:9]>>[C:1](=[C:2]([H:10])[H:11])([H:7])[H:8].[O:3]([C:4]([C:5]([O:6][H:16])([H:14])[H:15])([H:12])[H:13])[H:9]"
C       -2.34993008      -0.54038098       0.15577018
C       -1.65524483      -0.30946896      -1.05248671
O        0.07610049      -0.47077785      -0.18390243
C        0.95694170       0.61884313      -0.32037978
C        1.97339017       0.58326127       0.80271903
O        2.70162542      -0.62197855       0.80336805
H       -2.75301509      -1.53186841       0.33010287
H       -2.90615869       0.28186814       0.59278919
H       -0.96496532      -0.52523031       0.60300997
H       -1.62549353       0.69801713      -1.45982858
H       -1.57360581      -1.09853049      -1.79276591
H        0.44702677       1.59355506      -0.32458406
H        1.46927817       0.52193315      -1.28384408
H        1.45157378       0.73384241       1.75829906
H        2.69410101       1.39519131       0.68206095
H        2.05837584      -1.32827604       0.68967227
16
Frame=7 idx=004367 GeodesicLength=0.4371875305805611 rxn_smarts="[C:1]([C:2]([O:3][C:4]([C:5]([O:6][H:16])([H:14])[H:15])([H:12])[H:13])([H:10])[H:11])([H:7])([H:8])[H:9]>>[C:1](=[C:2]([H:10])[H:11])([H:7])[H:8].[O:3]([C:4]([C:5]([O:6][H:16])([H:14])[H:15])([H:12])[H:13])[H:9]"
C       -2.35027471      -0.56638014       0.15772718
C       -1.66823961      -0.27888287      -1.04655704
O        0.07947616      -0.46518425      -0.18563236
C        0.97657529       0.60785111      -0.34043261
C        1.97565436       0.59222685       0.79847869
O        2.68775908      -0.62175653       0.84635401
H       -2.73576745      -1.57074885       0.29598869
H       -2.92113937       0.22879791       0.62546349
H       -0.96138401      -0.54891489       0.61648187
H       -1.66112263       0.74563154      -1.41132761
H       -1.59834419      -1.03441703      -1.82274403
H        0.48709892       1.59164366      -0.38560995
H        1.50112551       0.47364597      -1.29292125
H        1.44166325       0.77880065       1.74093014
H        2.70931266       1.39040906       0.66468551
H        2.03760672      -1.32272219       0.73911528
16
Frame=8 idx=004367 GeodesicLength=0.4981268164591931 rxn_smarts="[C:1]([C:2]([O:3][C:4]([C:5]([O:6][H:16])([H:14])[H:15])([H:12])[H:13])([H:10])[H:11])([H:7])([H:8])[H:9]>>[C:1](=[C:2]([H:10])[H:11])([H:7])[H:8].[O:3]([C:4]([C:5]([O:6][H:16])([H:14])[H:15])([H:12])[H:13])[H:9]"
C       -2.35019002      -0.59240441       0.15856274
C       -1.68142219      -0.24680190      -1.03887985
O        0.08304594      -0.46060208      -0.18714992
C        0.99636410       0.59504145      -0.36090271
C        1.97743016       0.60186766       0.79356217
O        2.67329300      -0.61870702       0.89028711
H       -2.71901042      -1.60786215       0.25811267
H       -2.93459698       0.17381854       0.65740464
H       -0.95741226      -0.57614062       0.62929165
H       -1.69542515       0.79330594      -1.35779027
H       -1.62466658      -0.96590590      -1.85052628
H        0.52788950       1.58585157      -0.44870878
H        1.53292266       0.42250092      -1.30058646
H        1.43127176       0.82472627       1.72109613
H        2.72366478       1.38605012       0.64686748
H        2.01684171      -1.31473841       0.78935967
16
Frame=9 idx=004367 GeodesicLength=0.5585993563392084 rxn_smarts="[C:1]([C:2]([O:3][C:4]([C:5]([O:6][H:16])([H:14])[H:15])([H:12])[H:13])([H:10])[H:11])([H:7])([H:8])[H:9]>>[C:1](=[C:2]([H:10])[H:11])([H:7])[H:8].[O:3]([C:4]([C:5]([O:6][H:16])([H:14])[H:15])([H:12])[H:13])[H:9]"
C       -2.34955115      -0.61850585       0.15823286
C       -1.69470306      -0.21289999      -1.02905294
O        0.08694888      -0.45731320      -0.18874059
C        1.01639699       0.58003964      -0.38199011
C        1.97843971       0.61230052       0.78781583
O        2.65794823      -0.61246825       0.93553065
H       -2.70258134      -1.64302645       0.21598873
H       -2.94636921       0.11656189       0.68878175
H       -0.95276045      -0.60740182       0.64101029
H       -1.72817334       0.84116218      -1.29822326
H       -1.65270386      -0.89201456      -1.87582315
H        0.56947713       1.57554023      -0.51440887
H        1.56494950       0.36793184      -1.30663532
H        1.41990345       0.87195008       1.69827770
H        2.73683627       1.38222042       0.62847285
H        1.99594225      -1.30407667       0.84076360
16
Frame=10 idx=004367 GeodesicLength=0.6185736772217687 rxn_smarts="[C:1]([C:2]([O:3][C:4]([C:5]([O:6][H:16])([H:14])[H:15])([H:12])[H:13])([H:10])[H:11])([H:7])([H:8])[H:9]>>[C:1](=[C:2]([H:10])[H:11])([H:7])[H:8].[O:3]([C:4]([C:5]([O:6][H:16])([H:14])[H:15])([H:12])[H:13])[H:9]"
C       -2.34845159      -0.64413368       0.15660915
C       -1.70786195      -0.17766866      -1.01707483
O        0.09127528      -0.45560567      -0.19037824
C        1.03646160       0.56291848      -0.40337047
C        1.97861669       0.62349623       0.78127851
O        2.64213986      -0.60269899       0.98138214
H       -2.68738766      -1.67522622       0.17003830
H       -2.95602422       0.05808019       0.71900113
H       -0.94753615      -0.64322545       0.65118769
H       -1.75853117       0.88831189      -1.23334969
H       -1.68229871      -0.81375619      -1.89780057
H        0.61116665       1.56043514      -0.58172123
H        1.59695890       0.31081595      -1.31076918
H        1.40745741       0.91959778       1.67263305
H        2.74848928       1.37930914       0.60978747
H        1.97552577      -1.29064995       0.89254676
16
Frame=11 idx=004367 GeodesicLength=0.6781238342469684 rxn_smarts="[C:1]([C:2]([O:3][C:4]([C:5]([O:6][H:16])([H:14])[H:15])([H:12])[H:13])([H:10])[H:11])([H:7])([H:8])[H:9]>>[C:1](=[C:2]([H:10])[H:11])([H:7])[H:8].[O:3]([C:4]([C:5]([O:6][H:16])([H:14])[H:15])([H:12])[H:13])[H:9]"
C       -2.34692614      -0.66913086       0.15364689
C       -1.72068512      -0.14113684      -1.00266914
O        0.09614527      -0.45577134      -0.19220918
C        1.05655563       0.54351456      -0.42501212
C        1.97780531       0.63549941       0.77385238
O        2.62584643      -0.58912877       1.02774336
H       -2.67361222      -1.70400333       0.12023656
H       -2.96361811      -0.00149535       0.74779884
H       -0.94164707      -0.68389255       0.65934040
H       -1.78608492       0.93437717      -1.16290846
H       -1.71330234      -0.73090171      -1.91590559
H        0.65274905       1.54014669      -0.65049631
H        1.62904441       0.25120826      -1.31275474
H        1.39366129       0.96754267       1.64392310
H        2.75837453       1.37752266       0.59077738
H        1.95569400      -1.27435066       0.94463664
16
Frame=12 idx=004367 GeodesicLength=0.7372634717108296 rxn_smarts="[C:1]([C:2]([O:3][C:4]([C:5]([O:6][H:16])([H:14])[H:15])([H:12])[H:13])([H:10])[H:11])([H:7])([H:8])[H:9]>>[C:1](=[C:2]([H:10])[H:11])([H:7])[H:8].[O:3]([C:4]([C:5]([O:6][H:16])([H:14])[H:15])([H:12])[H:13])[H:9]"
C       -2.34503540      -0.69310494       0.14931644
C       -1.73287900      -0.10369501      -0.98580020
O        0.10165309      -0.45805826      -0.19430051
C        1.07655399       0.52191311      -0.44667555
C        1.97590078       0.64825162       0.76552824
O        2.60923913      -0.57163807       1.07407487
H       -2.66170980      -1.72866636       0.06710884
H       -2.96904391      -0.06142908       0.77473397
H       -0.93517055      -0.72950598       0.66494695
H       -1.81025670       0.97861922      -1.08751322
H       -1.74538645      -0.64418831      -1.92947268
H        0.69370428       1.51460191      -0.71991524
H        1.66112533       0.18985417      -1.31239579
H        1.37834804       1.01515124       1.61224618
H        2.76623707       1.37710595       0.57157409
H        1.93672009      -1.25521120       0.99654361
16
Frame=13 idx=004367 GeodesicLength=0.7961326354935481 rxn_smarts="[C:1]([C:2]([O:3][C:4]([C:5]([O:6][H:16])([H:14])[H:15])([H:12])[H:13])([H:10])[H:11])([H:7])([H:8])[H:9]>>[C:1](=[C:2]([H:10])[H:11])([H:7])[H:8].[O:3]([C:4]([C:5]([O:6][H:16])([H:14])[H:15])([H:12])[H:13])[H:9]"
C       -2.34255439      -0.71606455       0.14368374
C       -1.74417040      -0.06511438      -0.96599658
O        0.10803729      -0.46292074      -0.19715723
C        1.09662767       0.49775240      -0.46858352
C        1.97243866       0.66185558       0.75610318
O        2.59176285      -0.54986055       1.12068797
H       -2.65160875      -1.74886570       0.01035783
H       -2.97197400      -0.12198220       0.80016472
H       -0.92782142      -0.78053620       0.66716172
H       -1.83062347       1.02099865      -1.00622983
H       -1.77851522      -0.55279446      -1.93795965
H        0.73416394       1.48324720      -0.79039552
H        1.69377552       0.12640176      -1.30945573
H        1.36066906       1.06264024       1.57694750
H        2.77159393       1.37822942       0.55205908
H        1.91819874      -1.23298648       1.04861231
16
Frame=14 idx=004367 GeodesicLength=0.8549803455122046 rxn_smarts="[C:1]([C:2]([O:3][C:4]([C:5]([O:6][H:16])([H:14])[H:15])([H:12])[H:13])([H:10])[H:11])([H:7])([H:8])[H:9]>>[C:1](=[C:2]([H:10])[H:11])([H:7])[H:8].[O:3]([C:4]([C:5]([O:6][H:16])([H:14])[H:15])([H:12])[H:13])[H:9]"
C       -2.33957986      -0.73767619       0.13680963
C       -1.75420274      -0.02585725      -0.94324362
O        0.11537825      -0.47061382      -0.20086419
C        1.11670945       0.47120711      -0.49050038
C        1.96735866       0.67621921       0.74555969
O        2.57350731      -0.52379417       1.16700571
H       -2.64374228      -1.76400392      -0.04931355
H       -2.97252559      -0.18248712       0.82363798
H       -0.91981170      -0.83678981       0.66546353
H       -1.84666170       1.06070701      -0.91983239
H       -1.81218891      -0.45757487      -1.94069449
H        0.77370200       1.44623158      -0.86106551
H        1.72700455       0.06175811      -1.30383126
H        1.34051481       1.10933134       1.53816172
H        2.77431271       1.38110078       0.53232412
H        1.90022504      -1.20775800       1.10038300
16
Frame=15 idx=004367 GeodesicLength=0.9140284017319604 rxn_smarts="[C:1]([C:2]([O:3][C:4]([C:5]([O:6][H:16])([H:14])[H:15])([H:12])[H:13])([H:10])[H:11])([H:7])([H:8])[H:9]>>[C:1](=[C:2]([H:10])[H:11])([H:7])[H:8].[O:3]([C:4]([C:5]([O:6][H:16])([H:14])[H:15])([H:12])[H:13])[H:9]"
C       -2.33593186      -0.75779190       0.12879098
C       -1.76259203       0.01399413      -0.91725559
O        0.12383080      -0.48152832      -0.20582999
C        1.13688044       0.44217217      -0.51249086
C        1.96025181       0.69131043       0.73374488
O        2.55397515      -0.49330411       1.21291846
H       -2.63811112      -1.77368331      -0.11153311
H       -2.97042098      -0.24281406       0.84525811
H       -0.91112128      -0.89825110       0.65908956
H       -1.85782276       1.09740618      -0.82817791
H       -1.84595819      -0.35851912      -1.93701261
H        0.81228528       1.40340595      -0.93181351
H        1.76124899      -0.00377383      -1.29541059
H        1.31717553       1.15494718       1.49553279
H        2.77396995       1.38584196       0.51234320
H        1.88234028      -1.17941225       1.15184617
16
Frame=16 idx=004367 GeodesicLength=0.9735830198541146 rxn_smarts="[C:1]([C:2]([O:3][C:4]([C:5]([O:6][H:16])([H:14])[H:15])([H:12])[H:13])([H:10])[H:11])([H:7])([H:8])[H:9]>>[C:1](=[C:2]([H:10])[H:11])([H:7])[H:8].[O:3]([C:4]([C:5]([O:6][H:16])([H:14])[H:15])([H:12])[H:13])[H:9]"
C       -2.33149698      -0.77624680       0.11975731
C       -1.76886047       0.05417711      -0.88779342
O        0.13351709      -0.49591957      -0.21229038
C        1.15719536       0.41070513      -0.53448599
C        1.95084978       0.70703981       0.72049813
O        2.53268936      -0.45841694       1.25807011
H       -2.63460813      -1.77748030      -0.17579947
H       -2.96577597      -0.30276387       0.86481513
H       -0.90191052      -0.96449870       0.64750978
H       -1.86369582       1.13047462      -0.73143047
H       -1.87910848      -0.25596034      -1.92617970
H        0.84984977       1.35487213      -1.00221825
H        1.79672529      -0.06968158      -1.28408919
H        1.29030167       1.19912914       1.44880979
H        2.77030516       1.39248413       0.49204138
H        1.86402290      -1.14791397       1.20278524
