12
Frame=0 idx=002523 GeodesicLength=0.0 rxn_smarts="[C:1](/[C:2](=[N:3]\[H:10])[N:4]([C:5](=[O:6])[H:12])[H:11])([H:7])([H:8])[H:9]>>[C:1](/[C:2]([N:3]([H:10])[H:11])=[N:4]/[C:5](=[O:6])[H:12])([H:7])([H:8])[H:9]"
C       -1.39980373       0.42778437       0.79259780
C       -0.33704857       0.64867716      -0.25751565
N       -0.39146693       1.47428937      -1.22608873
N        0.75284598      -0.12625890      -0.07875966
C        1.77044787      -0.80982522       0.00109166
O        1.98740967      -1.98176085      -0.63211670
H       -2.29448210       1.00118347       0.55595508
H       -1.02630745       0.73866667       1.76968189
H       -1.66058605      -0.62961748       0.85825879
H       -1.27122654       1.97780284      -1.19451371
H        1.23061464      -2.16040825      -1.20285614
H        2.63960319      -0.56053319       0.61426534
12
Frame=1 idx=002523 GeodesicLength=0.19395960072631738 rxn_smarts="[C:1](/[C:2](=[N:3]\[H:10])[N:4]([C:5](=[O:6])[H:12])[H:11])([H:7])([H:8])[H:9]>>[C:1](/[C:2]([N:3]([H:10])[H:11])=[N:4]/[C:5](=[O:6])[H:12])([H:7])([H:8])[H:9]"
C       -1.39300328       0.43883009       0.81313189
C       -0.31530612       0.63503544      -0.22303934
N       -0.39642711       1.33325599      -1.28772622
N        0.79871998      -0.08806743       0.00859064
C        1.78953764      -0.82510995       0.05498825
O        1.95299250      -1.91320948      -0.71282875
H       -2.28126772       1.01267674       0.55421175
H       -1.03574762       0.77003371       1.78943025
H       -1.66024120      -0.61578667       0.89497366
H       -1.26231917       1.86088352      -1.28276398
H        1.14778437      -1.95061645      -1.30781950
H        2.65527773      -0.65792550       0.69885136
12
Frame=2 idx=002523 GeodesicLength=0.3907521907789321 rxn_smarts="[C:1](/[C:2](=[N:3]\[H:10])[N:4]([C:5](=[O:6])[H:12])[H:11])([H:7])([H:8])[H:9]>>[C:1](/[C:2]([N:3]([H:10])[H:11])=[N:4]/[C:5](=[O:6])[H:12])([H:7])([H:8])[H:9]"
C       -1.38134729       0.45110866       0.83158681
C       -0.29726966       0.62535583      -0.19895539
N       -0.40392566       1.20003764      -1.33551249
N        0.83572885      -0.05518480       0.06478224
C        1.79398439      -0.84713122       0.09873203
O        1.92820728      -1.84401412      -0.77729934
H       -2.26120133       1.03329713       0.56251652
H       -1.02891321       0.79140924       1.80632475
H       -1.66126702      -0.59938127       0.92303339
H       -1.25975167       1.74293430      -1.36200125
H        1.09307460      -1.74329284      -1.39179761
H        2.64268073      -0.75513855       0.77859033
12
Frame=3 idx=002523 GeodesicLength=0.5897950989170238 rxn_smarts="[C:1](/[C:2](=[N:3]\[H:10])[N:4]([C:5](=[O:6])[H:12])[H:11])([H:7])([H:8])[H:9]>>[C:1](/[C:2]([N:3]([H:10])[H:11])=[N:4]/[C:5](=[O:6])[H:12])([H:7])([H:8])[H:9]"
C       -1.36654765       0.46390571       0.84745577
C       -0.28296931       0.61790047      -0.18444078
N       -0.41314250       1.08142390      -1.37094718
N        0.86720916      -0.02534104       0.09737075
C        1.78927269      -0.87148576       0.13098379
O        1.91632535      -1.77667481      -0.82961180
H       -2.23650023       1.06043337       0.57726166
H       -1.01043982       0.80477910       1.82049030
H       -1.66355800      -0.58143637       0.94343677
H       -1.26585136       1.62624868      -1.43073173
H        1.05922988      -1.54917223      -1.45420945
H        2.60697177      -0.85058103       0.85294191
12
Frame=4 idx=002523 GeodesicLength=0.7876569111829523 rxn_smarts="[C:1](/[C:2](=[N:3]\[H:10])[N:4]([C:5](=[O:6])[H:12])[H:11])([H:7])([H:8])[H:9]>>[C:1](/[C:2]([N:3]([H:10])[H:11])=[N:4]/[C:5](=[O:6])[H:12])([H:7])([H:8])[H:9]"
C       -1.34886095       0.47577329       0.86090068
C       -0.27231782       0.61107857      -0.17864117
N       -0.42453005       0.97982827      -1.39786094
N        0.89604991       0.00495308       0.11069206
C        1.78029202      -0.89226895       0.15164275
O        1.90784107      -1.72287577      -0.86372116
H       -2.20844009       1.08980286       0.59653521
H       -0.98250525       0.81171569       1.83164758
H       -1.66457646      -0.56386663       0.95868183
H       -1.28153691       1.51316077      -1.48799221
H        1.04779196      -1.36525825      -1.50397517
H        2.55079256      -0.94204294       0.92209055
12
Frame=5 idx=002523 GeodesicLength=0.9866161734211746 rxn_smarts="[C:1](/[C:2](=[N:3]\[H:10])[N:4]([C:5](=[O:6])[H:12])[H:11])([H:7])([H:8])[H:9]>>[C:1](/[C:2]([N:3]([H:10])[H:11])=[N:4]/[C:5](=[O:6])[H:12])([H:7])([H:8])[H:9]"
C       -1.33078275       0.48520947       0.87090079
C       -0.26235610       0.60608133      -0.17667830
N       -0.43385745       0.89374865      -1.41745504
N        0.92347857       0.03510400       0.11391772
C        1.77131971      -0.90794501       0.16382279
O        1.90543195      -1.67623039      -0.88853732
H       -2.17889101       1.11882383       0.61552817
H       -0.95312293       0.81028910       1.84081678
H       -1.66654824      -0.54842365       0.96516343
H       -1.29837127       1.40909471      -1.53365713
H        1.03667376      -1.20459454      -1.53273155
H        2.48702576      -1.02115749       0.97890965
12
Frame=6 idx=002523 GeodesicLength=1.185004175810354 rxn_smarts="[C:1](/[C:2](=[N:3]\[H:10])[N:4]([C:5](=[O:6])[H:12])[H:11])([H:7])([H:8])[H:9]>>[C:1](/[C:2]([N:3]([H:10])[H:11])=[N:4]/[C:5](=[O:6])[H:12])([H:7])([H:8])[H:9]"
C       -1.31241862       0.49172289       0.87825031
C       -0.25300614       0.60220221      -0.17759247
N       -0.44121240       0.82166592      -1.43219625
N        0.95004539       0.06588558       0.10932249
C        1.76529969      -0.91639110       0.16952215
O        1.90106671      -1.64312311      -0.90178772
H       -2.14814914       1.14623061       0.63463496
H       -0.92288355       0.80104572       1.84842384
H       -1.66898435      -0.53558532       0.96462171
H       -1.31578849       1.31361809      -1.56986539
H        1.02756194      -1.06075079      -1.54939828
H        2.41846897      -1.08652071       1.02606466
12
Frame=7 idx=002523 GeodesicLength=1.3828550510701234 rxn_smarts="[C:1](/[C:2](=[N:3]\[H:10])[N:4]([C:5](=[O:6])[H:12])[H:11])([H:7])([H:8])[H:9]>>[C:1](/[C:2]([N:3]([H:10])[H:11])=[N:4]/[C:5](=[O:6])[H:12])([H:7])([H:8])[H:9]"
C       -1.29383221       0.49592423       0.88387708
C       -0.24408985       0.59868965      -0.18037135
N       -0.44668872       0.76073071      -1.44372511
N        0.97568019       0.09668687       0.09902301
C        1.76292925      -0.91867029       0.17088386
O        1.89675773      -1.61973626      -0.90763461
H       -2.11624948       1.17206432       0.65394975
H       -0.89207269       0.78606825       1.85478737
H       -1.67195355      -0.52447041       0.95952222
H       -1.33323764       1.22458810      -1.59876997
H        1.01864885      -0.93125893      -1.55811986
H        2.34410813      -1.14061625       1.06657760
12
Frame=8 idx=002523 GeodesicLength=1.580503002951455 rxn_smarts="[C:1](/[C:2](=[N:3]\[H:10])[N:4]([C:5](=[O:6])[H:12])[H:11])([H:7])([H:8])[H:9]>>[C:1](/[C:2]([N:3]([H:10])[H:11])=[N:4]/[C:5](=[O:6])[H:12])([H:7])([H:8])[H:9]"
C       -1.27514093       0.49860149       0.88858204
C       -0.23568202       0.59464008      -0.18432945
N       -0.45092316       0.70804364      -1.45307896
N        1.00006884       0.12652666       0.08447647
C        1.76304138      -0.91726143       0.16991178
O        1.89591003      -1.60254322      -0.90876639
H       -2.08306320       1.19696495       0.67364072
H       -0.86070033       0.76728796       1.86013097
H       -1.67590961      -0.51391508       0.95211040
H       -1.35054778       1.14005669      -1.62181012
H        1.00992472      -0.81292194      -1.56235907
H        2.26302206      -1.18547979       1.10149162
12
Frame=9 idx=002523 GeodesicLength=1.7781019738955361 rxn_smarts="[C:1](/[C:2](=[N:3]\[H:10])[N:4]([C:5](=[O:6])[H:12])[H:11])([H:7])([H:8])[H:9]>>[C:1](/[C:2]([N:3]([H:10])[H:11])=[N:4]/[C:5](=[O:6])[H:12])([H:7])([H:8])[H:9]"
C       -1.25708510       0.50051005       0.89284791
C       -0.22821148       0.58879607      -0.18884803
N       -0.45476950       0.66059443      -1.46076052
N        1.02245887       0.15386239       0.06729348
C        1.76311590      -0.91547523       0.16841154
O        1.90086948      -1.58978881      -0.90640168
H       -2.04809744       1.22275614       0.69391318
H       -0.82934952       0.74523439       1.86476151
H       -1.68304245      -0.50237542       0.94343481
H       -1.36733218       1.05904627      -1.63997228
H        1.00260141      -0.70209046      -1.56460295
H        2.17884201      -1.22106982       1.12992302
12
Frame=10 idx=002523 GeodesicLength=1.9757671569798192 rxn_smarts="[C:1](/[C:2](=[N:3]\[H:10])[N:4]([C:5](=[O:6])[H:12])[H:11])([H:7])([H:8])[H:9]>>[C:1](/[C:2]([N:3]([H:10])[H:11])=[N:4]/[C:5](=[O:6])[H:12])([H:7])([H:8])[H:9]"
C       -1.24004237       0.50201209       0.89687802
C       -0.22182640       0.58072192      -0.19353997
N       -0.45877110       0.61658725      -1.46709687
N        1.04260000       0.17815510       0.04841927
C        1.76191919      -0.91473578       0.16692600
O        1.91284888      -1.58070729      -0.90108676
H       -2.01116671       1.24990857       0.71462399
H       -0.79864851       0.72035516       1.86876870
H       -1.69410889      -0.48902245       0.93413353
H       -1.38337386       0.98128252      -1.65404982
H        0.99636135      -0.59634135      -1.56603592
H        2.09420843      -1.24821575       1.15205985
12
Frame=11 idx=002523 GeodesicLength=2.173531986544591 rxn_smarts="[C:1](/[C:2](=[N:3]\[H:10])[N:4]([C:5](=[O:6])[H:12])[H:11])([H:7])([H:8])[H:9]>>[C:1](/[C:2]([N:3]([H:10])[H:11])=[N:4]/[C:5](=[O:6])[H:12])([H:7])([H:8])[H:9]"
C       -1.22415466       0.50309298       0.90061066
C       -0.21630947       0.57084434      -0.19807728
N       -0.46275089       0.57581446      -1.47227936
N        1.06061725       0.19948420       0.02852363
C        1.75907234      -0.91541356       0.16541158
O        1.92977698      -1.57657718      -0.89223645
H       -1.97251153       1.27779966       0.73543188
H       -0.76934424       0.69281156       1.87212869
H       -1.70871856      -0.47378716       0.92415222
H       -1.39854577       0.90633872      -1.66476164
H        0.99066721      -0.49316326      -1.56731543
H        2.01220135      -1.26724475       1.16841151
12
Frame=12 idx=002523 GeodesicLength=2.3713961263798495 rxn_smarts="[C:1](/[C:2](=[N:3]\[H:10])[N:4]([C:5](=[O:6])[H:12])[H:11])([H:7])([H:8])[H:9]>>[C:1](/[C:2]([N:3]([H:10])[H:11])=[N:4]/[C:5](=[O:6])[H:12])([H:7])([H:8])[H:9]"
C       -1.20943873       0.50383826       0.90401964
C       -0.21149457       0.55952683      -0.20229847
N       -0.46663661       0.53800330      -1.47652116
N        1.07665657       0.21792575       0.00803588
C        1.75430267      -0.91778608       0.16359143
O        1.95035346      -1.57803951      -0.87962293
H       -1.93231128       1.30593915       0.75609558
H       -0.74188325       0.66297648       1.87478735
H       -1.72634949      -0.45652814       0.91359852
H       -1.41290437       0.83334487      -1.67272295
H        0.98508058      -0.39005327      -1.56883391
H        1.93462503      -1.27914764       1.17987101
12
Frame=13 idx=002523 GeodesicLength=2.569371059799705 rxn_smarts="[C:1](/[C:2](=[N:3]\[H:10])[N:4]([C:5](=[O:6])[H:12])[H:11])([H:7])([H:8])[H:9]>>[C:1](/[C:2]([N:3]([H:10])[H:11])=[N:4]/[C:5](=[O:6])[H:12])([H:7])([H:8])[H:9]"
C       -1.19582128       0.50442369       0.90711035
C       -0.20725568       0.54707532      -0.20614776
N       -0.47045116       0.50267046      -1.48001904
N        1.09086560       0.23349306      -0.01281052
C        1.74736646      -0.92215623       0.16105048
O        1.97418161      -1.58523844      -0.86320957
H       -1.89072343       1.33395217       0.77639500
H       -0.71648636       0.63144047       1.87668228
H       -1.74638097      -0.43706666       0.90273248
H       -1.42650226       0.76124079      -1.67842475
H        0.97904799      -0.28453136      -1.57065385
H        1.86215949      -1.28530329       1.18729492
12
Frame=14 idx=002523 GeodesicLength=2.7674353364845476 rxn_smarts="[C:1](/[C:2](=[N:3]\[H:10])[N:4]([C:5](=[O:6])[H:12])[H:11])([H:7])([H:8])[H:9]>>[C:1](/[C:2]([N:3]([H:10])[H:11])=[N:4]/[C:5](=[O:6])[H:12])([H:7])([H:8])[H:9]"
C       -1.18325820       0.50484296       0.90978261
C       -0.20349107       0.53384821      -0.20966240
N       -0.47416793       0.46942474      -1.48299862
N        1.10338936       0.24610580      -0.03409476
C        1.73795521      -0.92889640       0.15733388
O        2.00047981      -1.59886388      -0.84257757
H       -1.84785681       1.36146975       0.79624547
H       -0.69332998       0.59825611       1.87770012
H       -1.76833996      -0.41539261       0.89139867
H       -1.43908876       0.68975646      -1.68233642
H        0.97147053      -0.17447985      -1.57243222
H        1.79623780      -1.28607126       1.19164125
12
Frame=15 idx=002523 GeodesicLength=2.9655793907997436 rxn_smarts="[C:1](/[C:2](=[N:3]\[H:10])[N:4]([C:5](=[O:6])[H:12])[H:11])([H:7])([H:8])[H:9]>>[C:1](/[C:2]([N:3]([H:10])[H:11])=[N:4]/[C:5](=[O:6])[H:12])([H:7])([H:8])[H:9]"
C       -1.17155225       0.50521754       0.91199149
C       -0.20002712       0.52038740      -0.21289914
N       -0.47756779       0.43808242      -1.48567235
N        1.11444271       0.25558112      -0.05613249
C        1.72562104      -0.93855876       0.15184713
O        2.02907611      -1.61931301      -0.81733579
H       -1.80398782       1.38805105       0.81548966
H       -0.67233696       0.56396145       1.87771547
H       -1.79133163      -0.39159967       0.87967564
H       -1.45042954       0.61783716      -1.68484853
H        0.96106706      -0.05739231      -1.57344061
H        1.73702619      -1.28225439       1.19360952
12
Frame=16 idx=002523 GeodesicLength=3.1638688347041546 rxn_smarts="[C:1](/[C:2](=[N:3]\[H:10])[N:4]([C:5](=[O:6])[H:12])[H:11])([H:7])([H:8])[H:9]>>[C:1](/[C:2]([N:3]([H:10])[H:11])=[N:4]/[C:5](=[O:6])[H:12])([H:7])([H:8])[H:9]"
C       -1.16037419       0.50565851       0.91374406
C       -0.19675327       0.50724716      -0.21601153
N       -0.48039396       0.40883139      -1.48836605
N        1.12421970       0.26150837      -0.07992762
C        1.70966950      -0.95188069       0.14394201
O        2.06114154      -1.64663770      -0.78654414
H       -1.75924809       1.41339089       0.83418023
H       -0.65303572       0.52892513       1.87657100
H       -1.81444572      -0.36582216       0.86757822
H       -1.46015794       0.54456309      -1.68630216
H        0.94564743       0.06866312      -1.57249245
H        1.68373073      -1.27444712       1.19362844
