10
Frame=0 idx=000797 GeodesicLength=0.0 rxn_smarts="[O:1]([c:2]1[c:3]([H:8])[n:4][c:5]([H:9])[n:6]1[H:10])[H:7]>>[O:1]([C@@:5]1([H:9])[N-:4][C:3]([H:8])=[C+:2][N:6]1[H:10])[H:7]"
O       -0.78625315      -0.97523878      -0.54337504
C       -0.74171800      -0.09887847       0.94593139
C       -0.49904508       1.22819228       0.20833450
N        0.49157589       1.15696359      -0.60174233
C        0.91001045      -0.17141493      -0.33212574
N        0.70879614      -0.48385048       0.96504167
H       -1.44784903      -0.65357754      -1.16987535
H       -1.10071458       2.12463831       0.31331910
H        1.60741606      -0.67342931      -0.99485840
H        0.85778130      -1.45340467       1.20935020
10
Frame=1 idx=000797 GeodesicLength=0.06111060415079616 rxn_smarts="[O:1]([c:2]1[c:3]([H:8])[n:4][c:5]([H:9])[n:6]1[H:10])[H:7]>>[O:1]([C@@:5]1([H:9])[N-:4][C:3]([H:8])=[C+:2][N:6]1[H:10])[H:7]"
O       -0.79460628      -0.98570752      -0.54994822
C       -0.73580131      -0.09240752       0.94666570
C       -0.49244003       1.23251036       0.21684548
N        0.49755118       1.15715060      -0.59848087
C        0.90893427      -0.17308678      -0.34229571
N        0.70081606      -0.48836007       0.95837354
H       -1.46591740      -0.65693064      -1.16153130
H       -1.10397650       2.12354844       0.30723151
H        1.63014202      -0.66218029      -0.98813560
H        0.85529797      -1.45453659       1.21127546
10
Frame=2 idx=000797 GeodesicLength=0.12220747081589481 rxn_smarts="[O:1]([c:2]1[c:3]([H:8])[n:4][c:5]([H:9])[n:6]1[H:10])[H:7]>>[O:1]([C@@:5]1([H:9])[N-:4][C:3]([H:8])=[C+:2][N:6]1[H:10])[H:7]"
O       -0.80324526      -0.99632661      -0.55667974
C       -0.72987909      -0.08595256       0.94724426
C       -0.48565263       1.23687440       0.22533645
N        0.50357904       1.15726159      -0.59536353
C        0.90768683      -0.17482709      -0.35286450
N        0.69277420      -0.49294929       0.95135765
H       -1.48421827      -0.66051362      -1.15283999
H       -1.10683186       2.12229445       0.30122789
H        1.65300807      -0.65028698      -0.98046566
H        0.85277897      -1.45557430       1.21304718
10
Frame=3 idx=000797 GeodesicLength=0.1832635320876397 rxn_smarts="[O:1]([c:2]1[c:3]([H:8])[n:4][c:5]([H:9])[n:6]1[H:10])[H:7]>>[O:1]([C@@:5]1([H:9])[N-:4][C:3]([H:8])=[C+:2][N:6]1[H:10])[H:7]"
O       -0.81213811      -1.00710922      -0.56358905
C       -0.72395468      -0.07952423       0.94764170
C       -0.47870384       1.24126358       0.23377375
N        0.50964746       1.15729343      -0.59240107
C        0.90628869      -0.17661219      -0.36382476
N        0.68466088      -0.49759938       0.94399932
H       -1.50268109      -0.66436260      -1.14384443
H       -1.10922138       2.12090882       0.29538997
H        1.67585221      -0.63777919      -0.97183036
H        0.85024986      -1.45647903       1.21468493
10
Frame=4 idx=000797 GeodesicLength=0.24423547482041952 rxn_smarts="[O:1]([c:2]1[c:3]([H:8])[n:4][c:5]([H:9])[n:6]1[H:10])[H:7]>>[O:1]([C@@:5]1([H:9])[N-:4][C:3]([H:8])=[C+:2][N:6]1[H:10])[H:7]"
O       -0.82122526      -1.01808011      -0.57068323
C       -0.71803246      -0.07312803       0.94782665
C       -0.47160659       1.24567526       0.24213401
N        0.51576357       1.15726235      -0.58957984
C        0.90478036      -0.17841382      -0.37513612
N        0.67646010      -0.50229144       0.93631203
H       -1.52119800      -0.66852717      -1.13459000
H       -1.11111919       2.11943658       0.28978915
H        1.69846247      -0.62471276      -0.96229217
H        0.84771500      -1.45722087       1.21621954
10
Frame=5 idx=000797 GeodesicLength=0.3051664627458797 rxn_smarts="[O:1]([c:2]1[c:3]([H:8])[n:4][c:5]([H:9])[n:6]1[H:10])[H:7]>>[O:1]([C@@:5]1([H:9])[N-:4][C:3]([H:8])=[C+:2][N:6]1[H:10])[H:7]"
O       -0.83050589      -1.02925945      -0.57796909
C       -0.71212954      -0.06678192       0.94780745
C       -0.46438037       1.25009211       0.25041371
N        0.52190556       1.15715929      -0.58693262
C        0.90316280      -0.18020894      -0.38682992
N        0.66816291      -0.50702181       0.92829076
H       -1.53973752      -0.67301551      -1.12509545
H       -1.11248077       2.11792089       0.28447612
H        1.72080868      -0.61111663      -0.95180826
H        0.84519415      -1.45776802       1.21764731
10
Frame=6 idx=000797 GeodesicLength=0.3660648958742723 rxn_smarts="[O:1]([c:2]1[c:3]([H:8])[n:4][c:5]([H:9])[n:6]1[H:10])[H:7]>>[O:1]([C@@:5]1([H:9])[N-:4][C:3]([H:8])=[C+:2][N:6]1[H:10])[H:7]"
O       -0.83990075      -1.04066484      -0.58549054
C       -0.70624642      -0.06047220       0.94754537
C       -0.45701055       1.25452068       0.25861151
N        0.52812208       1.15700879      -0.58439676
C        0.90153170      -0.18197036      -0.39881211
N        0.65976120      -0.51176363       0.91997990
H       -1.55820980      -0.67790026      -1.11542800
H       -1.11330262       2.11637343       0.27947999
H        1.74255394      -0.59704369      -0.94050952
H        0.84270122      -1.45808792       1.21902016
10
Frame=7 idx=000797 GeodesicLength=0.42693874702062623 rxn_smarts="[O:1]([c:2]1[c:3]([H:8])[n:4][c:5]([H:9])[n:6]1[H:10])[H:7]>>[O:1]([C@@:5]1([H:9])[N-:4][C:3]([H:8])=[C+:2][N:6]1[H:10])[H:7]"
O       -0.84934527      -1.05228956      -0.59328874
C       -0.70040398      -0.05423130       0.94704222
C       -0.44952487       1.25895304       0.26675152
N        0.53441003       1.15685594      -0.58194435
C        0.89993372      -0.18361257      -0.41106711
N        0.65125602      -0.51650356       0.91139974
H       -1.57654509      -0.68318663      -1.10561005
H       -1.11361030       2.11484425       0.27481257
H        1.76354643      -0.58268433      -0.92844249
H        0.84028332      -1.45814528       1.22034668
10
Frame=8 idx=000797 GeodesicLength=0.48772969381353437 rxn_smarts="[O:1]([c:2]1[c:3]([H:8])[n:4][c:5]([H:9])[n:6]1[H:10])[H:7]>>[O:1]([C@@:5]1([H:9])[N-:4][C:3]([H:8])=[C+:2][N:6]1[H:10])[H:7]"
O       -0.85878792      -1.06413048      -0.60136009
C       -0.69459706      -0.04804507       0.94628664
C       -0.44191886       1.26338929       0.27482935
N        0.54076360       1.15669374      -0.57956613
C        0.89837944      -0.18513146      -0.42353124
N        0.64263011      -0.52123860       0.90257377
H       -1.59465525      -0.68888088      -1.09568238
H       -1.11341053       2.11333568       0.27051210
H        1.78367628      -0.56808172      -0.91574257
H        0.83792020      -1.45791051       1.22168054
10
Frame=9 idx=000797 GeodesicLength=0.548502307682769 rxn_smarts="[O:1]([c:2]1[c:3]([H:8])[n:4][c:5]([H:9])[n:6]1[H:10])[H:7]>>[O:1]([C@@:5]1([H:9])[N-:4][C:3]([H:8])=[C+:2][N:6]1[H:10])[H:7]"
O       -0.86817149      -1.07620106      -0.60975496
C       -0.68885328      -0.04192137       0.94527873
C       -0.43420419       1.26783999       0.28288033
N        0.54721293       1.15657505      -0.57720175
C        0.89693623      -0.18645899      -0.43615791
N        0.63387602      -0.52594617       0.89353636
H       -1.61249250      -0.69502942      -1.08567864
H       -1.11272023       2.11187952       0.26657877
H        1.80277619      -0.55339063      -0.90252375
H        0.83564032      -1.45734693       1.22304281
10
Frame=10 idx=000797 GeodesicLength=0.609245417129952 rxn_smarts="[O:1]([c:2]1[c:3]([H:8])[n:4][c:5]([H:9])[n:6]1[H:10])[H:7]>>[O:1]([C@@:5]1([H:9])[N-:4][C:3]([H:8])=[C+:2][N:6]1[H:10])[H:7]"
O       -0.87744899      -1.08849277      -0.61849439
C       -0.68318362      -0.03585715       0.94401591
C       -0.42638334       1.27230919       0.29092647
N        0.55376829       1.15652006      -0.57481331
C        0.89562319      -0.18755833      -0.44889785
N        0.62497599      -0.53062076       0.88430698
H       -1.63001099      -0.70164674      -1.07560728
H       -1.11157401       2.11049240       0.26301689
H        1.82079450      -0.53872221      -0.88891490
H        0.83343897      -1.45642367       1.22446147
10
Frame=11 idx=000797 GeodesicLength=0.6699717877795618 rxn_smarts="[O:1]([c:2]1[c:3]([H:8])[n:4][c:5]([H:9])[n:6]1[H:10])[H:7]>>[O:1]([C@@:5]1([H:9])[N-:4][C:3]([H:8])=[C+:2][N:6]1[H:10])[H:7]"
O       -0.88658172      -1.10100554      -0.62761141
C       -0.67760102      -0.02985009       0.94249783
C       -0.41845978       1.27680330       0.29899039
N        0.56043867       1.15655234      -0.57236857
C        0.89446711      -0.18839817      -0.46172025
N        0.61591997      -0.53525936       0.87489637
H       -1.64719055      -0.70876426      -1.06547218
H       -1.10997469       2.10919180       0.25982515
H        1.83766249      -0.52415528      -0.87499175
H        0.83131952      -1.45511473       1.22595442
10
Frame=12 idx=000797 GeodesicLength=0.7306678371749243 rxn_smarts="[O:1]([c:2]1[c:3]([H:8])[n:4][c:5]([H:9])[n:6]1[H:10])[H:7]>>[O:1]([C@@:5]1([H:9])[N-:4][C:3]([H:8])=[C+:2][N:6]1[H:10])[H:7]"
O       -0.89553371      -1.11374010      -0.63712477
C       -0.67212980      -0.02389796       0.94073041
C       -0.41045353       1.28132309       0.30708937
N        0.56722238       1.15669066      -0.56983892
C        0.89347519      -0.18894539      -0.47458271
N        0.60668813      -0.53984919       0.86532949
H       -1.66397194      -0.71639773      -1.05531050
H       -1.10794498       2.10801485       0.25704092
H        1.85335735      -0.50982421      -0.86089686
H        0.82929091      -1.45337402       1.22756357
10
Frame=13 idx=000797 GeodesicLength=0.7913553375355623 rxn_smarts="[O:1]([c:2]1[c:3]([H:8])[n:4][c:5]([H:9])[n:6]1[H:10])[H:7]>>[O:1]([C@@:5]1([H:9])[N-:4][C:3]([H:8])=[C+:2][N:6]1[H:10])[H:7]"
O       -0.90429011      -1.12670605      -0.64705594
C       -0.66678323      -0.01799186       0.93870715
C       -0.40236022       1.28586972       0.31524476
N        0.57412727       1.15694552      -0.56718878
C        0.89264692      -0.18917779      -0.48745500
N        0.59725612      -0.54437914       0.85560503
H       -1.68034036      -0.72459979      -1.04512980
H       -1.10546757       2.10698193       0.25468277
H        1.86786665      -0.49578908      -0.84670339
H        0.82734454      -1.45115346       1.22929321
10
Frame=14 idx=000797 GeodesicLength=0.8520265933449694 rxn_smarts="[O:1]([c:2]1[c:3]([H:8])[n:4][c:5]([H:9])[n:6]1[H:10])[H:7]>>[O:1]([C@@:5]1([H:9])[N-:4][C:3]([H:8])=[C+:2][N:6]1[H:10])[H:7]"
O       -0.91283214      -1.13991132      -0.65742523
C       -0.66158532      -0.01212755       0.93644347
C       -0.39420032       1.29045341       0.32347654
N        0.58115668       1.15733804      -0.56439804
C        0.89199122      -0.18907935      -0.50032279
N        0.58761526      -0.54885206       0.84573506
H       -1.69627275      -0.73338486      -1.03494803
H       -1.10256504       2.10613760       0.25276591
H        1.88119693      -0.48214557      -0.83249719
H        0.82549548      -1.44842833       1.23117029
10
Frame=15 idx=000797 GeodesicLength=0.9126841665068084 rxn_smarts="[O:1]([c:2]1[c:3]([H:8])[n:4][c:5]([H:9])[n:6]1[H:10])[H:7]>>[O:1]([C@@:5]1([H:9])[N-:4][C:3]([H:8])=[C+:2][N:6]1[H:10])[H:7]"
O       -0.92115673      -1.15334436      -0.66824914
C       -0.65654534      -0.00629878       0.93394435
C       -0.38596872       1.29506573       0.33180319
N        0.58831238       1.15786414      -0.56145019
C        0.89149382      -0.18864052      -0.51317346
N        0.57774227      -0.55327392       0.83571969
H       -1.71177184      -0.74278083      -1.02476693
H       -1.09922932       2.10549294       0.25129634
H        1.89338303      -0.46892544      -0.81833497
H        0.82374044      -1.44515896       1.23321112
10
Frame=16 idx=000797 GeodesicLength=0.9733289184854329 rxn_smarts="[O:1]([c:2]1[c:3]([H:8])[n:4][c:5]([H:9])[n:6]1[H:10])[H:7]>>[O:1]([C@@:5]1([H:9])[N-:4][C:3]([H:8])=[C+:2][N:6]1[H:10])[H:7]"
O       -0.92925503      -1.16703040      -0.67954147
C       -0.65167467      -0.00049639       0.93120275
C       -0.37766495       1.29971134       0.34024326
N        0.59559761       1.15853788      -0.55830328
C        0.89113250      -0.18784569      -0.52598768
N        0.56761112      -0.55762950       0.82554229
H       -1.72680500      -0.75283592      -1.01458151
H       -1.09543917       2.10507291       0.25029500
H        1.90443079      -0.45619615      -0.80426457
H        0.82206681      -1.44128808       1.23539520
