10
Frame=0 idx=009239 GeodesicLength=0.0 rxn_smarts="[C:1]([c:2]1[n:3][o:4][c:5](=[O:6])[o:7]1)([H:8])([H:9])[H:10]>>[C:1]([C:2]#[N+:3][O-:4])([H:8])([H:9])[H:10].[C:5](=[O:6])=[O:7]"
C       -1.72400700       0.17755080      -0.24823884
C       -0.44352545      -0.44080685       0.02424158
N        0.33542667      -1.28854234       0.28279802
O        1.59715793      -1.28689403       0.44133837
C        2.08258059       0.40348200       0.18289309
O        3.24827150       0.46766452       0.31791860
O        1.04825164       0.99270520      -0.05912153
H       -1.72448962       0.60908667      -1.24827477
H       -2.49697864      -0.58972108      -0.18138075
H       -1.92268762       0.95547511       0.48782623
10
Frame=1 idx=009239 GeodesicLength=0.02934933997571212 rxn_smarts="[C:1]([c:2]1[n:3][o:4][c:5](=[O:6])[o:7]1)([H:8])([H:9])[H:10]>>[C:1]([C:2]#[N+:3][O-:4])([H:8])([H:9])[H:10].[C:5](=[O:6])=[O:7]"
C       -1.72786495       0.17685204      -0.24841539
C       -0.43814767      -0.42947897       0.01370365
N        0.32744312      -1.28542611       0.29333021
O        1.59023479      -1.28601945       0.45959714
C        2.09584031       0.39753224       0.16444766
O        3.25780803       0.46833124       0.32196604
O        1.05868931       0.99232433      -0.06705013
H       -1.73434931       0.62420231      -1.24152286
H       -2.49251036      -0.59955281      -0.19495992
H       -1.93714326       0.94123518       0.49890359
10
Frame=2 idx=009239 GeodesicLength=0.05851940514140842 rxn_smarts="[C:1]([c:2]1[n:3][o:4][c:5](=[O:6])[o:7]1)([H:8])([H:9])[H:10]>>[C:1]([C:2]#[N+:3][O-:4])([H:8])([H:9])[H:10].[C:5](=[O:6])=[O:7]"
C       -1.73157601       0.17616277      -0.24807296
C       -0.43273078      -0.41856050       0.00231203
N        0.31955542      -1.28254990       0.30124006
O        1.58330758      -1.28520511       0.47565885
C        2.10829685       0.39244632       0.15229585
O        3.26667807       0.46981766       0.32839956
O        1.06985620       0.99052610      -0.08124545
H       -1.74572966       0.63795647      -1.23453874
H       -2.48831435      -0.60842729      -0.20578395
H       -1.94934331       0.92783347       0.50973477
10
Frame=3 idx=009239 GeodesicLength=0.08736522502295574 rxn_smarts="[C:1]([c:2]1[n:3][o:4][c:5](=[O:6])[o:7]1)([H:8])([H:9])[H:10]>>[C:1]([C:2]#[N+:3][O-:4])([H:8])([H:9])[H:10].[C:5](=[O:6])=[O:7]"
C       -1.73505160       0.17527670      -0.24829226
C       -0.42754429      -0.40760115      -0.00768032
N        0.31119305      -1.27893384       0.31122896
O        1.57701085      -1.28550760       0.48558259
C        2.12018613       0.38797286       0.14373521
O        3.27573747       0.47096249       0.33220323
O        1.08024872       0.98964192      -0.09021699
H       -1.75682440       0.64831618      -1.22934273
H       -2.48432070      -0.61666970      -0.21473957
H       -1.96063524       0.91654214       0.51752187
10
Frame=4 idx=009239 GeodesicLength=0.11605409328214737 rxn_smarts="[C:1]([c:2]1[n:3][o:4][c:5](=[O:6])[o:7]1)([H:8])([H:9])[H:10]>>[C:1]([C:2]#[N+:3][O-:4])([H:8])([H:9])[H:10].[C:5](=[O:6])=[O:7]"
C       -1.73837367       0.17432701      -0.24851196
C       -0.42245986      -0.39681233      -0.01739862
N        0.30272338      -1.27515453       0.32066958
O        1.57102648      -1.28656072       0.49182025
C        2.13171146       0.38392013       0.13757710
O        3.28450234       0.47252779       0.33707485
O        1.09045139       0.98875618      -0.09868543
H       -1.76854086       0.65623993      -1.22507476
H       -2.48062301      -0.62422893      -0.22118499
H       -1.97041764       0.90698547       0.52371398
10
Frame=5 idx=009239 GeodesicLength=0.1447171891367596 rxn_smarts="[C:1]([c:2]1[n:3][o:4][c:5](=[O:6])[o:7]1)([H:8])([H:9])[H:10]>>[C:1]([C:2]#[N+:3][O-:4])([H:8])([H:9])[H:10].[C:5](=[O:6])=[O:7]"
C       -1.74162934       0.17338774      -0.24840549
C       -0.41766680      -0.38582816      -0.02528527
N        0.29415026      -1.27115722       0.33003910
O        1.56478396      -1.28727261       0.49902238
C        2.14318522       0.37974682       0.13170683
O        3.29320912       0.47425375       0.34138428
O        1.10093035       0.98713877      -0.10987070
H       -1.77885088       0.66544230      -1.21974178
H       -2.47665201      -0.63188605      -0.22966996
H       -1.98145988       0.89617467       0.53082062
10
Frame=6 idx=009239 GeodesicLength=0.17346669562939954 rxn_smarts="[C:1]([c:2]1[n:3][o:4][c:5](=[O:6])[o:7]1)([H:8])([H:9])[H:10]>>[C:1]([C:2]#[N+:3][O-:4])([H:8])([H:9])[H:10].[C:5](=[O:6])=[O:7]"
C       -1.74486685       0.17244558      -0.24810079
C       -0.41323809      -0.37440268      -0.03050516
N        0.28538278      -1.26668985       0.34048471
O        1.55826708      -1.28746828       0.50781246
C        2.15470244       0.37528465       0.12548926
O        3.30218037       0.47577568       0.34349109
O        1.11162486       0.98492684      -0.12283666
H       -1.78700199       0.67668310      -1.21301579
H       -2.47213946      -0.63980892      -0.24178754
H       -1.99491114       0.88325389       0.53896842
10
Frame=7 idx=009239 GeodesicLength=0.20232414010327598 rxn_smarts="[C:1]([c:2]1[n:3][o:4][c:5](=[O:6])[o:7]1)([H:8])([H:9])[H:10]>>[C:1]([C:2]#[N+:3][O-:4])([H:8])([H:9])[H:10].[C:5](=[O:6])=[O:7]"
C       -1.74809466       0.17157476      -0.24738289
C       -0.40906699      -0.36268003      -0.03406459
N        0.27659732      -1.26217552       0.35041674
O        1.55137437      -1.28694559       0.51876330
C        2.16631277       0.37046129       0.11894204
O        3.31103327       0.47764847       0.34552545
O        1.12280036       0.98155499      -0.13950414
H       -1.79401766       0.68982078      -1.20473956
H       -2.46716986      -0.64771617      -0.25634993
H       -2.00976892       0.86845702       0.54839359
10
Frame=8 idx=009239 GeodesicLength=0.23155974011199626 rxn_smarts="[C:1]([c:2]1[n:3][o:4][c:5](=[O:6])[o:7]1)([H:8])([H:9])[H:10]>>[C:1]([C:2]#[N+:3][O-:4])([H:8])([H:9])[H:10].[C:5](=[O:6])=[O:7]"
C       -1.75139156       0.17075374      -0.24639331
C       -0.40531471      -0.35012439      -0.03416203
N        0.26759556      -1.25706317       0.36197294
O        1.54405545      -1.28534087       0.53294344
C        2.17814099       0.36500064       0.11122130
O        3.32031726       0.47920150       0.34467345
O        1.13443570       0.97705339      -0.15912922
H       -1.79840891       0.70647130      -1.19409772
H       -2.46110059      -0.65597122      -0.27650470
H       -2.02832919       0.85001907       0.55947585
10
Frame=9 idx=009239 GeodesicLength=0.2606425155261409 rxn_smarts="[C:1]([c:2]1[n:3][o:4][c:5](=[O:6])[o:7]1)([H:8])([H:9])[H:10]>>[C:1]([C:2]#[N+:3][O-:4])([H:8])([H:9])[H:10].[C:5](=[O:6])=[O:7]"
C       -1.75462239       0.16996516      -0.24532793
C       -0.40166341      -0.33742123      -0.03366207
N        0.25862864      -1.25200485       0.37265008
O        1.53675818      -1.28374956       0.54630404
C        2.18984244       0.35953248       0.10431882
O        3.32945029       0.48108910       0.34415874
O        1.14603324       0.97207007      -0.17887896
H       -1.80313700       0.72228623      -1.18345987
H       -2.45486107      -0.66363155      -0.29589351
H       -2.04642892       0.83186413       0.56979065
10
Frame=10 idx=009239 GeodesicLength=0.28984687709024687 rxn_smarts="[C:1]([c:2]1[n:3][o:4][c:5](=[O:6])[o:7]1)([H:8])([H:9])[H:10]>>[C:1]([C:2]#[N+:3][O-:4])([H:8])([H:9])[H:10].[C:5](=[O:6])=[O:7]"
C       -1.75786431       0.16922807      -0.24412641
C       -0.39832069      -0.32393657      -0.03050450
N        0.24951959      -1.24648936       0.38428602
O        1.52932633      -1.28168138       0.56052109
C        2.20158797       0.35368175       0.09708776
O        3.33881359       0.48281506       0.34191985
O        1.15777859       0.96625582      -0.19977785
H       -1.80653779       0.73948007      -1.17151747
H       -2.44760062      -0.67114484      -0.31810981
H       -2.06670266       0.81179139       0.58022132
10
Frame=11 idx=009239 GeodesicLength=0.318709536289531 rxn_smarts="[C:1]([c:2]1[n:3][o:4][c:5](=[O:6])[o:7]1)([H:8])([H:9])[H:10]>>[C:1]([C:2]#[N+:3][O-:4])([H:8])([H:9])[H:10].[C:5](=[O:6])=[O:7]"
C       -1.76097546       0.16852280      -0.24294276
C       -0.39498872      -0.31051566      -0.02753634
N        0.24047446      -1.24114060       0.39478645
O        1.52218265      -1.28034650       0.57186693
C        2.21305833       0.34811561       0.09126353
O        3.34781365       0.48508942       0.34099840
O        1.16921453       0.96032230      -0.21943912
H       -1.81104507       0.75426313      -1.16062200
H       -2.44052788      -0.67787536      -0.33738663
H       -2.08520650       0.79356487       0.58901154
10
Frame=12 idx=009239 GeodesicLength=0.3474212080736649 rxn_smarts="[C:1]([c:2]1[n:3][o:4][c:5](=[O:6])[o:7]1)([H:8])([H:9])[H:10]>>[C:1]([C:2]#[N+:3][O-:4])([H:8])([H:9])[H:10].[C:5](=[O:6])=[O:7]"
C       -1.76398172       0.16789638      -0.24162932
C       -0.39174121      -0.29694032      -0.02395393
N        0.23144242      -1.23585094       0.40472644
O        1.51518545      -1.27944330       0.58157332
C        2.22434721       0.34264043       0.08623772
O        3.35644600       0.48797372       0.34105370
O        1.18057914       0.95372977      -0.23957934
H       -1.81585186       0.76806120      -1.14991497
H       -2.43331216      -0.68404022      -0.35553664
H       -2.10311327       0.77597327       0.59702303
10
Frame=13 idx=009239 GeodesicLength=0.3762303035656327 rxn_smarts="[C:1]([c:2]1[n:3][o:4][c:5](=[O:6])[o:7]1)([H:8])([H:9])[H:10]>>[C:1]([C:2]#[N+:3][O-:4])([H:8])([H:9])[H:10].[C:5](=[O:6])=[O:7]"
C       -1.76699025       0.16729505      -0.24031893
C       -0.38882925      -0.28218833      -0.01696450
N        0.22215378      -1.22965758       0.41683009
O        1.50821696      -1.27851443       0.59108787
C        2.23563625       0.33681648       0.08074273
O        3.36548541       0.49034228       0.33858495
O        1.19184634       0.94663311      -0.25957383
H       -1.81910836       0.78299841      -1.13819820
H       -2.42465809      -0.69020556      -0.37675546
H       -2.12375279       0.75648057       0.60456528
10
Frame=14 idx=009239 GeodesicLength=0.4045222649572903 rxn_smarts="[C:1]([c:2]1[n:3][o:4][c:5](=[O:6])[o:7]1)([H:8])([H:9])[H:10]>>[C:1]([C:2]#[N+:3][O-:4])([H:8])([H:9])[H:10].[C:5](=[O:6])=[O:7]"
C       -1.76967244       0.16683557      -0.23878813
C       -0.38561771      -0.26872595      -0.01329575
N        0.21322695      -1.22488306       0.42477867
O        1.50142104      -1.27850060       0.59791985
C        2.24640049       0.33170190       0.07750585
O        3.37316304       0.49468605       0.34083074
O        1.20287480       0.93876216      -0.28012877
H       -1.82491556       0.79447809      -1.12825202
H       -2.41753282      -0.69514932      -0.39167335
H       -2.13934778       0.74079515       0.61110290
10
Frame=15 idx=009239 GeodesicLength=0.43264139188362866 rxn_smarts="[C:1]([c:2]1[n:3][o:4][c:5](=[O:6])[o:7]1)([H:8])([H:9])[H:10]>>[C:1]([C:2]#[N+:3][O-:4])([H:8])([H:9])[H:10].[C:5](=[O:6])=[O:7]"
C       -1.77228915       0.16616097      -0.23783563
C       -0.38257990      -0.25483811      -0.00838069
N        0.20408239      -1.21933474       0.43431350
O        1.49482062      -1.27914643       0.60260755
C        2.25689947       0.32689145       0.07498636
O        3.38179766       0.49756962       0.33931547
O        1.21295019       0.93281141      -0.29469194
H       -1.83035751       0.80422416      -1.11974540
H       -2.41000581      -0.70029296      -0.40623734
H       -2.15531796       0.72595462       0.61566812
10
Frame=16 idx=009239 GeodesicLength=0.46063415104811006 rxn_smarts="[C:1]([c:2]1[n:3][o:4][c:5](=[O:6])[o:7]1)([H:8])([H:9])[H:10]>>[C:1]([C:2]#[N+:3][O-:4])([H:8])([H:9])[H:10].[C:5](=[O:6])=[O:7]"
C       -1.77474672       0.16554282      -0.23680005
C       -0.37955076      -0.24117410      -0.00370424
N        0.19502751      -1.21429687       0.44240729
O        1.48806900      -1.27962884       0.60772567
C        2.26714079       0.32223649       0.07315855
O        3.39017367       0.50092667       0.33804038
O        1.22285581       0.92632024      -0.30960175
H       -1.83608781       0.81358050      -1.11125863
H       -2.40254742      -0.70493566      -0.42002998
H       -2.17033406       0.71142875       0.62006278
