17
Frame=0 idx=010579 GeodesicLength=0.0 rxn_smarts="[C:1]([C@@:2]1([H:11])[C:3]([H:12])([H:13])[C@:4]1([C:5]([C:6]#[C:7][H:17])([H:15])[H:16])[H:14])([H:8])([H:9])[H:10]>>[C:1]([C@@:2]1([H:11])[C@:3]2([H:12])[C@@:4]1([H:14])[C:5]([H:15])([H:16])[C:6][C:7]2([H:13])[H:17])([H:8])([H:9])[H:10]"
C       -0.96975196       0.29412319       1.53532839
C       -1.09664286      -0.33913543       0.17757668
C       -0.56353727       0.20281386      -1.12010963
C        0.01698628      -1.04645795      -0.53327517
C        1.43558757      -0.77309924      -0.00267507
C        1.74919376       0.69638036      -0.01258278
C        0.85922970       1.40657473      -0.68631069
H       -1.74503321       1.04890261       1.68120951
H       -1.09403397      -0.46705207       2.30887098
H       -0.00148736       0.77284428       1.68231803
H       -2.07318630      -0.78674196       0.01135501
H       -1.19876792       0.25769145      -1.99651886
H        0.51418568       0.74813999      -1.63111283
H       -0.17560767      -1.99976770      -1.00853185
H        2.20134234      -1.30663060      -0.57409751
H        1.52504417      -1.15196181       1.01912354
H        0.61647900       2.44337631      -0.85056775
17
Frame=1 idx=010579 GeodesicLength=0.1253210164259126 rxn_smarts="[C:1]([C@@:2]1([H:11])[C:3]([H:12])([H:13])[C@:4]1([C:5]([C:6]#[C:7][H:17])([H:15])[H:16])[H:14])([H:8])([H:9])[H:10]>>[C:1]([C@@:2]1([H:11])[C@:3]2([H:12])[C@@:4]1([H:14])[C:5]([H:15])([H:16])[C:6][C:7]2([H:13])[H:17])([H:8])([H:9])[H:10]"
C       -0.98521381       0.30207692       1.53203681
C       -1.10107168      -0.34183085       0.17923054
C       -0.56572066       0.19604323      -1.11899086
C        0.01606464      -1.04938860      -0.52382685
C        1.43882729      -0.77741931      -0.01214323
C        1.75490226       0.68870487       0.00017578
C        0.88160220       1.41758421      -0.67581702
H       -1.77421849       1.04365837       1.67311512
H       -1.09136952      -0.45239100       2.31463345
H       -0.02918721       0.80569600       1.67395240
H       -2.07339908      -0.80043272       0.01744184
H       -1.20314006       0.23134445      -1.99512880
H        0.50842064       0.75439069      -1.64381145
H       -0.17956289      -2.00998186      -0.98330499
H        2.19404546      -1.29027302      -0.61648378
H        1.55332291      -1.17908703       0.99811265
H        0.65569802       2.46130565      -0.81919162
17
Frame=2 idx=010579 GeodesicLength=0.25039811974527637 rxn_smarts="[C:1]([C@@:2]1([H:11])[C:3]([H:12])([H:13])[C@:4]1([C:5]([C:6]#[C:7][H:17])([H:15])[H:16])[H:14])([H:8])([H:9])[H:10]>>[C:1]([C@@:2]1([H:11])[C@:3]2([H:12])[C@@:4]1([H:14])[C:5]([H:15])([H:16])[C:6][C:7]2([H:13])[H:17])([H:8])([H:9])[H:10]"
C       -1.00103944       0.31038660       1.52847860
C       -1.10559525      -0.34480571       0.18107529
C       -0.56812011       0.18886107      -1.11779145
C        0.01517557      -1.05245209      -0.51403865
C        1.44210250      -0.78184942      -0.02194461
C        1.76018241       0.68066983       0.01395721
C        0.90458863       1.42862970      -0.66431049
H       -1.80432498       1.03761657       1.66483861
H       -1.08791547      -0.43653681       2.32049228
H       -0.05845119       0.83981986       1.66429194
H       -2.07350420      -0.81458422       0.02401886
H       -1.20743844       0.20439068      -1.99343809
H        0.50193899       0.76098850      -1.65628960
H       -0.18316965      -2.02014377      -0.95761186
H        2.18571455      -1.27247049      -0.65917089
H        1.58258800      -1.20738682       0.97490822
H        0.69726809       2.47886653      -0.78746538
17
Frame=3 idx=010579 GeodesicLength=0.3753113420453137 rxn_smarts="[C:1]([C@@:2]1([H:11])[C:3]([H:12])([H:13])[C@:4]1([C:5]([C:6]#[C:7][H:17])([H:15])[H:16])[H:14])([H:8])([H:9])[H:10]>>[C:1]([C@@:2]1([H:11])[C@:3]2([H:12])[C@@:4]1([H:14])[C:5]([H:15])([H:16])[C:6][C:7]2([H:13])[H:17])([H:8])([H:9])[H:10]"
C       -1.01722066       0.31908528       1.52460424
C       -1.11021339      -0.34809082       0.18311752
C       -0.57075219       0.18121730      -1.11651633
C        0.01432820      -1.05566769      -0.50389441
C        1.44540754      -0.78638705      -0.03209972
C        1.76501056       0.67221804       0.02877386
C        0.92819577       1.43970435      -0.65165152
H       -1.83529121       1.03076562       1.65634854
H       -1.08366493      -0.41931643       2.32641542
H       -0.08935782       0.87515546       1.65318527
H       -2.07348939      -0.82923146       0.03112464
H       -1.21166655       0.17677575      -1.99144581
H        0.49466571       0.76795629      -1.66853083
H       -0.18640423      -2.03027326      -0.93143962
H        2.17630806      -1.25313112      -0.70205449
H        1.61284659      -1.23676958       0.94929727
H        0.74129794       2.49598933      -0.75523402
17
Frame=4 idx=010579 GeodesicLength=0.5001355603597464 rxn_smarts="[C:1]([C@@:2]1([H:11])[C:3]([H:12])([H:13])[C@:4]1([C:5]([C:6]#[C:7][H:17])([H:15])[H:16])[H:14])([H:8])([H:9])[H:10]>>[C:1]([C@@:2]1([H:11])[C@:3]2([H:12])[C@@:4]1([H:14])[C:5]([H:15])([H:16])[C:6][C:7]2([H:13])[H:17])([H:8])([H:9])[H:10]"
C       -1.03374605       0.32820555       1.52035800
C       -1.11492431      -0.35171648       0.18536301
C       -0.57363624       0.17305760      -1.11517796
C        0.01353443      -1.05905507      -0.49338034
C        1.44873637      -0.79102432      -0.04263092
C        1.76936255       0.66328492       0.04462817
C        0.95242700       1.45079620      -0.63769267
H       -1.86703692       1.02309546       1.64762206
H       -1.07862048      -0.40054010       2.33235484
H       -0.12198013       0.91163586       1.64045382
H       -2.07334183      -0.84441140       0.03880565
H       -1.21583553       0.14843560      -1.98915452
H        0.48651744       0.77532515      -1.68053147
H       -0.18923837      -2.04039437      -0.90476592
H        2.16577567      -1.23216506      -0.74499554
H        1.64410539      -1.26711716       0.92104245
H        0.78790101       2.51258760      -0.72229865
17
Frame=5 idx=010579 GeodesicLength=0.6250824880672563 rxn_smarts="[C:1]([C@@:2]1([H:11])[C:3]([H:12])([H:13])[C@:4]1([C:5]([C:6]#[C:7][H:17])([H:15])[H:16])[H:14])([H:8])([H:9])[H:10]>>[C:1]([C@@:2]1([H:11])[C@:3]2([H:12])[C@@:4]1([H:14])[C:5]([H:15])([H:16])[C:6][C:7]2([H:13])[H:17])([H:8])([H:9])[H:10]"
C       -1.05063698       0.33775819       1.51569177
C       -1.11971605      -0.35569563       0.18783121
C       -0.57679095       0.16433528      -1.11378201
C        0.01283085      -1.06260523      -0.48246901
C        1.45209339      -0.79571303      -0.05356543
C        1.77323377       0.65381571       0.06158176
C        0.97734300       1.46189505      -0.62222179
H       -1.89947256       1.01461523       1.63866676
H       -1.07285042      -0.38003351       2.33819235
H       -0.15637365       0.94916651       1.62593069
H       -2.07302406      -0.86015709       0.04713511
H       -1.21996832       0.11929716      -1.98655396
H        0.47738188       0.78313455      -1.69229996
H       -0.19158909      -2.05051795      -0.87754453
H        2.15405201      -1.20955411      -0.78795024
H        1.67633058      -1.29829762       0.88992632
H        0.83715657       2.52855650      -0.68856904
17
Frame=6 idx=010579 GeodesicLength=0.7500762007729147 rxn_smarts="[C:1]([C@@:2]1([H:11])[C:3]([H:12])([H:13])[C@:4]1([C:5]([C:6]#[C:7][H:17])([H:15])[H:16])[H:14])([H:8])([H:9])[H:10]>>[C:1]([C@@:2]1([H:11])[C@:3]2([H:12])[C@@:4]1([H:14])[C:5]([H:15])([H:16])[C:6][C:7]2([H:13])[H:17])([H:8])([H:9])[H:10]"
C       -1.06783786       0.34781225       1.51051964
C       -1.12457853      -0.36006506       0.19051558
C       -0.58023407       0.15496898      -1.11236345
C        0.01222319      -1.06636107      -0.47116018
C        1.45546803      -0.80047131      -0.06493871
C        1.77662633       0.64371852       0.07954973
C        1.00292983       1.47296301      -0.60510252
H       -1.93246388       1.00538762       1.62940291
H       -1.06636263      -0.35754317       2.34388006
H       -0.19255682       0.98762434       1.60940727
H       -2.07252118      -0.87649529       0.05616397
H       -1.22406237       0.08925338      -1.98366996
H        0.46715319       0.79141200      -1.70382073
H       -0.19345686      -2.06068899      -0.84974919
H        2.14110422      -1.18516590      -0.83072042
H        1.70949697      -1.33011070       0.85569273
H        0.88907245       2.54376140      -0.65360672
17
Frame=7 idx=010579 GeodesicLength=0.8750506123804205 rxn_smarts="[C:1]([C@@:2]1([H:11])[C:3]([H:12])([H:13])[C@:4]1([C:5]([C:6]#[C:7][H:17])([H:15])[H:16])[H:14])([H:8])([H:9])[H:10]>>[C:1]([C@@:2]1([H:11])[C@:3]2([H:12])[C@@:4]1([H:14])[C:5]([H:15])([H:16])[C:6][C:7]2([H:13])[H:17])([H:8])([H:9])[H:10]"
C       -1.08531163       0.35843005       1.50474930
C       -1.12949442      -0.36485192       0.19341711
C       -0.58398208       0.14487483      -1.11095400
C        0.01173288      -1.07034767      -0.45944364
C        1.45885385      -0.80529233      -0.07677947
C        1.77955414       0.63291375       0.09847874
C        1.02919830       1.48396866      -0.58617232
H       -1.96586015       0.99550019       1.61976112
H       -1.05918771      -0.33282533       2.34932184
H       -0.23053034       1.02686878       1.59066217
H       -2.07180400      -0.89345037       0.06596200
H       -1.22811882       0.05819063      -1.98052065
H        0.45571337       0.80020994      -1.71505918
H       -0.19480891      -2.07094288      -0.82133097
H        2.12690430      -1.15896251      -0.87319232
H        1.74354163      -1.36233495       0.81811102
H        0.94359958       2.55805115      -0.61701077
17
Frame=8 idx=010579 GeodesicLength=1.0001014159954942 rxn_smarts="[C:1]([C@@:2]1([H:11])[C:3]([H:12])([H:13])[C@:4]1([C:5]([C:6]#[C:7][H:17])([H:15])[H:16])[H:14])([H:8])([H:9])[H:10]>>[C:1]([C@@:2]1([H:11])[C@:3]2([H:12])[C@@:4]1([H:14])[C:5]([H:15])([H:16])[C:6][C:7]2([H:13])[H:17])([H:8])([H:9])[H:10]"
C       -1.10300203       0.36968238       1.49827769
C       -1.13443423      -0.37006674       0.19653549
C       -0.58804992       0.13396699      -1.10960016
C        0.01138794      -1.07458330      -0.44731186
C        1.46225009      -0.81015692      -0.08913466
C        1.78205929       0.62131350       0.11828083
C        1.05616019       1.49487899      -0.56522646
H       -1.99946362       0.98508832       1.60966503
H       -1.05142019      -0.30564133       2.35437954
H       -0.27024083       1.06672750       1.56947620
H       -2.07083211      -0.91102649       0.07661522
H       -1.23215241       0.02596864      -1.97711944
H        0.44293364       0.80951550      -1.72605809
H       -0.19560425      -2.08131486      -0.79221597
H        2.11140970      -1.13091817      -0.91521902
H        1.77839286      -1.39470009       0.77692796
H        1.00060588       2.57126607      -0.57827230
17
Frame=9 idx=010579 GeodesicLength=1.125417639244859 rxn_smarts="[C:1]([C@@:2]1([H:11])[C:3]([H:12])([H:13])[C@:4]1([C:5]([C:6]#[C:7][H:17])([H:15])[H:16])[H:14])([H:8])([H:9])[H:10]>>[C:1]([C@@:2]1([H:11])[C@:3]2([H:12])[C@@:4]1([H:14])[C:5]([H:15])([H:16])[C:6][C:7]2([H:13])[H:17])([H:8])([H:9])[H:10]"
C       -1.12087804       0.38162394       1.49100151
C       -1.13934325      -0.37568097       0.19987628
C       -0.59243970       0.12217062      -1.10834458
C        0.01125222      -1.07904473      -0.43474988
C        1.46567811      -0.81499525      -0.10208141
C        1.78423689       0.60886042       0.13886830
C        1.08392004       1.50563394      -0.54205419
H       -2.03306388       0.97438542       1.59903066
H       -1.04323870      -0.27579586       2.35883700
H       -0.31153806       1.10697851       1.54569434
H       -2.06952151      -0.92919068       0.08822863
H       -1.23618704      -0.00754643      -1.97345891
H        0.42866731       0.81925079      -1.73693492
H       -0.19572819      -2.09181071      -0.76229047
H        2.09455792      -1.10113446      -0.95677668
H        1.81391136      -1.42696482       0.73199338
H        1.05971452       2.58326025      -0.53683905
17
Frame=10 idx=010579 GeodesicLength=1.250759356003157 rxn_smarts="[C:1]([C@@:2]1([H:11])[C:3]([H:12])([H:13])[C@:4]1([C:5]([C:6]#[C:7][H:17])([H:15])[H:16])[H:14])([H:8])([H:9])[H:10]>>[C:1]([C@@:2]1([H:11])[C@:3]2([H:12])[C@@:4]1([H:14])[C:5]([H:15])([H:16])[C:6][C:7]2([H:13])[H:17])([H:8])([H:9])[H:10]"
C       -1.13884130       0.39435116       1.48279291
C       -1.14419630      -0.38173059       0.20343420
C       -0.59718030       0.10936611      -1.10724553
C        0.01133307      -1.08378188      -0.42176753
C        1.46911216      -0.81983135      -0.11565233
C        1.78615094       0.59543544       0.16007265
C        1.11242634       1.51618497      -0.51647402
H       -2.06645123       0.96354305       1.58774490
H       -1.03467772      -0.24300440       2.36257897
H       -0.35432969       1.14742874       1.51903149
H       -2.06784871      -0.94795651       0.10090320
H       -1.24022644      -0.04252728      -1.96956482
H        0.41274858       0.82946724      -1.74762880
H       -0.19518478      -2.10248054      -0.73148806
H        2.07634059      -1.06947631      -0.99763443
H        1.84998749      -1.45877235       0.68301410
H        1.12083731       2.59378447      -0.49211689
17
Frame=11 idx=010579 GeodesicLength=1.3760865651510223 rxn_smarts="[C:1]([C@@:2]1([H:11])[C:3]([H:12])([H:13])[C@:4]1([C:5]([C:6]#[C:7][H:17])([H:15])[H:16])[H:14])([H:8])([H:9])[H:10]>>[C:1]([C@@:2]1([H:11])[C@:3]2([H:12])[C@@:4]1([H:14])[C:5]([H:15])([H:16])[C:6][C:7]2([H:13])[H:17])([H:8])([H:9])[H:10]"
C       -1.15681099       0.40793865       1.47351887
C       -1.14894199      -0.38821413       0.20720703
C       -0.60228874       0.09545004      -1.10636145
C        0.01166967      -1.08880204      -0.40837463
C        1.47254829      -0.82464023      -0.12991855
C        1.78791085       0.58095152       0.18173767
C        1.14169012       1.52647588      -0.48827165
H       -2.09939637       0.95279470       1.57569418
H       -1.02581623      -0.20703083       2.36540564
H       -0.39843192       1.18784306       1.48926164
H       -2.06574912      -0.96730173       0.11475687
H       -1.24429686      -0.07914049      -1.96543407
H        0.39500716       0.84010957      -1.75819117
H       -0.19391507      -2.11334529      -0.69971033
H        2.05672739      -1.03595265      -1.03769452
H        1.88642372      -1.48975562       0.62982971
H        1.18367009       2.60261959      -0.44345523
17
Frame=12 idx=010579 GeodesicLength=1.5013693005089435 rxn_smarts="[C:1]([C@@:2]1([H:11])[C:3]([H:12])([H:13])[C@:4]1([C:5]([C:6]#[C:7][H:17])([H:15])[H:16])[H:14])([H:8])([H:9])[H:10]>>[C:1]([C@@:2]1([H:11])[C@:3]2([H:12])[C@@:4]1([H:14])[C:5]([H:15])([H:16])[C:6][C:7]2([H:13])[H:17])([H:8])([H:9])[H:10]"
C       -1.17468330       0.42246935       1.46303573
C       -1.15351418      -0.39510645       0.21119791
C       -0.60778144       0.08031961      -1.10575291
C        0.01230817      -1.09409864      -0.39458381
C        1.47598582      -0.82938888      -0.14496170
C        1.78966392       0.56532177       0.20367446
C        1.17173834       1.53642859      -0.45723615
H       -2.13164580       0.94241738       1.56274515
H       -1.01677632      -0.16766930       2.36707227
H       -0.44358032       1.22797800       1.45616663
H       -2.06314229      -0.98717255       0.12992984
H       -1.24843570      -0.11756240      -1.96104122
H        0.37526657       0.85105860      -1.76873325
H       -0.19184784      -2.12440450      -0.66683151
H        2.03568829      -1.00058020      -1.07683257
H        1.92299344      -1.51955266       0.57226552
H        1.24776262       2.60954228      -0.39011441
17
Frame=13 idx=010579 GeodesicLength=1.6267545576551372 rxn_smarts="[C:1]([C@@:2]1([H:11])[C:3]([H:12])([H:13])[C@:4]1([C:5]([C:6]#[C:7][H:17])([H:15])[H:16])[H:14])([H:8])([H:9])[H:10]>>[C:1]([C@@:2]1([H:11])[C@:3]2([H:12])[C@@:4]1([H:14])[C:5]([H:15])([H:16])[C:6][C:7]2([H:13])[H:17])([H:8])([H:9])[H:10]"
C       -1.19236307       0.43806224       1.45118267
C       -1.15781209      -0.40232681       0.21542281
C       -0.61366956       0.06388298      -1.10548348
C        0.01332890      -1.09961678      -0.38040475
C        1.47944432      -0.83398286      -0.16091123
C        1.79162090       0.54850858       0.22565559
C        1.20269236       1.54592438      -0.42315793
H       -2.16295205       0.93283984       1.54871445
H       -1.00780014      -0.12478677       2.36728273
H       -0.48938959       1.26760090       1.41960817
H       -2.05988987      -1.00744190       0.14660350
H       -1.25271766      -0.15797722      -1.95631803
H        0.35333245       0.86200354      -1.77956321
H       -0.18883100      -2.13561110      -0.63266617
H        2.01318234      -0.96347907      -1.11503607
H        1.95950102      -1.54790470       0.51016748
H        1.31232276       2.61430476      -0.33109653
17
Frame=14 idx=010579 GeodesicLength=1.751935150310138 rxn_smarts="[C:1]([C@@:2]1([H:11])[C:3]([H:12])([H:13])[C@:4]1([C:5]([C:6]#[C:7][H:17])([H:15])[H:16])[H:14])([H:8])([H:9])[H:10]>>[C:1]([C@@:2]1([H:11])[C@:3]2([H:12])[C@@:4]1([H:14])[C:5]([H:15])([H:16])[C:6][C:7]2([H:13])[H:17])([H:8])([H:9])[H:10]"
C       -1.20973136       0.45478937       1.43780169
C       -1.16178414      -0.40989389       0.21988314
C       -0.61999641       0.04601592      -1.10561471
C        0.01475215      -1.10537706      -0.36588595
C        1.48288184      -0.83843065      -0.17782126
C        1.79391870       0.53038083       0.24753153
C        1.23447731       1.55487930      -0.38576000
H       -2.19312976       0.92424460       1.53349513
H       -0.99879802      -0.07812928       2.36581496
H       -0.53560972       1.30648390       1.37928642
H       -2.05593175      -1.02809251       0.16493229
H       -1.25719243      -0.20056863      -1.95123265
H        0.32899834       0.87288404      -1.79067840
H       -0.18482889      -2.14697229      -0.59714481
H        1.98921320      -0.92448138      -1.15210937
H        1.99560880      -1.57434077       0.44335692
H        1.37715215       2.61660852      -0.26585494
17
Frame=15 idx=010579 GeodesicLength=1.8768315910215694 rxn_smarts="[C:1]([C@@:2]1([H:11])[C:3]([H:12])([H:13])[C@:4]1([C:5]([C:6]#[C:7][H:17])([H:15])[H:16])[H:14])([H:8])([H:9])[H:10]>>[C:1]([C@@:2]1([H:11])[C@:3]2([H:12])[C@@:4]1([H:14])[C:5]([H:15])([H:16])[C:6][C:7]2([H:13])[H:17])([H:8])([H:9])[H:10]"
C       -1.22664568       0.47274154       1.42272099
C       -1.16532803      -0.41775141       0.22459307
C       -0.62679883       0.02661808      -1.10620567
C        0.01664030      -1.11133623      -0.35108381
C        1.48628821      -0.84266129      -0.19583016
C        1.79675736       0.51087151       0.26910412
C        1.26712747       1.56315784      -0.34477764
H       -2.22194654       0.91697826       1.51692502
H       -0.98981976      -0.02757711       2.36236050
H       -0.58184370       1.34440525       1.33502115
H       -2.05113409      -1.04901748       0.18511406
H       -1.26196475      -0.24551299      -1.94568861
H        0.30204444       0.88340924      -1.80234504
H       -0.17971982      -2.15842848      -0.56015212
H        1.96376580      -0.88356208      -1.18799348
H        2.03095815      -1.59847653       0.37180336
H        1.44161945       2.61614189      -0.19356576
17
Frame=16 idx=010579 GeodesicLength=2.0014298759317697 rxn_smarts="[C:1]([C@@:2]1([H:11])[C:3]([H:12])([H:13])[C@:4]1([C:5]([C:6]#[C:7][H:17])([H:15])[H:16])[H:14])([H:8])([H:9])[H:10]>>[C:1]([C@@:2]1([H:11])[C@:3]2([H:12])[C@@:4]1([H:14])[C:5]([H:15])([H:16])[C:6][C:7]2([H:13])[H:17])([H:8])([H:9])[H:10]"
C       -1.24296698       0.49202488       1.40576090
C       -1.16834018      -0.42582531       0.22957472
C       -0.63413805       0.00559097      -1.10731815
C        0.01905734      -1.11742947      -0.33606449
C        1.48963905      -0.84656784      -0.21507248
C        1.80034023       0.48991946       0.29021706
C        1.30067165       1.57059102      -0.29988052
H       -2.24921033       0.91138997       1.49883986
H       -0.98089797       0.02698926       2.35659405
H       -0.62768881       1.38117093       1.28663399
H       -2.04534161      -1.07008271       0.20738158
H       -1.26718476      -0.29300160      -1.93955519
H        0.27222341       0.89317069      -1.81495123
H       -0.17333788      -2.16988328      -0.52155585
H        1.93683419      -0.84060434      -1.22258259
H        2.06522582      -1.61996759       0.29536201
H        1.50511488       2.61251497      -0.11338366
