17
Frame=0 idx=006910 GeodesicLength=0.0 rxn_smarts="[C:1]([C@@:2]1([H:11])[O:3][C:4]([H:12])([H:13])[C@@:5]2([H:14])[C:6]([H:15])([H:16])[C@@:7]12[H:17])([H:8])([H:9])[H:10]>>[C:1]([C:2]([O:3][C:4]([C:5](=[C:6]([H:15])[H:16])[H:14])([H:12])[H:13])=[C:7]([H:11])[H:17])([H:8])([H:9])[H:10]"
C       -2.27877834      -0.42121910       0.14775752
C       -0.93720056       0.02280663      -0.29105175
O       -0.62332470       1.29568199      -0.09420734
C        0.80152911       1.48018298      -0.28279411
C        1.42993455       0.07920759      -0.19072689
C        1.69783663      -0.44733927       1.13489899
C        0.21248640      -0.75804238      -0.60711849
H       -3.03233965       0.33832976      -0.05391538
H       -2.23296379      -0.59431312       1.23035824
H       -2.56024969      -1.35661569      -0.33212712
H       -0.45588997      -0.37766259      -1.61032472
H        0.93927219       1.92951967      -1.26974442
H        1.14483968       2.15734604       0.49798471
H        2.26578454      -0.02358900      -0.88118940
H        0.97710663      -0.29147926       1.92927262
H        2.46480171      -1.19382390       1.28009862
H        0.18715522      -1.83899043      -0.60717108
17
Frame=1 idx=006910 GeodesicLength=0.08369468422360048 rxn_smarts="[C:1]([C@@:2]1([H:11])[O:3][C:4]([H:12])([H:13])[C@@:5]2([H:14])[C:6]([H:15])([H:16])[C@@:7]12[H:17])([H:8])([H:9])[H:10]>>[C:1]([C:2]([O:3][C:4]([C:5](=[C:6]([H:15])[H:16])[H:14])([H:12])[H:13])=[C:7]([H:11])[H:17])([H:8])([H:9])[H:10]"
C       -2.28028225      -0.42274111       0.14613938
C       -0.94073928       0.02009418      -0.30301969
O       -0.62016038       1.29082118      -0.08125199
C        0.80134325       1.47982943      -0.27695809
C        1.44041525       0.08621565      -0.18450728
C        1.69663226      -0.45073486       1.13514825
C        0.20547673      -0.76858873      -0.60739934
H       -3.03388056       0.33691813      -0.05568841
H       -2.23122154      -0.59172031       1.22887806
H       -2.56435515      -1.35921737      -0.33031780
H       -0.45111440      -0.36849746      -1.62320502
H        0.93235302       1.92381635      -1.26753461
H        1.14424522       2.16110701       0.50046532
H        2.26851373      -0.02896527      -0.88143658
H        0.99597491      -0.26542771       1.94094053
H        2.46626035      -1.19390747       1.28353239
H        0.17053883      -1.84900163      -0.62378512
17
Frame=2 idx=006910 GeodesicLength=0.16737803658051337 rxn_smarts="[C:1]([C@@:2]1([H:11])[O:3][C:4]([H:12])([H:13])[C@@:5]2([H:14])[C:6]([H:15])([H:16])[C@@:7]12[H:17])([H:8])([H:9])[H:10]>>[C:1]([C:2]([O:3][C:4]([C:5](=[C:6]([H:15])[H:16])[H:14])([H:12])[H:13])=[C:7]([H:11])[H:17])([H:8])([H:9])[H:10]"
C       -2.28177020      -0.42418573       0.14446849
C       -0.94422321       0.01739336      -0.31492490
O       -0.61700439       1.28558461      -0.06849263
C        0.80108458       1.47942220      -0.27108528
C        1.45117822       0.09346425      -0.17801849
C        1.69508950      -0.45417010       1.13554668
C        0.19820815      -0.77939942      -0.60761251
H       -3.03536147       0.33563896      -0.05747544
H       -2.22957242      -0.58918086       1.22730626
H       -2.56858027      -1.36164069      -0.32863766
H       -0.44617772      -0.35940413      -1.63583650
H        0.92546550       1.91796308      -1.26523063
H        1.14326450       2.16496139       0.50296051
H        2.27110892      -0.03451917      -0.88147236
H        1.01599997      -0.23938768       1.95231688
H        2.46778625      -1.19360119       1.28709822
H        0.15350409      -1.85893889      -0.64091064
17
Frame=3 idx=006910 GeodesicLength=0.25112667904523467 rxn_smarts="[C:1]([C@@:2]1([H:11])[O:3][C:4]([H:12])([H:13])[C@@:5]2([H:14])[C:6]([H:15])([H:16])[C@@:7]12[H:17])([H:8])([H:9])[H:10]>>[C:1]([C:2]([O:3][C:4]([C:5](=[C:6]([H:15])[H:16])[H:14])([H:12])[H:13])=[C:7]([H:11])[H:17])([H:8])([H:9])[H:10]"
C       -2.28326389      -0.42556120       0.14275264
C       -0.94765204       0.01468754      -0.32675744
O       -0.61385709       1.27998817      -0.05593508
C        0.80076633       1.47897711      -0.26517897
C        1.46226749       0.10098751      -0.17124280
C        1.69323102      -0.45759637       1.13610074
C        0.19068365      -0.79049225      -0.60776644
H       -3.03680650       0.33449591      -0.05925639
H       -2.22803821      -0.58670618       1.22565440
H       -2.57295669      -1.36389893      -0.32709059
H       -0.44108132      -0.35040822      -1.64822026
H        0.91863582       1.91196154      -1.26284287
H        1.14189877       2.16894769       0.50546486
H        2.27358720      -0.04024534      -0.88128415
H        1.03717773      -0.21340660       1.96335653
H        2.46933277      -1.19293085       1.29078687
H        0.13607497      -1.86879952      -0.65854105
17
Frame=4 idx=006910 GeodesicLength=0.3347266130992527 rxn_smarts="[C:1]([C@@:2]1([H:11])[O:3][C:4]([H:12])([H:13])[C@@:5]2([H:14])[C:6]([H:15])([H:16])[C@@:7]12[H:17])([H:8])([H:9])[H:10]>>[C:1]([C:2]([O:3][C:4]([C:5](=[C:6]([H:15])[H:16])[H:14])([H:12])[H:13])=[C:7]([H:11])[H:17])([H:8])([H:9])[H:10]"
C       -2.28470728      -0.42686020       0.14096180
C       -0.95098644       0.01196194      -0.33846466
O       -0.61069799       1.27399043      -0.04354442
C        0.80034623       1.47845875      -0.25924596
C        1.47364262       0.10880678      -0.16415803
C        1.69102943      -0.46098964       1.13681235
C        0.18289688      -0.80185303      -0.60781274
H       -3.03811267       0.33349650      -0.06111119
H       -2.22661489      -0.58431953       1.22388510
H       -2.57740839      -1.36594412      -0.32571304
H       -0.43581789      -0.34147705      -1.66029319
H        0.91178420       1.90577138      -1.26038080
H        1.14009519       2.17301440       0.50792968
H        2.27583668      -0.04612253      -0.88084953
H        1.05969369      -0.18745907       1.97403707
H        2.47077222      -1.19196692       1.29457175
H        0.11824840      -1.87850808      -0.67662416
17
Frame=5 idx=006910 GeodesicLength=0.41845983437876966 rxn_smarts="[C:1]([C@@:2]1([H:11])[O:3][C:4]([H:12])([H:13])[C@@:5]2([H:14])[C:6]([H:15])([H:16])[C@@:7]12[H:17])([H:8])([H:9])[H:10]>>[C:1]([C:2]([O:3][C:4]([C:5](=[C:6]([H:15])[H:16])[H:14])([H:12])[H:13])=[C:7]([H:11])[H:17])([H:8])([H:9])[H:10]"
C       -2.28621173      -0.42810620       0.13910537
C       -0.95425532       0.00918858      -0.35003432
O       -0.60754188       1.26763652      -0.03129306
C        0.79987700       1.47792381      -0.25327359
C        1.48541441       0.11696553      -0.15676077
C        1.68858140      -0.46425806       1.13769004
C        0.17485931      -0.81353190      -0.60776597
H       -3.03941404       0.33263619      -0.06303206
H       -2.22543599      -0.58200497       1.22203049
H       -2.58206048      -1.36785030      -0.32450942
H       -0.43038239      -0.33268447      -1.67207469
H        0.90498285       1.89942320      -1.25784896
H        1.13790526       2.17728365       0.51037933
H        2.27796589      -0.05214322      -0.88017997
H        1.08356244      -0.16158758       1.98432627
H        2.47209253      -1.19076675       1.29842136
H        0.10006075      -1.88812403      -0.69518005
17
Frame=6 idx=006910 GeodesicLength=0.5021174831441515 rxn_smarts="[C:1]([C@@:2]1([H:11])[O:3][C:4]([H:12])([H:13])[C@@:5]2([H:14])[C:6]([H:15])([H:16])[C@@:7]12[H:17])([H:8])([H:9])[H:10]>>[C:1]([C:2]([O:3][C:4]([C:5](=[C:6]([H:15])[H:16])[H:14])([H:12])[H:13])=[C:7]([H:11])[H:17])([H:8])([H:9])[H:10]"
C       -2.28768664      -0.42928391       0.13719678
C       -0.95741660       0.00636627      -0.36146005
O       -0.60437192       1.26090881      -0.01920385
C        0.79932505       1.47735949      -0.24729183
C        1.49757445       0.12550529      -0.14905032
C        1.68590243      -0.46730739       1.13873246
C        0.16657125      -0.82550334      -0.60758234
H       -3.04059869       0.33191416      -0.06503645
H       -2.22440324      -0.57972993       1.22010071
H       -2.58681051      -1.36958464      -0.32341812
H       -0.42475449      -0.32402210      -1.68352684
H        0.89818139       1.89289506      -1.25527865
H        1.13527003       2.18173735       0.51275023
H        2.27989197      -0.05826114      -0.87925648
H        1.10861709      -0.13603160       1.99414167
H        2.47313360      -1.18939718       1.30230878
H        0.08157482      -1.89756519      -0.71412568
17
Frame=7 idx=006910 GeodesicLength=0.5856795860480914 rxn_smarts="[C:1]([C@@:2]1([H:11])[O:3][C:4]([H:12])([H:13])[C@@:5]2([H:14])[C:6]([H:15])([H:16])[C@@:7]12[H:17])([H:8])([H:9])[H:10]>>[C:1]([C:2]([O:3][C:4]([C:5](=[C:6]([H:15])[H:16])[H:14])([H:12])[H:13])=[C:7]([H:11])[H:17])([H:8])([H:9])[H:10]"
C       -2.28913922      -0.43039961       0.13519171
C       -0.96045487       0.00346809      -0.37269075
O       -0.60118505       1.25378246      -0.00724025
C        0.79866120       1.47674322      -0.24128361
C        1.51012010       0.13445895      -0.14098211
C        1.68298890      -0.47011756       1.13995069
C        0.15803633      -0.83777895      -0.60724707
H       -3.04165425       0.33133486      -0.06719900
H       -2.22356543      -0.57753602       1.21804309
H       -2.59165015      -1.37112555      -0.32252528
H       -0.41895315      -0.31548115      -1.69460571
H        0.89132134       1.88615478      -1.25264674
H        1.13214848       2.18634954       0.51503044
H        2.28155298      -0.06445883      -0.87802206
H        1.13523676      -0.11057901       2.00345920
H        2.47376575      -1.18801008       1.30619055
H        0.06277027      -1.90680513      -0.73342311
17
Frame=8 idx=006910 GeodesicLength=0.6693093051156018 rxn_smarts="[C:1]([C@@:2]1([H:11])[O:3][C:4]([H:12])([H:13])[C@@:5]2([H:14])[C:6]([H:15])([H:16])[C@@:7]12[H:17])([H:8])([H:9])[H:10]>>[C:1]([C:2]([O:3][C:4]([C:5](=[C:6]([H:15])[H:16])[H:14])([H:12])[H:13])=[C:7]([H:11])[H:17])([H:8])([H:9])[H:10]"
C       -2.29063107      -0.43147082       0.13312231
C       -0.96337495       0.00047241      -0.38372364
O       -0.59797468       1.24629680       0.00460876
C        0.79793763       1.47613691      -0.23525733
C        1.52314907       0.14389687      -0.13257683
C        1.67994640      -0.47254307       1.14134179
C        0.14926983      -0.85039573      -0.60675044
H       -3.04264787       0.33089009      -0.06949765
H       -2.22300374      -0.57538926       1.21591557
H       -2.59665401      -1.37253793      -0.32178282
H       -0.41293937      -0.30713959      -1.70532656
H        0.88447822       1.87924146      -1.24998367
H        1.12857251       2.19123681       0.51721852
H        2.28303071      -0.07068741      -0.87651372
H        1.16321039      -0.08543331       2.01224128
H        2.47391946      -1.18668963       1.31000229
H        0.04371146      -1.91588462      -0.75303785
17
Frame=9 idx=006910 GeodesicLength=0.7529290180023488 rxn_smarts="[C:1]([C@@:2]1([H:11])[O:3][C:4]([H:12])([H:13])[C@@:5]2([H:14])[C:6]([H:15])([H:16])[C@@:7]12[H:17])([H:8])([H:9])[H:10]>>[C:1]([C:2]([O:3][C:4]([C:5](=[C:6]([H:15])[H:16])[H:14])([H:12])[H:13])=[C:7]([H:11])[H:17])([H:8])([H:9])[H:10]"
C       -2.29213281      -0.43248725       0.13097859
C       -0.96615035      -0.00263590      -0.39453927
O       -0.59472866       1.23844040       0.01634491
C        0.79713461       1.47553810      -0.22921918
C        1.53667641       0.15387304      -0.12383000
C        1.67682338      -0.47449483       1.14289736
C        0.14027659      -0.86335763      -0.60605274
H       -3.04353217       0.33058784      -0.07198076
H       -2.22270748      -0.57326372       1.21370779
H       -2.60178269      -1.37380492      -0.32118242
H       -0.40670069      -0.29901890      -1.71565385
H        0.87761422       1.87214422      -1.24729352
H        1.12449668       2.19639661       0.51928631
H        2.28426594      -0.07689371      -0.87471728
H        1.19251790      -0.06071351       2.02043922
H        2.47349456      -1.18553592       1.31368101
H        0.02443454      -1.92477391      -0.77286616
17
Frame=10 idx=006910 GeodesicLength=0.8365344600186806 rxn_smarts="[C:1]([C@@:2]1([H:11])[O:3][C:4]([H:12])([H:13])[C@@:5]2([H:14])[C:6]([H:15])([H:16])[C@@:7]12[H:17])([H:8])([H:9])[H:10]>>[C:1]([C:2]([O:3][C:4]([C:5](=[C:6]([H:15])[H:16])[H:14])([H:12])[H:13])=[C:7]([H:11])[H:17])([H:8])([H:9])[H:10]"
C       -2.29364173      -0.43344683       0.12876384
C       -0.96876623      -0.00587427      -0.40512678
O       -0.59143687       1.23021494       0.02796850
C        0.79625405       1.47495429      -0.22317439
C        1.55073875       0.16444195      -0.11474152
C        1.67367239      -0.47588690       1.14460836
C        0.13106183      -0.87667947      -0.60513168
H       -3.04429502       0.33043614      -0.07465836
H       -2.22268196      -0.57114873       1.21142696
H       -2.60703639      -1.37492393      -0.32071673
H       -0.40022262      -0.29115182      -1.72557301
H        0.87072857       1.86486020      -1.24458332
H        1.11989817       2.20184425       0.52121693
H        2.28524043      -0.08302841      -0.87261765
H        1.22309593      -0.03651495       2.02801227
H        2.47241732      -1.18462711       1.31717433
H        0.00497339      -1.93346935      -0.79284775
17
Frame=11 idx=006910 GeodesicLength=0.9201237420412767 rxn_smarts="[C:1]([C@@:2]1([H:11])[O:3][C:4]([H:12])([H:13])[C@@:5]2([H:14])[C:6]([H:15])([H:16])[C@@:7]12[H:17])([H:8])([H:9])[H:10]>>[C:1]([C:2]([O:3][C:4]([C:5](=[C:6]([H:15])[H:16])[H:14])([H:12])[H:13])=[C:7]([H:11])[H:17])([H:8])([H:9])[H:10]"
C       -2.29516189      -0.43434239       0.12647520
C       -0.97120802      -0.00926290      -0.41547190
O       -0.58808594       1.22161923       0.03948446
C        0.79530011       1.47439083      -0.21712267
C        1.56537343       0.17565856      -0.10531857
C        1.67055820      -0.47664047       1.14645318
C        0.12162573      -0.89038280      -0.60395733
H       -3.04492481       0.33044948      -0.07755853
H       -2.22294945      -0.56902108       1.20907478
H       -2.61242282      -1.37588893      -0.32038186
H       -0.39349047      -0.28358048      -1.73506497
H        0.86382124       1.85738849      -1.24185252
H        1.11475724       2.20758826       0.52300275
H        2.28592913      -0.08903363      -0.87021197
H        1.25485828      -0.01295614       2.03493238
H        2.47066412      -1.18400891       1.32041793
H       -0.01464407      -1.94197712      -0.81290037
17
Frame=12 idx=006910 GeodesicLength=1.0036964118415022 rxn_smarts="[C:1]([C@@:2]1([H:11])[O:3][C:4]([H:12])([H:13])[C@@:5]2([H:14])[C:6]([H:15])([H:16])[C@@:7]12[H:17])([H:8])([H:9])[H:10]>>[C:1]([C:2]([O:3][C:4]([C:5](=[C:6]([H:15])[H:16])[H:14])([H:12])[H:13])=[C:7]([H:11])[H:17])([H:8])([H:9])[H:10]"
C       -2.29669994      -0.43516354       0.12410884
C       -0.97346259      -0.01282310      -0.42556229
O       -0.58466069       1.21264972       0.05089847
C        0.79427932       1.47384790      -0.21106114
C        1.58061691       0.18757465      -0.09557134
C        1.66754597      -0.47669164       1.14840215
C        0.11196391      -0.90449314      -0.60250068
H       -3.04541024       0.33064812      -0.08070905
H       -2.22353421      -0.56685537       1.20665185
H       -2.61795560      -1.37668894      -0.32017595
H       -0.38649044      -0.27634909      -1.74411293
H        0.85689527       1.84972600      -1.23909672
H        1.10905749       2.21362668       0.52464159
H        2.28630496      -0.09484755      -0.86749681
H        1.28769895       0.00984091       2.04117961
H        2.46824861      -1.18369086       1.32335000
H       -0.03439770      -1.95031077      -0.83294561
17
Frame=13 idx=006910 GeodesicLength=1.087251847798763 rxn_smarts="[C:1]([C@@:2]1([H:11])[O:3][C:4]([H:12])([H:13])[C@@:5]2([H:14])[C:6]([H:15])([H:16])[C@@:7]12[H:17])([H:8])([H:9])[H:10]>>[C:1]([C:2]([O:3][C:4]([C:5](=[C:6]([H:15])[H:16])[H:14])([H:12])[H:13])=[C:7]([H:11])[H:17])([H:8])([H:9])[H:10]"
C       -2.29826537      -0.43589594       0.12165943
C       -0.97551802      -0.01657745      -0.43538667
O       -0.58114409       1.20330012       0.06221684
C        0.79320045       1.47332077      -0.20498403
C        1.59650436       0.20023908      -0.08551375
C        1.66470378      -0.47599209       1.15041567
C        0.10206660      -0.91904042      -0.60073129
H       -3.04573971       0.33105845      -0.08414074
H       -2.22446456      -0.56462092       1.20415709
H       -2.62365397      -1.37730806      -0.32009804
H       -0.37920885      -0.26950562      -1.75270062
H        0.84995647       1.84186791      -1.23630728
H        1.10278554       2.21994722       0.52613738
H        2.28633870      -0.10040163      -0.86447061
H        1.32148708       0.03174722       2.04674381
H        2.46522497      -1.18364728       1.32590718
H       -0.05427337      -1.95849135      -0.85290435
17
Frame=14 idx=006910 GeodesicLength=1.1707904597464243 rxn_smarts="[C:1]([C@@:2]1([H:11])[O:3][C:4]([H:12])([H:13])[C@@:5]2([H:14])[C:6]([H:15])([H:16])[C@@:7]12[H:17])([H:8])([H:9])[H:10]>>[C:1]([C:2]([O:3][C:4]([C:5](=[C:6]([H:15])[H:16])[H:14])([H:12])[H:13])=[C:7]([H:11])[H:17])([H:8])([H:9])[H:10]"
C       -2.29987093      -0.43652193       0.11911892
C       -0.97736355      -0.02055034      -0.44493420
O       -0.57751755       1.19356058       0.07344801
C        0.79207384       1.47279954      -0.19888232
C        1.61306892       0.21369772      -0.07516191
C        1.66210195      -0.47451013       1.15244503
C        0.09191892      -0.93405880      -0.59861826
H       -3.04590155       0.33171261      -0.08788817
H       -2.22577375      -0.56228395       1.20158650
H       -2.62954321      -1.37772521      -0.32015117
H       -0.37163254      -0.26310133      -1.76081223
H        0.84301172       1.83380701      -1.23347125
H        1.09593106       2.22652808       0.52749939
H        2.28599945      -0.10561872      -0.86113174
H        1.35608041       0.05263520       2.05162486
H        2.46168172      -1.18382276       1.32802442
H       -0.07426492      -1.96654756      -0.87269584
17
Frame=15 idx=006910 GeodesicLength=1.2543129902095331 rxn_smarts="[C:1]([C@@:2]1([H:11])[O:3][C:4]([H:12])([H:13])[C@@:5]2([H:14])[C:6]([H:15])([H:16])[C@@:7]12[H:17])([H:8])([H:9])[H:10]>>[C:1]([C:2]([O:3][C:4]([C:5](=[C:6]([H:15])[H:16])[H:14])([H:12])[H:13])=[C:7]([H:11])[H:17])([H:8])([H:9])[H:10]"
C       -2.30153141      -0.43702117       0.11647781
C       -0.97898940      -0.02476786      -0.45419471
O       -0.57376104       1.18341786       0.08460137
C        0.79091146       1.47226963      -0.19274466
C        1.63034076       0.22799383      -0.06453342
C        1.65981222      -0.47222944       1.15443304
C        0.08150080      -0.94958593      -0.59612990
H       -3.04588312       0.33264730      -0.09198738
H       -2.22749743      -0.55980789       1.19893407
H       -2.63565335      -1.37791492      -0.32034037
H       -0.36374825      -0.25719069      -1.76843211
H        0.83606960       1.82553321      -1.23057259
H        1.08848650       2.23333914       0.52874063
H        2.28525722      -0.11041087      -0.85747664
H        1.39132349       0.07238211       2.05583239
H        2.45773440      -1.18413995       1.32963336
H       -0.09437245      -1.97451435      -0.89224089
17
Frame=16 idx=006910 GeodesicLength=1.3378206974203952 rxn_smarts="[C:1]([C@@:2]1([H:11])[O:3][C:4]([H:12])([H:13])[C@@:5]2([H:14])[C:6]([H:15])([H:16])[C@@:7]12[H:17])([H:8])([H:9])[H:10]>>[C:1]([C:2]([O:3][C:4]([C:5](=[C:6]([H:15])[H:16])[H:14])([H:12])[H:13])=[C:7]([H:11])[H:17])([H:8])([H:9])[H:10]"
C       -2.30326384      -0.43737069       0.11372478
C       -0.98038666      -0.02925812      -0.46315803
O       -0.56985367       1.17285531       0.09568778
C        0.78972622       1.47171250      -0.18655747
C        1.64834625       0.24316860      -0.05364677
C        1.65790876      -0.46914820       1.15631463
C        0.07078731      -0.96566285      -0.59323296
H       -3.04567079       0.33390349      -0.09647788
H       -2.22967506      -0.55715232       1.19619168
H       -2.64201876      -1.37784782      -0.32067272
H       -0.35554221      -0.25183223      -1.77554415
H        0.82913924       1.81703388      -1.22759258
H        1.08044631       2.24034355       0.52987732
H        2.28408471      -0.11467642      -0.85349998
H        1.42705214       0.09087177       2.05938600
H        2.45352150      -1.18450714       1.33065983
H       -0.11460145      -1.98243329      -0.91145948
