12
Frame=0 idx=010588 GeodesicLength=0.0 rxn_smarts="[O:1]=[C:2]([C@@:3]1([H:9])[C:4]([H:10])([H:11])[C@:5]1([C:6]#[N:7])[H:12])[H:8]>>[O:1]1[C@@:2]2([H:8])[C@:3]1([H:9])[C@@:5]([C:6]#[N:7])([H:12])[C:4]2([H:10])[H:11]"
O       -0.95974153       0.69812096       2.03230612
C       -0.44185189      -0.23151182       1.32138356
C       -1.08518352       0.07547299      -0.01758682
C        0.83424529       0.28890710       0.41586704
C        0.07803230       0.28589835      -0.92317451
C        0.38648863      -0.84514847      -1.78558242
N        0.63907037      -1.73769601      -2.45999441
H       -0.31889273      -1.25920029       1.68803117
H       -1.97048753       0.70572940      -0.00807426
H        1.61571926      -0.46357751       0.47816963
H        1.13338487       1.27220481       0.75648365
H        0.08921651       1.21080045      -1.49782872
12
Frame=1 idx=010588 GeodesicLength=0.06102656325433879 rxn_smarts="[O:1]=[C:2]([C@@:3]1([H:9])[C:4]([H:10])([H:11])[C@:5]1([C:6]#[N:7])[H:12])[H:8]>>[O:1]1[C@@:2]2([H:8])[C@:3]1([H:9])[C@@:5]([C:6]#[N:7])([H:12])[C:4]2([H:10])[H:11]"
O       -0.98258490       0.67675467       2.02961961
C       -0.44121030      -0.24516822       1.32439799
C       -1.07494193       0.09440338      -0.00521447
C        0.83795307       0.30015961       0.41370666
C        0.08192228       0.28820485      -0.92367326
C        0.37998660      -0.85136040      -1.77728118
N        0.62585678      -1.74830737      -2.44844565
H       -0.31839281      -1.27683410       1.67755665
H       -1.96484011       0.71697165      -0.01399373
H        1.62346565      -0.44814691       0.47614662
H        1.14044848       1.28383285       0.75092971
H        0.09233718       1.20948999      -1.50374896
12
Frame=2 idx=010588 GeodesicLength=0.12209516143681994 rxn_smarts="[O:1]=[C:2]([C@@:3]1([H:9])[C:4]([H:10])([H:11])[C@:5]1([C:6]#[N:7])[H:12])[H:8]>>[O:1]1[C@@:2]2([H:8])[C@:3]1([H:9])[C@@:5]([C:6]#[N:7])([H:12])[C:4]2([H:10])[H:11]"
O       -1.00521981       0.65530072       2.02664520
C       -0.44073953      -0.25853575       1.32717866
C       -1.06439092       0.11337904       0.00735318
C        0.84178292       0.31151506       0.41163433
C        0.08577374       0.29059454      -0.92398521
C        0.37353490      -0.85724649      -1.76880124
N        0.61247994      -1.75870923      -2.43652592
H       -0.31838875      -1.29414303       1.66657842
H       -1.95925091       0.72708983      -0.01990793
H        1.63089540      -0.43302294       0.47433619
H        1.14830086       1.29552098       0.74491372
H        0.09522216       1.20825726      -1.50941939
12
Frame=3 idx=010588 GeodesicLength=0.1831882601434005 rxn_smarts="[O:1]=[C:2]([C@@:3]1([H:9])[C:4]([H:10])([H:11])[C@:5]1([C:6]#[N:7])[H:12])[H:8]>>[O:1]1[C@@:2]2([H:8])[C@:3]1([H:9])[C@@:5]([C:6]#[N:7])([H:12])[C:4]2([H:10])[H:11]"
O       -1.02764002       0.63388123       2.02333976
C       -0.44046060      -0.27158022       1.32977080
C       -1.05353960       0.13237212       0.02014846
C        0.84575246       0.32293231       0.40965270
C        0.08956872       0.29304971      -0.92408887
C        0.36710256      -0.86281035      -1.76015154
N        0.59903475      -1.76876719      -2.42437427
H       -0.31891329      -1.31105719       1.65522349
H       -1.95376305       0.73595223      -0.02584383
H        1.63799703      -0.41828761       0.47274552
H        1.15701663       1.30721575       0.73838273
H        0.09784441       1.20709921      -1.51480495
12
Frame=4 idx=010588 GeodesicLength=0.24433417184903627 rxn_smarts="[O:1]=[C:2]([C@@:3]1([H:9])[C:4]([H:10])([H:11])[C@:5]1([C:6]#[N:7])[H:12])[H:8]>>[O:1]1[C@@:2]2([H:8])[C@:3]1([H:9])[C@@:5]([C:6]#[N:7])([H:12])[C:4]2([H:10])[H:11]"
O       -1.04990460       0.61244419       2.01969948
C       -0.44038024      -0.28433288       1.33214792
C       -1.04237153       0.15145739       0.03317064
C        0.84988350       0.33444935       0.40776489
C        0.09333006       0.29561338      -0.92398015
C        0.36070583      -0.86801297      -1.75133387
N        0.58538027      -1.77857291      -2.41186059
H       -0.31994159      -1.32761583       1.64340007
H       -1.94837167       0.74347088      -0.03182635
H        1.64481443      -0.40389458       0.47137536
H        1.16660996       1.31893834       0.73134134
H        0.10024558       1.20605565      -1.51989874
12
Frame=5 idx=010588 GeodesicLength=0.3054878160946726 rxn_smarts="[O:1]=[C:2]([C@@:3]1([H:9])[C:4]([H:10])([H:11])[C@:5]1([C:6]#[N:7])[H:12])[H:8]>>[O:1]1[C@@:2]2([H:8])[C@:3]1([H:9])[C@@:5]([C:6]#[N:7])([H:12])[C:4]2([H:10])[H:11]"
O       -1.07200274       0.59110958       2.01571135
C       -0.44051725      -0.29675847       1.33436641
C       -1.03090560       0.17062663       0.04646669
C        0.85419246       0.34602523       0.40598109
C        0.09703033       0.29826294      -0.92364150
C        0.35431304      -0.87287668      -1.74237077
N        0.57164812      -1.78800826      -2.39915435
H       -0.32150153      -1.34375414       1.63123208
H       -1.94312255       0.74954849      -0.03789016
H        1.65134750      -0.38992607       0.47023266
H        1.17713882       1.33063343       0.72374662
H        0.10237941       1.20511732      -1.52468013
12
Frame=6 idx=010588 GeodesicLength=0.36674839913027035 rxn_smarts="[O:1]=[C:2]([C@@:3]1([H:9])[C:4]([H:10])([H:11])[C@:5]1([C:6]#[N:7])[H:12])[H:8]>>[O:1]1[C@@:2]2([H:8])[C@:3]1([H:9])[C@@:5]([C:6]#[N:7])([H:12])[C:4]2([H:10])[H:11]"
O       -1.09399273       0.56981503       2.01133422
C       -0.44088315      -0.30889615       1.33637553
C       -1.01910529       0.18997341       0.06004266
C        0.85870027       0.35770680       0.40428502
C        0.10070504       0.30105902      -0.92305342
C        0.34793778      -0.87733719      -1.73320904
N        0.55764361      -1.79713517      -2.38605001
H       -0.32359200      -1.35952914       1.61860225
H       -1.93798299       0.75400427      -0.04406244
H        1.65761766      -0.37632536       0.46930810
H        1.18863579       1.34232049       0.71555792
H        0.10431600       1.20434399      -1.52913080
12
Frame=7 idx=010588 GeodesicLength=0.4279817599836966 rxn_smarts="[O:1]=[C:2]([C@@:3]1([H:9])[C:4]([H:10])([H:11])[C@:5]1([C:6]#[N:7])[H:12])[H:8]>>[O:1]1[C@@:2]2([H:8])[C@:3]1([H:9])[C@@:5]([C:6]#[N:7])([H:12])[C:4]2([H:10])[H:11]"
O       -1.11582479       0.54867441       2.00655912
C       -0.44148643      -0.32069859       1.33821536
C       -1.00699379       0.20947849       0.07394606
C        0.86341000       0.36945891       0.40271214
C        0.10430259       0.30395665      -0.92218977
C        0.34152468      -0.88144073      -1.72389535
N        0.54352424      -1.80585977      -2.37275115
H       -0.32622504      -1.37484269       1.60558822
H       -1.93293949       0.75678792      -0.05039008
H        1.66361365      -0.36314722       0.46862252
H        1.20111986       1.35394420       0.70678736
H        0.10597451       1.20368843      -1.53320443
12
Frame=8 idx=010588 GeodesicLength=0.48931847417492774 rxn_smarts="[O:1]=[C:2]([C@@:3]1([H:9])[C:4]([H:10])([H:11])[C@:5]1([C:6]#[N:7])[H:12])[H:8]>>[O:1]1[C@@:2]2([H:8])[C@:3]1([H:9])[C@@:5]([C:6]#[N:7])([H:12])[C:4]2([H:10])[H:11]"
O       -1.13758956       0.52762915       2.00136495
C       -0.44235084      -0.33220690       1.33985027
C       -0.99454053       0.22926751       0.08818810
C        0.86835839       0.38133270       0.40124033
C        0.10787466       0.30703975      -0.92104475
C        0.33512752      -0.88509449      -1.71438990
N        0.52903211      -1.81425396      -2.35903064
H       -0.32940617      -1.38977093       1.59209495
H       -1.92797991       0.75763682      -0.05691230
H        1.66938180      -0.35034339       0.46816978
H        1.21464219       1.36551890       0.69737689
H        0.10745034       1.20324483      -1.53690767
12
Frame=9 idx=010588 GeodesicLength=0.5506966835037854 rxn_smarts="[O:1]=[C:2]([C@@:3]1([H:9])[C:4]([H:10])([H:11])[C@:5]1([C:6]#[N:7])[H:12])[H:8]>>[O:1]1[C@@:2]2([H:8])[C@:3]1([H:9])[C@@:5]([C:6]#[N:7])([H:12])[C:4]2([H:10])[H:11]"
O       -1.15925819       0.50675974       1.99573303
C       -0.44349875      -0.34340198       1.34129845
C       -0.98177353       0.24932851       0.10282315
C        0.87354555       0.39330955       0.39989165
C        0.11136884       0.31027579      -0.91958935
C        0.32870671      -0.88833975      -1.70470640
N        0.51428872      -1.82224275      -2.34503737
H       -0.33315240      -1.40425007       1.57817611
H       -1.92302503       0.75651331      -0.06365351
H        1.67491919      -0.33794564       0.46796502
H        1.22920796       1.37700813       0.68730768
H        0.10867093       1.20298515      -1.54020846
12
Frame=10 idx=010588 GeodesicLength=0.6121558762515258 rxn_smarts="[O:1]=[C:2]([C@@:3]1([H:9])[C:4]([H:10])([H:11])[C@:5]1([C:6]#[N:7])[H:12])[H:8]>>[O:1]1[C@@:2]2([H:8])[C@:3]1([H:9])[C@@:5]([C:6]#[N:7])([H:12])[C:4]2([H:10])[H:11]"
O       -1.18088878       0.48601873       1.98963730
C       -0.44494595      -0.35431098       1.34250738
C       -0.96868119       0.26975412       0.11786230
C        0.87899401       0.40544619       0.39867201
C        0.11480847       0.31371717      -0.91780557
C        0.32231079      -0.89111601      -1.69483255
N        0.49906266      -1.82991472      -2.33060338
H       -0.33745597      -1.41832212       1.56369803
H       -1.91797506       0.75322242      -0.07064985
H        1.68026338      -0.32587833       0.46802186
H        1.24483007       1.38842717       0.67657506
H        0.10967757       1.20295637      -1.54308260
12
Frame=11 idx=010588 GeodesicLength=0.6737228206242682 rxn_smarts="[O:1]=[C:2]([C@@:3]1([H:9])[C:4]([H:10])([H:11])[C@:5]1([C:6]#[N:7])[H:12])[H:8]>>[O:1]1[C@@:2]2([H:8])[C@:3]1([H:9])[C@@:5]([C:6]#[N:7])([H:12])[C:4]2([H:10])[H:11]"
O       -1.20249048       0.46533509       1.98304113
C       -0.44671051      -0.36498525       1.34343599
C       -0.95527365       0.29055963       0.13333589
C        0.88468751       0.41777582       0.39758967
C        0.11818231       0.31737400      -0.91567934
C        0.31598832      -0.89339263      -1.68476625
N        0.48324302      -1.83731998      -2.31559097
H       -0.34231334      -1.43203000       1.54856776
H       -1.91263273       0.74778903      -0.07789982
H        1.68543069      -0.31407737       0.46835716
H        1.26144358       1.39980617       0.66514297
H        0.11044529       1.20316550      -1.54553418
12
Frame=12 idx=010588 GeodesicLength=0.7353982967441342 rxn_smarts="[O:1]=[C:2]([C@@:3]1([H:9])[C:4]([H:10])([H:11])[C@:5]1([C:6]#[N:7])[H:12])[H:8]>>[O:1]1[C@@:2]2([H:8])[C@:3]1([H:9])[C@@:5]([C:6]#[N:7])([H:12])[C:4]2([H:10])[H:11]"
O       -1.22418100       0.44460829       1.97597403
C       -0.44882291      -0.37547449       1.34403914
C       -0.94162776       0.31177915       0.14926673
C        0.89067551       0.43036352       0.39667091
C        0.12148995       0.32129282      -0.91324645
C        0.30983400      -0.89513218      -1.67456006
N        0.46662887      -1.84460375      -2.29983650
H       -0.34767389      -1.44541289       1.53267908
H       -1.90694199       0.74019907      -0.08540878
H        1.69051474      -0.30243005       0.46900780
H        1.27913884       1.41113876       0.65307511
H        0.11096563       1.20367175      -1.54766102
12
Frame=13 idx=010588 GeodesicLength=0.7973674510882952 rxn_smarts="[O:1]=[C:2]([C@@:3]1([H:9])[C:4]([H:10])([H:11])[C@:5]1([C:6]#[N:7])[H:12])[H:8]>>[O:1]1[C@@:2]2([H:8])[C@:3]1([H:9])[C@@:5]([C:6]#[N:7])([H:12])[C:4]2([H:10])[H:11]"
O       -1.24581824       0.42376594       1.96811845
C       -0.45126932      -0.38590850       1.34413765
C       -0.92767639       0.33318295       0.16564017
C        0.89673465       0.44324195       0.39586545
C        0.12464607       0.32535135      -0.91033305
C        0.30381757      -0.89641296      -1.66407899
N        0.44934918      -1.85177638      -2.28317720
H       -0.35350679      -1.45854664       1.51581381
H       -1.90003137       0.73108809      -0.09292097
H        1.69531393      -0.29080970       0.46991658
H        1.29735359       1.42251815       0.64011840
H        0.11108713       1.20430574      -1.54910030
12
Frame=14 idx=010588 GeodesicLength=0.8594573040760319 rxn_smarts="[O:1]=[C:2]([C@@:3]1([H:9])[C:4]([H:10])([H:11])[C@:5]1([C:6]#[N:7])[H:12])[H:8]>>[O:1]1[C@@:2]2([H:8])[C@:3]1([H:9])[C@@:5]([C:6]#[N:7])([H:12])[C:4]2([H:10])[H:11]"
O       -1.26756910       0.40280122       1.95964987
C       -0.45413018      -0.39633258       1.34385586
C       -0.91366938       0.35461178       0.18245273
C        0.90293727       0.45637853       0.39518234
C        0.12760149       0.32953148      -0.90710988
C        0.29808474      -0.89725369      -1.65349957
N        0.43156219      -1.85882324      -2.26576780
H       -0.35972829      -1.47145550       1.49828059
H       -1.89207368       0.72081210      -0.10034253
H        1.69999241      -0.27922130       0.47115513
H        1.31628347       1.43384925       0.62634395
H        0.11070906       1.20510195      -1.55020071
12
Frame=15 idx=010588 GeodesicLength=0.9217142517986706 rxn_smarts="[O:1]=[C:2]([C@@:3]1([H:9])[C:4]([H:10])([H:11])[C@:5]1([C:6]#[N:7])[H:12])[H:8]>>[O:1]1[C@@:2]2([H:8])[C@:3]1([H:9])[C@@:5]([C:6]#[N:7])([H:12])[C:4]2([H:10])[H:11]"
O       -1.28935290       0.38173375       1.95043172
C       -0.45741578      -0.40684730       1.34315848
C       -0.89968122       0.37572575       0.19967814
C        0.90913694       0.46974897       0.39457806
C        0.13026271       0.33369167      -0.90354137
C        0.29264000      -0.89778152      -1.64281393
N        0.41362507      -1.86571101      -2.24771423
H       -0.36627148      -1.48419064       1.48015328
H       -1.88265755       0.71018823      -0.10740360
H        1.70444585      -0.26761289       0.47269030
H        1.33561026       1.44514679       0.61163998
H        0.10965810       1.20590821      -1.55085683
12
Frame=16 idx=010588 GeodesicLength=0.9841006113159375 rxn_smarts="[O:1]=[C:2]([C@@:3]1([H:9])[C:4]([H:10])([H:11])[C@:5]1([C:6]#[N:7])[H:12])[H:8]>>[O:1]1[C@@:2]2([H:8])[C@:3]1([H:9])[C@@:5]([C:6]#[N:7])([H:12])[C:4]2([H:10])[H:11]"
O       -1.31114154       0.36058377       1.94040458
C       -0.46113110      -0.41754567       1.34206933
C       -0.88580952       0.39618997       0.21726670
C        0.91524529       0.48331790       0.39402005
C        0.13257376       0.33772118      -0.89965803
C        0.28753613      -0.89809670      -1.63207688
N        0.39585421      -1.87242647      -2.22915480
H       -0.37303456      -1.49680647       1.46161144
H       -1.87165936       0.70001928      -0.11387511
H        1.70864556      -0.25594175       0.47452036
H        1.35511930       1.45636581       0.59595295
H        0.10780184       1.20661916      -1.55108059
