11
Frame=0 idx=003997 GeodesicLength=0.0 rxn_smarts="[N:1](=[C:2]1\[C:3]([H:8])([H:9])[N:4]=[C:5]([H:10])[N:6]1[H:11])\[H:7]>>[N:1](=[C:2]1[C:3]([H:8])=[N:4][C-:5]([H:10])[N+:6]1([H:9])[H:11])[H:7]"
N       -1.26541960       1.54259094       0.39390907
C       -0.61292544       0.48767469       0.19368369
C       -0.67166666      -0.95900967       0.20337922
N        0.59945028      -1.47787131       0.37146012
C        1.43934266      -0.55986009       0.02811826
N        0.72466100       0.53930200      -0.46346246
H       -2.19418035       1.33889280       0.74817113
H       -1.53375406      -1.53053647       0.51287275
H       -0.11570053      -0.15147128      -1.17952399
H        2.50469238      -0.66439053      -0.10006114
H        1.12550035       1.43467895      -0.70854666
11
Frame=1 idx=003997 GeodesicLength=0.05115300340912536 rxn_smarts="[N:1](=[C:2]1\[C:3]([H:8])([H:9])[N:4]=[C:5]([H:10])[N:6]1[H:11])\[H:7]>>[N:1](=[C:2]1[C:3]([H:8])=[N:4][C-:5]([H:10])[N+:6]1([H:9])[H:11])[H:7]"
N       -1.26612316       1.54291582       0.39398846
C       -0.60567600       0.48966992       0.20720732
C       -0.67159097      -0.95848025       0.19628946
N        0.60106932      -1.47876459       0.37094256
C        1.44068632      -0.56060284       0.02949701
N        0.72394565       0.54023317      -0.46368457
H       -2.19941706       1.33540294       0.73371683
H       -1.53061957      -1.52447551       0.52436462
H       -0.12510820      -0.15637713      -1.19002382
H        2.50474419      -0.66734910      -0.10820541
H        1.12808949       1.43782755      -0.69409246
11
Frame=2 idx=003997 GeodesicLength=0.10231067781261621 rxn_smarts="[N:1](=[C:2]1\[C:3]([H:8])([H:9])[N:4]=[C:5]([H:10])[N:6]1[H:11])\[H:7]>>[N:1](=[C:2]1[C:3]([H:8])=[N:4][C-:5]([H:10])[N+:6]1([H:9])[H:11])[H:7]"
N       -1.26672539       1.54317479       0.39402793
C       -0.59850725       0.49168513       0.22060822
C       -0.67152043      -0.95768785       0.18957200
N        0.60265262      -1.47947099       0.37074380
C        1.44199458      -0.56119162       0.03109886
N        0.72311371       0.54121457      -0.46387525
H       -2.20405155       1.33186523       0.71990882
H       -1.52744888      -1.51848955       0.53471144
H       -0.13470172      -0.16168564      -1.20058595
H        2.50468444      -0.67009063      -0.11607810
H        1.13050987       1.44067658      -0.68013176
11
Frame=3 idx=003997 GeodesicLength=0.1534802426162363 rxn_smarts="[N:1](=[C:2]1\[C:3]([H:8])([H:9])[N:4]=[C:5]([H:10])[N:6]1[H:11])\[H:7]>>[N:1](=[C:2]1[C:3]([H:8])=[N:4][C-:5]([H:10])[N+:6]1([H:9])[H:11])[H:7]"
N       -1.26713091       1.54337517       0.39431298
C       -0.59137449       0.49371791       0.23400410
C       -0.67143492      -0.95664835       0.18322466
N        0.60422230      -1.48003379       0.37077179
C        1.44328766      -0.56165761       0.03285795
N        0.72217801       0.54226451      -0.46397483
H       -2.20830469       1.32826945       0.70620307
H       -1.52422610      -1.51255678       0.54417684
H       -0.14451546      -0.16733287      -1.21117133
H        2.50451428      -0.67267981      -0.12386526
H        1.13278432       1.44328217      -0.66653998
11
Frame=4 idx=003997 GeodesicLength=0.20466046312473765 rxn_smarts="[N:1](=[C:2]1\[C:3]([H:8])([H:9])[N:4]=[C:5]([H:10])[N:6]1[H:11])\[H:7]>>[N:1](=[C:2]1[C:3]([H:8])=[N:4][C-:5]([H:10])[N+:6]1([H:9])[H:11])[H:7]"
N       -1.26738460       1.54351703       0.39472779
C       -0.58430168       0.49576524       0.24731446
C       -0.67134420      -0.95537868       0.17715909
N        0.60576500      -1.48045310       0.37101345
C        1.44455952      -0.56199540       0.03479143
N        0.72114671       0.54338063      -0.46400484
H       -2.21210867       1.32461917       0.69283346
H       -1.52099079      -1.50667577       0.55280161
H       -0.15450485      -0.17335396      -1.22184197
H        2.50424104      -0.67509005      -0.13146208
H        1.13492252       1.44566490      -0.65333240
11
Frame=5 idx=003997 GeodesicLength=0.25584160847164134 rxn_smarts="[N:1](=[C:2]1\[C:3]([H:8])([H:9])[N:4]=[C:5]([H:10])[N:6]1[H:11])\[H:7]>>[N:1](=[C:2]1[C:3]([H:8])=[N:4][C-:5]([H:10])[N+:6]1([H:9])[H:11])[H:7]"
N       -1.26753616       1.54359579       0.39514829
C       -0.57731336       0.49782148       0.26046299
C       -0.67125800      -0.95389506       0.17129358
N        0.60726705      -1.48072419       0.37145880
C        1.44580238      -0.56219651       0.03691681
N        0.72002568       0.54455797      -0.46398665
H       -2.21538171       1.32092885       0.68004322
H       -1.51778231      -1.50084822       0.56060762
H       -0.16462582      -0.17979126      -1.23265534
H        2.50387109      -0.67728756      -0.13876605
H        1.13693115       1.44783870      -0.64052326
11
Frame=6 idx=003997 GeodesicLength=0.3070533904156009 rxn_smarts="[N:1](=[C:2]1\[C:3]([H:8])([H:9])[N:4]=[C:5]([H:10])[N:6]1[H:11])\[H:7]>>[N:1](=[C:2]1[C:3]([H:8])=[N:4][C-:5]([H:10])[N+:6]1([H:9])[H:11])[H:7]"
N       -1.26748454       1.54362765       0.39590379
C       -0.57035429       0.49988745       0.27362950
C       -0.67115160      -0.95220460       0.16567960
N        0.60876363      -1.48088772       0.37204317
C        1.44704648      -0.56229526       0.03917145
N        0.71882539       0.54582214      -0.46383546
H       -2.21838941       1.31718393       0.66713415
H       -1.51454057      -1.49504520       0.56783221
H       -0.17494253      -0.18656939      -1.24353315
H        2.50339570      -0.67938082      -0.14607758
H        1.13883174       1.44986180      -0.62794767
11
Frame=7 idx=003997 GeodesicLength=0.3582532452372672 rxn_smarts="[N:1](=[C:2]1\[C:3]([H:8])([H:9])[N:4]=[C:5]([H:10])[N:6]1[H:11])\[H:7]>>[N:1](=[C:2]1[C:3]([H:8])=[N:4][C-:5]([H:10])[N+:6]1([H:9])[H:11])[H:7]"
N       -1.26733497       1.54360420       0.39666341
C       -0.56347413       0.50196111       0.28661108
C       -0.67104568      -0.95031954       0.16018631
N        0.61021252      -1.48091830       0.37278753
C        1.44825962      -0.56226521       0.04160737
N        0.71754924       0.54714925      -0.46364051
H       -2.22090078       1.31340772       0.65483849
H       -1.51135107      -1.48928322       0.57434839
H       -0.18536662      -0.19379651      -1.25459678
H        2.50283105      -0.68125765      -0.15306184
H        1.14062081       1.45171815      -0.61574346
11
Frame=8 idx=003997 GeodesicLength=0.40947401856977217 rxn_smarts="[N:1](=[C:2]1\[C:3]([H:8])([H:9])[N:4]=[C:5]([H:10])[N:6]1[H:11])\[H:7]>>[N:1](=[C:2]1[C:3]([H:8])=[N:4][C-:5]([H:10])[N+:6]1([H:9])[H:11])[H:7]"
N       -1.26704375       1.54353718       0.39758967
C       -0.55664582       0.50404358       0.29952182
C       -0.67093232      -0.94824533       0.15483466
N        0.61163790      -1.48084244       0.37364440
C        1.44946296      -0.56212910       0.04417759
N        0.71620295       0.54855571      -0.46334960
H       -2.22305486       1.30959806       0.64276163
H       -1.50818098      -1.48354862       0.58030992
H       -0.19593883      -0.20143904      -1.26580579
H        2.50217710      -0.68297835      -0.15988894
H        1.14231564       1.45344835      -0.60379536
11
Frame=9 idx=003997 GeodesicLength=0.46072504406189785 rxn_smarts="[N:1](=[C:2]1\[C:3]([H:8])([H:9])[N:4]=[C:5]([H:10])[N:6]1[H:11])\[H:7]>>[N:1](=[C:2]1[C:3]([H:8])=[N:4][C-:5]([H:10])[N+:6]1([H:9])[H:11])[H:7]"
N       -1.26657123       1.54343204       0.39887202
C       -0.54983474       0.50612594       0.31247329
C       -0.67078934      -0.94598839       0.14966211
N        0.61306107      -1.48067677       0.37459264
C        1.45067372      -0.56190446       0.04685102
N        0.71479255       0.55006056      -0.46290207
H       -2.22498336       1.30576001       0.63047416
H       -1.50498240      -1.47782125       0.58583588
H       -0.20670565      -0.20946386      -1.27710326
H        2.50141667      -0.68461086      -0.16676578
H        1.14392270       1.45508703      -0.59199001
11
Frame=10 idx=003997 GeodesicLength=0.511967882664301 rxn_smarts="[N:1](=[C:2]1\[C:3]([H:8])([H:9])[N:4]=[C:5]([H:10])[N:6]1[H:11])\[H:7]>>[N:1](=[C:2]1[C:3]([H:8])=[N:4][C-:5]([H:10])[N+:6]1([H:9])[H:11])[H:7]"
N       -1.26599991       1.54328522       0.40020737
C       -0.54309352       0.50821769       0.32527878
C       -0.67064346      -0.94355068       0.14454582
N        0.61444307      -1.48039284       0.37565888
C        1.45186628      -0.56156579       0.04967536
N        0.71332363       0.55164392      -0.46238160
H       -2.22649737       1.30189945       0.61865478
H       -1.50184375      -1.47212360       0.59081603
H       -0.21757403      -0.21797293      -1.28860644
H        2.50056928      -0.68606362      -0.17339939
H        1.14544981       1.45662318      -0.58044957
11
Frame=11 idx=003997 GeodesicLength=0.5632432959396606 rxn_smarts="[N:1](=[C:2]1\[C:3]([H:8])([H:9])[N:4]=[C:5]([H:10])[N:6]1[H:11])\[H:7]>>[N:1](=[C:2]1[C:3]([H:8])=[N:4][C-:5]([H:10])[N+:6]1([H:9])[H:11])[H:7]"
N       -1.26528950       1.54310777       0.40180496
C       -0.53637773       0.51030114       0.33809776
C       -0.67047332      -0.94094493       0.13954920
N        0.61581661      -1.48002013       0.37679744
C        1.45306423      -0.56113898       0.05259995
N        0.71179911       0.55332476      -0.46170994
H       -2.22774924       1.29803079       0.60678036
H       -1.49869773      -1.46641925       0.59538209
H       -0.22861875      -0.22692873      -1.30024146
H        2.49962357      -0.68740788      -0.18002446
H        1.14690276       1.45809542      -0.56903589
11
Frame=12 idx=003997 GeodesicLength=0.6145181071700849 rxn_smarts="[N:1](=[C:2]1\[C:3]([H:8])([H:9])[N:4]=[C:5]([H:10])[N:6]1[H:11])\[H:7]>>[N:1](=[C:2]1[C:3]([H:8])=[N:4][C-:5]([H:10])[N+:6]1([H:9])[H:11])[H:7]"
N       -1.26447827       1.54289316       0.40347481
C       -0.52972056       0.51240098       0.35079686
C       -0.67029461      -0.93815796       0.13457859
N        0.61715306      -1.47954150       0.37802051
C        1.45424983      -0.56061094       0.05565120
N        0.71022605       0.55509211      -0.46095671
H       -2.22863991       1.29415000       0.59532426
H       -1.49560855      -1.46072690       0.59946254
H       -0.23978068      -0.23640818      -1.31209057
H        2.49860296      -0.68858561      -0.18641908
H        1.14829068       1.45949483      -0.55784241
11
Frame=13 idx=003997 GeodesicLength=0.6658222218698094 rxn_smarts="[N:1](=[C:2]1\[C:3]([H:8])([H:9])[N:4]=[C:5]([H:10])[N:6]1[H:11])\[H:7]>>[N:1](=[C:2]1[C:3]([H:8])=[N:4][C-:5]([H:10])[N+:6]1([H:9])[H:11])[H:7]"
N       -1.26354786       1.54265258       0.40537739
C       -0.52309087       0.51449694       0.36349405
C       -0.67009113      -0.93520474       0.12967917
N        0.61847588      -1.47897632       0.37930010
C        1.45543838      -0.55999644       0.05879146
N        0.70860493       0.55696447      -0.46006111
H       -2.22924612       1.29028496       0.58388356
H       -1.49252677      -1.45503398       0.60314971
H       -0.25112064      -0.24640128      -1.32409348
H        2.49749133      -0.68963999      -0.19276726
H        1.14961288       1.46085380      -0.54675359
11
Frame=14 idx=003997 GeodesicLength=0.7171352952830388 rxn_smarts="[N:1](=[C:2]1\[C:3]([H:8])([H:9])[N:4]=[C:5]([H:10])[N:6]1[H:11])\[H:7]>>[N:1](=[C:2]1[C:3]([H:8])=[N:4][C-:5]([H:10])[N+:6]1([H:9])[H:11])[H:7]"
N       -1.26251951       1.54238896       0.40739074
C       -0.51650767       0.51659792       0.37611114
C       -0.66987212      -0.93208118       0.12479190
N        0.61976801      -1.47831438       0.38063923
C        1.45662120      -0.55928934       0.06203654
N        0.70694444       0.55893318      -0.45906141
H       -2.22953295       1.28643511       0.57276015
H       -1.48948981      -1.44933719       0.60639978
H       -0.26259977      -0.25696677      -1.33630800
H        2.49630807      -0.69053996      -0.19893720
H        1.15088011       1.46217366      -0.53582288
11
Frame=15 idx=003997 GeodesicLength=0.7684547107843194 rxn_smarts="[N:1](=[C:2]1\[C:3]([H:8])([H:9])[N:4]=[C:5]([H:10])[N:6]1[H:11])\[H:7]>>[N:1](=[C:2]1[C:3]([H:8])=[N:4][C-:5]([H:10])[N+:6]1([H:9])[H:11])[H:7]"
N       -1.26140527       1.54210718       0.40947327
C       -0.50997337       0.51870668       0.38862748
C       -0.66963821      -0.92878717       0.11988842
N        0.62102387      -1.47755540       0.38202977
C        1.45779588      -0.55849102       0.06538421
N        0.70525187       0.56099782      -0.45796919
H       -2.22949619       1.28261429       0.56206360
H       -1.48650760      -1.44363077       0.60919312
H       -0.27421624      -0.26815048      -1.34875201
H        2.49506833      -0.69127251      -0.20487535
H        1.15209692       1.46346139      -0.52506331
11
Frame=16 idx=003997 GeodesicLength=0.8197789078632639 rxn_smarts="[N:1](=[C:2]1\[C:3]([H:8])([H:9])[N:4]=[C:5]([H:10])[N:6]1[H:11])\[H:7]>>[N:1](=[C:2]1[C:3]([H:8])=[N:4][C-:5]([H:10])[N+:6]1([H:9])[H:11])[H:7]"
N       -1.26021228       1.54181328       0.41159668
C       -0.50348902       0.52082574       0.40103019
C       -0.66938934      -0.92532190       0.11494476
N        0.62223944      -1.47669958       0.38346242
C        1.45896168      -0.55760318       0.06883095
N        0.70353524       0.56315993      -0.45679104
H       -2.22914386       1.27883478       0.55187174
H       -1.48358820      -1.43790878       0.61151853
H       -0.28597019      -0.27999649      -1.36143893
H        2.49378624      -0.69183064      -0.21054668
H        1.15327031       1.46472684      -0.51447861
