11
Frame=0 idx=005096 GeodesicLength=0.0 rxn_smarts="[N:1]#[C:2][C:3]([C@@:4]1([H:9])[C:5]([H:10])([H:11])[O:6]1)([H:7])[H:8]>>[C:3](=[C:4]1[C:5]([H:10])([H:11])[O:6]1)([H:7])[H:8].[N:1]#[C:2][H:9]"
N        2.56566416       0.57520702       0.18708391
C        1.51335015       0.10809900       0.47834311
C        0.59797940      -0.97756403      -0.13793285
C       -0.65938420      -0.27667608       0.13521877
C       -1.36363838       0.91190644      -0.26012044
O       -1.84638730      -0.46884099      -0.41464419
H        0.77784089      -1.80785581       0.54466849
H        0.70066460      -1.32880731      -1.17531356
H        0.74131079       0.37354845       1.36719980
H       -1.89723262       1.49588261       0.47884054
H       -1.13016750       1.39510072      -1.20334353
11
Frame=1 idx=005096 GeodesicLength=0.150820939195893 rxn_smarts="[N:1]#[C:2][C:3]([C@@:4]1([H:9])[C:5]([H:10])([H:11])[O:6]1)([H:7])[H:8]>>[C:3](=[C:4]1[C:5]([H:10])([H:11])[O:6]1)([H:7])[H:8].[N:1]#[C:2][H:9]"
N        2.62006514       0.55760199       0.24700753
C        1.55403024       0.10293048       0.49546704
C        0.60399380      -0.97836835      -0.15899586
C       -0.63364689      -0.25914838       0.12766251
C       -1.38058915       0.90131274      -0.26970612
O       -1.86879250      -0.48519411      -0.28158583
H        0.77196601      -1.83284700       0.49584416
H        0.70097614      -1.29710168      -1.20634646
H        0.73098678       0.37186495       1.36313397
H       -1.94493652       1.53516049       0.40313473
H       -1.15405304       1.38378888      -1.21561565
11
Frame=2 idx=005096 GeodesicLength=0.30063444013058926 rxn_smarts="[N:1]#[C:2][C:3]([C@@:4]1([H:9])[C:5]([H:10])([H:11])[O:6]1)([H:7])[H:8]>>[C:3](=[C:4]1[C:5]([H:10])([H:11])[O:6]1)([H:7])[H:8].[N:1]#[C:2][H:9]"
N        2.67235263       0.53785696       0.30699636
C        1.59439220       0.09631124       0.51305396
C        0.60889644      -0.97935533      -0.18122062
C       -0.60891247      -0.24165452       0.11684027
C       -1.39941637       0.88959565      -0.27886814
O       -1.87932060      -0.49176714      -0.13704143
H        0.76363744      -1.85674678       0.44556883
H        0.70147210      -1.26549470      -1.23733303
H        0.72081844       0.37091596       1.35694938
H       -1.99914396       1.56537639       0.31973178
H       -1.17477585       1.37496225      -1.22467736
11
Frame=3 idx=005096 GeodesicLength=0.4490728299517569 rxn_smarts="[N:1]#[C:2][C:3]([C@@:4]1([H:9])[C:5]([H:10])([H:11])[O:6]1)([H:7])[H:8]>>[C:3](=[C:4]1[C:5]([H:10])([H:11])[O:6]1)([H:7])[H:8].[N:1]#[C:2][H:9]"
N        2.72161353       0.51695104       0.36459179
C        1.63402312       0.08836091       0.53020543
C        0.61183141      -0.98107534      -0.20385265
C       -0.58617663      -0.22489029       0.10399711
C       -1.41968194       0.87674059      -0.28743676
O       -1.87568090      -0.48602150       0.01501550
H        0.75249871      -1.87952043       0.39537361
H        0.70128502      -1.23568357      -1.26728723
H        0.71104366       0.37129407       1.34821095
H       -2.06248642       1.58188499       0.22894132
H       -1.18826957       1.37195952      -1.22775907
11
Frame=4 idx=005096 GeodesicLength=0.5957231238313241 rxn_smarts="[N:1]#[C:2][C:3]([C@@:4]1([H:9])[C:5]([H:10])([H:11])[O:6]1)([H:7])[H:8]>>[C:3](=[C:4]1[C:5]([H:10])([H:11])[O:6]1)([H:7])[H:8].[N:1]#[C:2][H:9]"
N        2.76744535       0.49586927       0.41778706
C        1.67263803       0.07937678       0.54612048
C        0.61206795      -0.98415439      -0.22598216
C       -0.56613825      -0.20926231       0.09002253
C       -1.44131649       0.86241299      -0.29623308
O       -1.85684242      -0.46629455       0.16914424
H        0.73781770      -1.90119658       0.34735003
H        0.69966706      -1.20954372      -1.29517187
H        0.70182069       0.37400055       1.33640495
H       -2.13555220       1.57965900       0.13230907
H       -1.19160743       1.37913295      -1.22175124
11
Frame=5 idx=005096 GeodesicLength=0.741157745023736 rxn_smarts="[N:1]#[C:2][C:3]([C@@:4]1([H:9])[C:5]([H:10])([H:11])[O:6]1)([H:7])[H:8]>>[C:3](=[C:4]1[C:5]([H:10])([H:11])[O:6]1)([H:7])[H:8].[N:1]#[C:2][H:9]"
N        2.81344394       0.47045386       0.46631367
C        1.71167815       0.06970935       0.55898989
C        0.60889632      -0.98835085      -0.24659922
C       -0.54848272      -0.19352487       0.07752645
C       -1.46443100       0.84657126      -0.30523370
O       -1.82263430      -0.43182513       0.31998146
H        0.71873941      -1.92133506       0.30331508
H        0.69484512      -1.18777999      -1.32010982
H        0.69584899       0.38204760       1.32029594
H       -2.22521060       1.55057555       0.02519848
H       -1.18269332       1.40345828      -1.19967824
11
Frame=6 idx=005096 GeodesicLength=0.8837997570041062 rxn_smarts="[N:1]#[C:2][C:3]([C@@:4]1([H:9])[C:5]([H:10])([H:11])[O:6]1)([H:7])[H:8]>>[C:3](=[C:4]1[C:5]([H:10])([H:11])[O:6]1)([H:7])[H:8].[N:1]#[C:2][H:9]"
N        2.86010357       0.44130972       0.50837278
C        1.75185558       0.05941653       0.56828517
C        0.60157202      -0.99360146      -0.26472530
C       -0.53342046      -0.17805445       0.07001074
C       -1.48693335       0.82971881      -0.31412155
O       -1.77696434      -0.38109324       0.46190023
H        0.69498063      -1.94033941       0.26386123
H        0.68521660      -1.16952309      -1.34159334
H        0.69480728       0.39546649       1.30091557
H       -2.32800399       1.48807333      -0.09871543
H       -1.16321354       1.44862679      -1.15419010
11
Frame=7 idx=005096 GeodesicLength=1.022916955949961 rxn_smarts="[N:1]#[C:2][C:3]([C@@:4]1([H:9])[C:5]([H:10])([H:11])[O:6]1)([H:7])[H:8]>>[C:3](=[C:4]1[C:5]([H:10])([H:11])[O:6]1)([H:7])[H:8].[N:1]#[C:2][H:9]"
N        2.91071038       0.40293545       0.54923409
C        1.79533029       0.04608613       0.57631256
C        0.59129914      -0.99923793      -0.28041022
C       -0.51758120      -0.15793538       0.06227648
C       -1.50818334       0.81470747      -0.32413415
O       -1.71870648      -0.31296797       0.58991492
H        0.66284616      -1.95698516       0.23107850
H        0.67333896      -1.15709121      -1.35923878
H        0.69979785       0.41708404       1.27613808
H       -2.43439598       1.38477608      -0.23765862
H       -1.15445580       1.51862847      -1.08351287
11
Frame=8 idx=005096 GeodesicLength=1.1585792160063635 rxn_smarts="[N:1]#[C:2][C:3]([C@@:4]1([H:9])[C:5]([H:10])([H:11])[O:6]1)([H:7])[H:8]>>[C:3](=[C:4]1[C:5]([H:10])([H:11])[O:6]1)([H:7])[H:8].[N:1]#[C:2][H:9]"
N        2.95832433       0.36771493       0.58439742
C        1.83842057       0.03221246       0.58355887
C        0.57709662      -1.00600271      -0.29333390
C       -0.50459006      -0.14017274       0.05985849
C       -1.52540643       0.79863694      -0.33615271
O       -1.65982500      -0.23034254       0.69835409
H        0.62616868      -1.97333379       0.20194492
H        0.65878059      -1.14573711      -1.37376572
H        0.70711389       0.44065273       1.25035905
H       -2.51428660       1.25856899      -0.38430494
H       -1.16179658       1.59780284      -0.99091560
11
Frame=9 idx=005096 GeodesicLength=1.2982577261904131 rxn_smarts="[N:1]#[C:2][C:3]([C@@:4]1([H:9])[C:5]([H:10])([H:11])[O:6]1)([H:7])[H:8]>>[C:3](=[C:4]1[C:5]([H:10])([H:11])[O:6]1)([H:7])[H:8].[N:1]#[C:2][H:9]"
N        3.00812726       0.32266393       0.63380496
C        1.88318545       0.01545991       0.59537417
C        0.56336700      -1.01165226      -0.30654251
C       -0.48877705      -0.11727518       0.05019420
C       -1.54222072       0.78204540      -0.35334140
O       -1.59325557      -0.13900338       0.78288778
H        0.58274912      -1.98650725       0.17534918
H        0.65059072      -1.13680288      -1.38729740
H        0.71609506       0.47195229       1.21793880
H       -2.56618713       1.13117326      -0.49990045
H       -1.21367414       1.66794615      -0.90846733
11
Frame=10 idx=005096 GeodesicLength=1.4397518581342088 rxn_smarts="[N:1]#[C:2][C:3]([C@@:4]1([H:9])[C:5]([H:10])([H:11])[O:6]1)([H:7])[H:8]>>[C:3](=[C:4]1[C:5]([H:10])([H:11])[O:6]1)([H:7])[H:8].[N:1]#[C:2][H:9]"
N        3.05497382       0.27786150       0.68970234
C        1.92729018      -0.00143484       0.61044385
C        0.54921664      -1.01713696      -0.31969679
C       -0.47355406      -0.09599390       0.04038183
C       -1.55666564       0.76530101      -0.36894516
O       -1.52804271      -0.04576179       0.84670597
H        0.53759473      -1.99877143       0.14782507
H        0.64594281      -1.12555944      -1.40048006
H        0.72566239       0.50607039       1.18212949
H       -2.59584137       1.01787846      -0.58751638
H       -1.28657680       1.71754701      -0.84055015
11
Frame=11 idx=005096 GeodesicLength=1.5830801714499847 rxn_smarts="[N:1]#[C:2][C:3]([C@@:4]1([H:9])[C:5]([H:10])([H:11])[O:6]1)([H:7])[H:8]>>[C:3](=[C:4]1[C:5]([H:10])([H:11])[O:6]1)([H:7])[H:8].[N:1]#[C:2][H:9]"
N        3.10066201       0.22770511       0.75614330
C        1.97246330      -0.02149697       0.63091923
C        0.53504637      -1.02070577      -0.33405051
C       -0.45612940      -0.07106872       0.02741532
C       -1.57075054       0.75024158      -0.38106986
O       -1.45903300       0.04941730       0.89481385
H        0.48802865      -2.00829620       0.11785938
H        0.64567077      -1.11157010      -1.41415944
H        0.73892888       0.54447295       1.14129604
H       -2.61638884       0.91153555      -0.64881678
H       -1.37849820       1.74976526      -0.79035053
11
Frame=12 idx=005096 GeodesicLength=1.7268811369985542 rxn_smarts="[N:1]#[C:2][C:3]([C@@:4]1([H:9])[C:5]([H:10])([H:11])[O:6]1)([H:7])[H:8]>>[C:3](=[C:4]1[C:5]([H:10])([H:11])[O:6]1)([H:7])[H:8].[N:1]#[C:2][H:9]"
N        3.14360588       0.17300757       0.83136770
C        2.01785398      -0.04412087       0.65574304
C        0.51987730      -1.02225952      -0.34969144
C       -0.43757843      -0.04368329       0.01324225
C       -1.58475643       0.73677928      -0.38737981
O       -1.38729249       0.14648915       0.93135383
H        0.43442436      -2.01488645       0.08453516
H        0.64770653      -1.09397162      -1.42839933
H        0.75700366       0.58779937       1.09353251
H       -2.62996444       0.80780261      -0.69255340
H       -1.48087993       1.76704376      -0.75175051
11
Frame=13 idx=005096 GeodesicLength=1.8704905642371494 rxn_smarts="[N:1]#[C:2][C:3]([C@@:4]1([H:9])[C:5]([H:10])([H:11])[O:6]1)([H:7])[H:8]>>[C:3](=[C:4]1[C:5]([H:10])([H:11])[O:6]1)([H:7])[H:8].[N:1]#[C:2][H:9]"
N        3.18147961       0.11883328       0.91306265
C        2.06219023      -0.06802844       0.68438565
C        0.50387969      -1.02350918      -0.36661551
C       -0.41775968      -0.01467563      -0.00526131
C       -1.59824412       0.72445026      -0.39028443
O       -1.31288168       0.24350296       0.95478602
H        0.37734409      -2.01875885       0.05052391
H        0.65267550      -1.07789899      -1.44268912
H        0.77884327       0.63310855       1.03836992
H       -2.63811594       0.70950333      -0.72023188
H       -1.58941096       1.77347271      -0.71604591
11
Frame=14 idx=005096 GeodesicLength=2.013831020616218 rxn_smarts="[N:1]#[C:2][C:3]([C@@:4]1([H:9])[C:5]([H:10])([H:11])[O:6]1)([H:7])[H:8]>>[C:3](=[C:4]1[C:5]([H:10])([H:11])[O:6]1)([H:7])[H:8].[N:1]#[C:2][H:9]"
N        3.21291655       0.06429491       1.00336939
C        2.10477172      -0.09319034       0.71709360
C        0.48655061      -1.02410854      -0.38545277
C       -0.39726069       0.01538202      -0.02734070
C       -1.61172391       0.71265161      -0.38828419
O       -1.23461976       0.34273246       0.96757547
H        0.31667813      -2.01981744       0.01401991
H        0.65995367      -1.06199068      -1.45759425
H        0.80595524       0.68162367       0.97226523
H       -2.64170460       0.61406932      -0.73433348
H       -1.70151697       1.76835303      -0.68131820
11
Frame=15 idx=005096 GeodesicLength=2.1569177681749925 rxn_smarts="[N:1]#[C:2][C:3]([C@@:4]1([H:9])[C:5]([H:10])([H:11])[O:6]1)([H:7])[H:8]>>[C:3](=[C:4]1[C:5]([H:10])([H:11])[O:6]1)([H:7])[H:8].[N:1]#[C:2][H:9]"
N        3.23625514       0.01363732       1.10057926
C        2.14475753      -0.11809472       0.75310012
C        0.46754029      -1.02508839      -0.40620841
C       -0.37611987       0.04582507      -0.05407949
C       -1.62419042       0.70177979      -0.38208147
O       -1.15278627       0.44338120       0.96847429
H        0.25269101      -2.01837621      -0.02360213
H        0.66884970      -1.04916546      -1.47290593
H        0.83775755       0.72949433       0.89606849
H       -2.63991238       0.52276481      -0.73804502
H       -1.81484228       1.75384226      -0.64129969
11
Frame=16 idx=005096 GeodesicLength=2.299587066280614 rxn_smarts="[N:1]#[C:2][C:3]([C@@:4]1([H:9])[C:5]([H:10])([H:11])[O:6]1)([H:7])[H:8]>>[C:3](=[C:4]1[C:5]([H:10])([H:11])[O:6]1)([H:7])[H:8].[N:1]#[C:2][H:9]"
N        3.25111155      -0.02712412       1.20065635
C        2.18216825      -0.13953928       0.78968135
C        0.44635618      -1.02801363      -0.42821936
C       -0.35488129       0.07497870      -0.08574352
C       -1.63409103       0.69287178      -0.37275674
O       -1.06982062       0.54159411       0.95672289
H        0.18621350      -2.01546417      -0.05984792
H        0.67763154      -1.04314090      -1.48801866
H        0.87148589       0.77155116       0.81433858
H       -2.63080734       0.43978701      -0.73786479
H       -1.92536663       1.73249935      -0.58894819
