16
Frame=0 idx=003928 GeodesicLength=0.0 rxn_smarts="[C:1]([C@@:2]([O:3][H:11])([C@@:4]([C:5]([H:13])([H:14])[H:15])([O:6][H:16])[H:12])[H:10])([H:7])([H:8])[H:9]>>[C:1](/[C:2](=[C:4](\[C:5]([H:13])([H:14])[H:15])[O:6][H:16])[H:10])([H:7])([H:8])[H:9].[O:3]([H:11])[H:12]"
C        1.27136385      -1.20324589       0.15864187
C        0.54586983       0.00660287       0.63880003
O        1.61218719       1.36354683      -0.23708064
C       -0.65524934       0.48022246       0.05145585
C       -1.46488953      -0.33457861      -0.92187822
O       -1.42331783       1.34573297       0.86181271
H        1.29524095      -1.24475688      -0.92903710
H        0.74241967      -2.09157690       0.52003357
H        2.29382561      -1.22648410       0.52742671
H        0.75471760       0.33164709       1.65296676
H        1.78698980       2.11927679       0.33510148
H        0.36035996       1.26087515      -0.47177843
H       -0.83395602      -0.91350248      -1.59644835
H       -2.13146197      -1.03998431      -0.40798367
H       -2.08705028       0.32190438      -1.53083102
H       -2.06704949       0.82432068       1.34879849
16
Frame=1 idx=003928 GeodesicLength=0.09358008258066049 rxn_smarts="[C:1]([C@@:2]([O:3][H:11])([C@@:4]([C:5]([H:13])([H:14])[H:15])([O:6][H:16])[H:12])[H:10])([H:7])([H:8])[H:9]>>[C:1](/[C:2](=[C:4](\[C:5]([H:13])([H:14])[H:15])[O:6][H:16])[H:10])([H:7])([H:8])[H:9].[O:3]([H:11])[H:12]"
C        1.29012287      -1.20130529       0.14110680
C        0.54610643      -0.00445215       0.62930927
O        1.61614323       1.39626196      -0.19319843
C       -0.64887917       0.47466156       0.03487761
C       -1.48409224      -0.35192476      -0.90510605
O       -1.39845377       1.38110269       0.81630960
H        1.32192267      -1.22779483      -0.94696312
H        0.77107605      -2.10208776       0.48496680
H        2.31041251      -1.22057283       0.51700005
H        0.72658776       0.28124978       1.66102766
H        1.76712929       2.12267130       0.42123591
H        0.36966187       1.25194813      -0.52114345
H       -0.87519685      -0.96376646      -1.57058291
H       -2.15723480      -1.02653085      -0.35986998
H       -2.09996288       0.29756866      -1.52805548
H       -2.05534296       0.89297087       1.31908572
16
Frame=2 idx=003928 GeodesicLength=0.18670276277421016 rxn_smarts="[C:1]([C@@:2]([O:3][H:11])([C@@:4]([C:5]([H:13])([H:14])[H:15])([O:6][H:16])[H:12])[H:10])([H:7])([H:8])[H:9]>>[C:1](/[C:2](=[C:4](\[C:5]([H:13])([H:14])[H:15])[O:6][H:16])[H:10])([H:7])([H:8])[H:9].[O:3]([H:11])[H:12]"
C        1.30867447      -1.19890097       0.12454604
C        0.54608967      -0.01544992       0.62050426
O        1.61556560       1.42839885      -0.15116502
C       -0.64236012       0.46951180       0.01825956
C       -1.50264982      -0.36751830      -0.88813183
O       -1.37375721       1.41344455       0.77106821
H        1.34787758      -1.21112903      -0.96366565
H        0.80020972      -2.11175222       0.45129984
H        2.32693064      -1.21343793       0.50705298
H        0.69793897       0.23134167       1.66716542
H        1.74681590       2.12137332       0.50420116
H        0.37999326       1.24367972      -0.56881804
H       -0.91564149      -1.01179188      -1.54236933
H       -2.18166591      -1.01030065      -0.31301941
H       -2.11195664       0.27462774      -1.52524460
H       -2.04206462       0.95790327       1.28831640
16
Frame=3 idx=003928 GeodesicLength=0.2794686849276335 rxn_smarts="[C:1]([C@@:2]([O:3][H:11])([C@@:4]([C:5]([H:13])([H:14])[H:15])([O:6][H:16])[H:12])[H:10])([H:7])([H:8])[H:9]>>[C:1](/[C:2](=[C:4](\[C:5]([H:13])([H:14])[H:15])[O:6][H:16])[H:10])([H:7])([H:8])[H:9].[O:3]([H:11])[H:12]"
C        1.32696476      -1.19602725       0.10899797
C        0.54583199      -0.02630797       0.61228653
O        1.61097387       1.45996462      -0.11108070
C       -0.63578700       0.46462446       0.00167923
C       -1.52057584      -0.38146350      -0.87103258
O       -1.34941854       1.44280490       0.72636042
H        1.37332235      -1.19466645      -0.97911842
H        0.82959033      -2.12053852       0.41890146
H        2.34321277      -1.20522383       0.49787275
H        0.66891278       0.18205888       1.67137775
H        1.72664925       2.11552302       0.58373432
H        0.39097913       1.23633017      -0.61481485
H       -0.95527237      -1.05747103      -1.51202828
H       -2.20473642      -0.99159281      -0.26760522
H       -2.12312368       0.25296049      -1.52236432
H       -2.02752337       1.01902483       1.25683394
16
Frame=4 idx=003928 GeodesicLength=0.3720265330969378 rxn_smarts="[C:1]([C@@:2]([O:3][H:11])([C@@:4]([C:5]([H:13])([H:14])[H:15])([O:6][H:16])[H:12])[H:10])([H:7])([H:8])[H:9]>>[C:1](/[C:2](=[C:4](\[C:5]([H:13])([H:14])[H:15])[O:6][H:16])[H:10])([H:7])([H:8])[H:9].[O:3]([H:11])[H:12]"
C        1.34499637      -1.19271861       0.09446160
C        0.54535273      -0.03700640       0.60459793
O        1.60286293       1.49098901      -0.07281426
C       -0.62922403       0.45988776      -0.01482430
C       -1.53792578      -0.39387699      -0.85386367
O       -1.32556438       1.46936451       0.68233132
H        1.39850909      -1.17829193      -0.99334942
H        0.85906227      -2.12846894       0.38758225
H        2.35917295      -1.19613498       0.48969692
H        0.63961970       0.13337723       1.67374690
H        1.70690511       2.10545846       0.65965350
H        0.40240264       1.22997551      -0.65929916
H       -0.99413440      -1.10077089      -1.47979035
H       -2.22646287      -0.97068279      -0.22367934
H       -2.13361836       0.23242615      -1.51939878
H       -2.01195397       1.07647291       1.22494885
16
Frame=5 idx=003928 GeodesicLength=0.4644665299789006 rxn_smarts="[C:1]([C@@:2]([O:3][H:11])([C@@:4]([C:5]([H:13])([H:14])[H:15])([O:6][H:16])[H:12])[H:10])([H:7])([H:8])[H:9]>>[C:1](/[C:2](=[C:4](\[C:5]([H:13])([H:14])[H:15])[O:6][H:16])[H:10])([H:7])([H:8])[H:9].[O:3]([H:11])[H:12]"
C        1.36276382      -1.18902617       0.08092718
C        0.54467306      -0.04755426       0.59739605
O        1.59168120       1.52147961      -0.03617106
C       -0.62269421       0.45521199      -0.03122204
C       -1.55473499      -0.40485699      -0.83666205
O       -1.30225217       1.49331202       0.63906588
H        1.42365299      -1.16188440      -1.00637656
H        0.88847314      -2.13558230       0.35715466
H        2.37472307      -1.18640047       0.48271792
H        0.61014370       0.08520427       1.67434949
H        1.68760329       2.09161569       0.73175100
H        0.41414065       1.22463719      -0.70243248
H       -1.03227161      -1.14166727      -1.44586174
H       -2.24683686      -0.94782594      -0.18124779
H       -2.14356378       0.21291265      -1.51631024
H       -1.99550130       1.13042437       1.19292179
16
Frame=6 idx=003928 GeodesicLength=0.5568362772242428 rxn_smarts="[C:1]([C@@:2]([O:3][H:11])([C@@:4]([C:5]([H:13])([H:14])[H:15])([O:6][H:16])[H:12])[H:10])([H:7])([H:8])[H:9]>>[C:1](/[C:2](=[C:4](\[C:5]([H:13])([H:14])[H:15])[O:6][H:16])[H:10])([H:7])([H:8])[H:9].[O:3]([H:11])[H:12]"
C        1.38025717      -1.18502753       0.06837757
C        0.54382325      -0.05799327       0.59065831
O        1.57785805       1.55138649      -0.00093308
C       -0.61619601       0.45051298      -0.04746111
C       -1.57101519      -0.41448877      -0.81944552
O       -1.27949132       1.51480364       0.59668010
H        1.44892948      -1.14534376      -1.01819921
H        0.91768218      -2.14194383       0.32741207
H        2.38977156      -1.17628570       0.47708373
H        0.58061631       0.03744962       1.67325001
H        1.66857491       2.07458555       0.79974735
H        0.42611035       1.22033089      -0.74432246
H       -1.06972067      -1.18017252      -1.41039305
H       -2.26590301      -0.92320305      -0.14033470
H       -2.15299082       0.19435448      -1.51306741
H       -1.97830623       1.18103479       1.16094742
16
Frame=7 idx=003928 GeodesicLength=0.6491812125528903 rxn_smarts="[C:1]([C@@:2]([O:3][H:11])([C@@:4]([C:5]([H:13])([H:14])[H:15])([O:6][H:16])[H:12])[H:10])([H:7])([H:8])[H:9]>>[C:1](/[C:2](=[C:4](\[C:5]([H:13])([H:14])[H:15])[O:6][H:16])[H:10])([H:7])([H:8])[H:9].[O:3]([H:11])[H:12]"
C        1.39747259      -1.18080806       0.05678942
C        0.54283321      -0.06837126       0.58436741
O        1.56177878       1.58064099       0.03310728
C       -0.60971974       0.44572274      -0.06350592
C       -1.58678394      -0.42284941      -0.80223198
O       -1.25727880       1.53400321       0.55524077
H        1.47448906      -1.12858741      -1.02882046
H        0.94657102      -2.14761944       0.29817403
H        2.40425121      -1.16606011       0.47290607
H        0.55115706      -0.00999007       1.67051232
H        1.64958533       2.05499545       0.86345756
H        0.43826320       1.21704072      -0.78509310
H       -1.10652844      -1.21629665      -1.37355066
H       -2.28368080      -0.89699679      -0.10092736
H       -2.16195656       0.17668877      -1.50963904
H       -1.96045317       1.22848733       1.12921367
16
Frame=8 idx=003928 GeodesicLength=0.7415336541274838 rxn_smarts="[C:1]([C@@:2]([O:3][H:11])([C@@:4]([C:5]([H:13])([H:14])[H:15])([O:6][H:16])[H:12])[H:10])([H:7])([H:8])[H:9]>>[C:1](/[C:2](=[C:4](\[C:5]([H:13])([H:14])[H:15])[O:6][H:16])[H:10])([H:7])([H:8])[H:9].[O:3]([H:11])[H:12]"
C        1.41440587      -1.17645391       0.04613458
C        0.54173273      -0.07873872       0.57850728
O        1.54379638       1.60916069       0.06612664
C       -0.60325237       0.44078149      -0.07932429
C       -1.60205752      -0.43001279      -0.78503201
O       -1.23559976       1.55106275       0.51479221
H        1.50045013      -1.11154670      -1.03823682
H        0.97503851      -2.15267364       0.26927774
H        2.41810606      -1.15598612       0.47026035
H        0.52189209      -0.05720255       1.66618851
H        1.63038234       2.03348084       0.92278435
H        0.45055690       1.21474150      -0.82487201
H       -1.14274103      -1.25005263      -1.33549471
H       -2.30018747      -0.86938441      -0.06299818
H       -2.17051693       0.15986152      -1.50598726
H       -1.94200594       1.27296269       1.09787359
16
Frame=9 idx=003928 GeodesicLength=0.8339213660936935 rxn_smarts="[C:1]([C@@:2]([O:3][H:11])([C@@:4]([C:5]([H:13])([H:14])[H:15])([O:6][H:16])[H:12])[H:10])([H:7])([H:8])[H:9]>>[C:1](/[C:2](=[C:4](\[C:5]([H:13])([H:14])[H:15])[O:6][H:16])[H:10])([H:7])([H:8])[H:9].[O:3]([H:11])[H:12]"
C        1.43105613      -1.17203900       0.03637621
C        0.54054589      -0.08913826       0.57305674
O        1.52421295       1.63688002       0.09827439
C       -0.59678058       0.43564133      -0.09489996
C       -1.61685620      -0.43605310      -0.76784908
O       -1.21443181       1.56613779       0.47532870
H        1.52690007      -1.09415821      -1.04644560
H        1.00301527      -2.15716090       0.24058371
H        2.43129793      -1.14629209       0.46918127
H        0.49292160      -0.10427009       1.66031583
H        1.61073644       2.01060051       0.97776624
H        0.46295102       1.21338879      -0.86380887
H       -1.17840734      -1.28146720      -1.29637089
H       -2.31542293      -0.84054404      -0.02648706
H       -2.17874663       0.14381283      -1.50206666
H       -1.92299181       1.31466162       1.06704502
16
Frame=10 idx=003928 GeodesicLength=0.926363050757769 rxn_smarts="[C:1]([C@@:2]([O:3][H:11])([C@@:4]([C:5]([H:13])([H:14])[H:15])([O:6][H:16])[H:12])[H:10])([H:7])([H:8])[H:9]>>[C:1](/[C:2](=[C:4](\[C:5]([H:13])([H:14])[H:15])[O:6][H:16])[H:10])([H:7])([H:8])[H:9].[O:3]([H:11])[H:12]"
C        1.44743197      -1.16762412       0.02746473
C        0.53929408      -0.09961897       0.56799546
O        1.50328688       1.66373268       0.12968192
C       -0.59029673       0.43025236      -0.11021144
C       -1.63120208      -0.44104800      -0.75067058
O       -1.19374172       1.57936761       0.43683643
H        1.55390667      -1.07635696      -1.05344529
H        1.03046955      -2.16112336       0.21194105
H        2.44380158      -1.13717482       0.46966545
H        0.46436263      -0.15125235       1.65292706
H        1.59044404       1.98686159       1.02853481
H        0.47539373       1.21292173      -0.90206230
H       -1.21358703      -1.31060692      -1.25626425
H       -2.32943717      -0.81059318       0.00866358
H       -2.18668031       0.12847804      -1.49784903
H       -1.90344608       1.35378467       1.03679240
16
Frame=11 idx=003928 GeodesicLength=1.0188764043006453 rxn_smarts="[C:1]([C@@:2]([O:3][H:11])([C@@:4]([C:5]([H:13])([H:14])[H:15])([O:6][H:16])[H:12])[H:10])([H:7])([H:8])[H:9]>>[C:1](/[C:2](=[C:4](\[C:5]([H:13])([H:14])[H:15])[O:6][H:16])[H:10])([H:7])([H:8])[H:9].[O:3]([H:11])[H:12]"
C        1.46354792      -1.16325000       0.01934897
C        0.53798858      -0.11021997       0.56330228
O        1.48120438       1.68968469       0.16045701
C       -0.58379938       0.42457349      -0.12525190
C       -1.64512481      -0.44507118      -0.73348139
O       -1.17349849       1.59089379       0.39925283
H        1.58151968      -1.05807296      -1.05923186
H        1.05740376      -2.16458440       0.18322364
H        2.45560764      -1.12878453       0.47168753
H        0.43629882      -0.19821399       1.64404814
H        1.56937685       1.96264582       1.07532748
H        0.48782776       1.21325392      -0.93981877
H       -1.24834181      -1.33753857      -1.21524728
H       -2.34226006      -0.77964871       0.04253657
H       -2.19437677       0.11378484      -1.49330531
H       -1.88337406       1.39054777       1.00715205
16
Frame=12 idx=003928 GeodesicLength=1.1114778516978783 rxn_smarts="[C:1]([C@@:2]([O:3][H:11])([C@@:4]([C:5]([H:13])([H:14])[H:15])([O:6][H:16])[H:12])[H:10])([H:7])([H:8])[H:9]>>[C:1](/[C:2](=[C:4](\[C:5]([H:13])([H:14])[H:15])[O:6][H:16])[H:10])([H:7])([H:8])[H:9].[O:3]([H:11])[H:12]"
C        1.47942134      -1.15894423       0.01197739
C        0.53663628      -0.12097952       0.55895893
O        1.45811210       1.71471387       0.19069615
C       -0.57729203       0.41856592      -0.14001189
C       -1.65865301      -0.44819238      -0.71625956
O       -1.15366518       1.60084433       0.36250613
H        1.60976701      -1.03924017      -1.06379409
H        1.08384567      -2.16755216       0.15431769
H        2.46671510      -1.12123923       0.47519836
H        0.40881395      -0.24520166       1.63370484
H        1.54743656       1.93824578       1.11842441
H        0.50018610       1.21428626      -0.97727242
H       -1.28272688      -1.36232718      -1.17337322
H       -2.35392869      -0.74780644       0.07521060
H       -2.20188729       0.09966460      -1.48840332
H       -1.86278103       1.42516221       0.97811999
16
Frame=13 idx=003928 GeodesicLength=1.2041785475774855 rxn_smarts="[C:1]([C@@:2]([O:3][H:11])([C@@:4]([C:5]([H:13])([H:14])[H:15])([O:6][H:16])[H:12])[H:10])([H:7])([H:8])[H:9]>>[C:1](/[C:2](=[C:4](\[C:5]([H:13])([H:14])[H:15])[O:6][H:16])[H:10])([H:7])([H:8])[H:9].[O:3]([H:11])[H:12]"
C        1.49506987      -1.15471988       0.00530220
C        0.53523663      -0.13193311       0.55495123
O        1.43410166       1.73881379       0.22048543
C       -0.57078206       0.41219399      -0.15448332
C       -1.67181476      -0.45047315      -0.69898213
O       -1.13420376       1.60933619       0.32650615
H        1.63866126      -1.01978792      -1.06711017
H        1.10984210      -2.17001748       0.12512575
H        2.47712489      -1.11462555       0.48013939
H        0.38197828      -0.29226469       1.62192059
H        1.52457373       1.91387013       1.15813144
H        0.51239524       1.21590334      -1.01462715
H       -1.31679303      -1.38503031      -1.13068717
H       -2.36447059      -0.71515233       0.10676873
H       -2.20926317       0.08605494      -1.48311178
H       -1.84165630       1.45783206       0.94967082
16
Frame=14 idx=003928 GeodesicLength=1.296997828663348 rxn_smarts="[C:1]([C@@:2]([O:3][H:11])([C@@:4]([C:5]([H:13])([H:14])[H:15])([O:6][H:16])[H:12])[H:10])([H:7])([H:8])[H:9]>>[C:1](/[C:2](=[C:4](\[C:5]([H:13])([H:14])[H:15])[O:6][H:16])[H:10])([H:7])([H:8])[H:9].[O:3]([H:11])[H:12]"
C        1.51051628      -1.15058180      -0.00072262
C        0.53378752      -0.14311541       0.55126698
O        1.40924032       1.76198677       0.24991478
C       -0.56427961       0.40542666      -0.16865827
C       -1.68463922      -0.45196776      -0.68162268
O       -1.11507221       1.61647636       0.29115767
H        1.66819928      -0.99965460      -1.06915344
H        1.13546463      -2.17196024       0.09556691
H        2.48685080      -1.10900531       0.48643435
H        0.35585635      -0.33944064       1.60871883
H        1.50074483       1.88964789       1.19476558
H        0.52437767       1.21798150      -1.05209041
H       -1.35058277      -1.40569845      -1.08722131
H       -2.37391681      -0.68175323       0.13728927
H       -2.21655876       0.07290131      -1.47739464
H       -1.81998830       1.48875694       0.92174901
16
Frame=15 idx=003928 GeodesicLength=1.3899523537005523 rxn_smarts="[C:1]([C@@:2]([O:3][H:11])([C@@:4]([C:5]([H:13])([H:14])[H:15])([O:6][H:16])[H:12])[H:10])([H:7])([H:8])[H:9]>>[C:1](/[C:2](=[C:4](\[C:5]([H:13])([H:14])[H:15])[O:6][H:16])[H:10])([H:7])([H:8])[H:9].[O:3]([H:11])[H:12]"
C        1.52578227      -1.14652522      -0.00613833
C        0.53228264      -0.15456173       0.54789861
O        1.38355706       1.78423960       0.27907397
C       -0.55779584       0.39823377      -0.18252665
C       -1.69715277      -0.45272084      -0.66415432
O       -1.09622380       1.62235764       0.25636031
H        1.69836474      -0.97877640      -1.06988650
H        1.16079621      -2.17334543       0.06557390
H        2.49590549      -1.10442017       0.49400201
H        0.33050656      -0.38677192       1.59412210
H        1.47592804       1.86565745       1.22863772
H        0.53604991       1.22038539      -1.08987421
H       -1.38413503      -1.42437216      -1.04300413
H       -2.38229132      -0.64766268       0.16684847
H       -2.22382183       0.06015999      -1.47121684
H       -1.79775234       1.51812271       0.89428390
16
Frame=16 idx=003928 GeodesicLength=1.4830635894714521 rxn_smarts="[C:1]([C@@:2]([O:3][H:11])([C@@:4]([C:5]([H:13])([H:14])[H:15])([O:6][H:16])[H:12])[H:10])([H:7])([H:8])[H:9]>>[C:1](/[C:2](=[C:4](\[C:5]([H:13])([H:14])[H:15])[O:6][H:16])[H:10])([H:7])([H:8])[H:9].[O:3]([H:11])[H:12]"
C        1.54089179      -1.14253899      -0.01098232
C        0.53071447      -0.16630912       0.54484111
O        1.35705757       1.80558005       0.30806093
C       -0.55134184       0.39058702      -0.19607733
C       -1.70938059      -0.45276761      -0.64654856
O       -1.07760518       1.62706075       0.22201259
H        1.72912710      -0.95709542      -1.06926537
H        1.18593483      -2.17412700       0.03509596
H        2.50430819      -1.10089321       0.50275123
H        0.30598288      -0.43430082       1.57815125
H        1.45010084       1.84193063       1.26005104
H        0.54732415       1.22297006      -1.12819512
H       -1.41748461      -1.44108169      -0.99806071
H       -2.38961506      -0.61291865       0.19551873
H       -2.23109883       0.04779937      -1.46454022
H       -1.77491572       1.54610460       0.86718681
