15
Frame=0 idx=008435 GeodesicLength=0.0 rxn_smarts="[C:1]1([H:8])([H:9])[C@@:2]2([H:10])[C@@:3]3([H:11])[O:4][C:5]([H:12])([H:13])[C@:6]1([H:14])[C@@:7]23[H:15]>>[C:1](=[C:6]([C:5]([O:4][C:3]1([H:11])[C:2]([H:10])=[C:7]1[H:15])([H:12])[H:13])[H:14])([H:8])[H:9]"
C        0.67415139       1.40536557       0.44512292
C        0.99305934      -0.20938128      -0.46007097
C        0.32195012      -1.37791940       0.15617188
O       -0.65905865      -1.01952991       1.14518940
C       -1.41251482       0.03683602       0.60415894
C       -0.48070377       0.94944994      -0.16062775
C        0.03701857      -1.01714777      -1.21259605
H        0.89708322       1.12137375       1.46391214
H        1.26905765       2.18194477      -0.01429079
H        2.04557822      -0.02221983      -0.63796826
H        0.90953572      -2.21086623       0.52732370
H       -1.84885111       0.58587284       1.44475860
H       -2.19523739      -0.31691510      -0.06815951
H       -0.82892306       1.38782471      -1.08484398
H        0.27785451      -1.49468803      -2.14808027
15
Frame=1 idx=008435 GeodesicLength=0.07025101794233736 rxn_smarts="[C:1]1([H:8])([H:9])[C@@:2]2([H:10])[C@@:3]3([H:11])[O:4][C:5]([H:12])([H:13])[C@:6]1([H:14])[C@@:7]23[H:15]>>[C:1](=[C:6]([C:5]([O:4][C:3]1([H:11])[C:2]([H:10])=[C:7]1[H:15])([H:12])[H:13])[H:14])([H:8])[H:9]"
C        0.67412141       1.40622394       0.44031318
C        1.01396559      -0.22121707      -0.45912609
C        0.32542473      -1.37917195       0.15915982
O       -0.65345510      -1.01539326       1.14576353
C       -1.41235379       0.03723189       0.60339400
C       -0.48539833       0.95193506      -0.16440973
C        0.04649551      -1.00911603      -1.21079013
H        0.89410445       1.13121495       1.46264422
H        1.25951845       2.19265925      -0.01520179
H        2.06778769      -0.04040180      -0.63370572
H        0.89941205      -2.22420460       0.52365204
H       -1.85487754       0.58387070       1.44199106
H       -2.19211452      -0.32473020      -0.06879645
H       -0.84565776       1.40593915      -1.07667816
H        0.26302717      -1.49484004      -2.14820980
15
Frame=2 idx=008435 GeodesicLength=0.1405218675644488 rxn_smarts="[C:1]1([H:8])([H:9])[C@@:2]2([H:10])[C@@:3]3([H:11])[O:4][C:5]([H:12])([H:13])[C@:6]1([H:14])[C@@:7]23[H:15]>>[C:1](=[C:6]([C:5]([O:4][C:3]1([H:11])[C:2]([H:10])=[C:7]1[H:15])([H:12])[H:13])[H:14])([H:8])[H:9]"
C        0.67408344       1.40702696       0.43500023
C        1.03532339      -0.23349675      -0.45780520
C        0.32900357      -1.38044205       0.16225247
O       -0.64770027      -1.01112883       1.14640049
C       -1.41218225       0.03754705       0.60256478
C       -0.49032616       0.95445576      -0.16838304
C        0.05650548      -1.00086030      -1.20882312
H        0.89108445       1.14135083       1.46088607
H        1.24980226       2.20317091      -0.01666437
H        2.09048295      -0.05939900      -0.62893887
H        0.88876186      -2.23765211       0.51983844
H       -1.86095403       0.58173239       1.43911572
H       -2.18881399      -0.33282120      -0.06948863
H       -0.86313376       1.42438789      -1.06777232
H        0.24806307      -1.49387155      -2.14818267
15
Frame=3 idx=008435 GeodesicLength=0.21080946415725166 rxn_smarts="[C:1]1([H:8])([H:9])[C@@:2]2([H:10])[C@@:3]3([H:11])[O:4][C:5]([H:12])([H:13])[C@:6]1([H:14])[C@@:7]23[H:15]>>[C:1](=[C:6]([C:5]([O:4][C:3]1([H:11])[C:2]([H:10])=[C:7]1[H:15])([H:12])[H:13])[H:14])([H:8])[H:9]"
C        0.67403180       1.40776309       0.42915388
C        1.05713446      -0.24624216      -0.45608944
C        0.33269021      -1.38172830       0.16545909
O       -0.64179370      -1.00672959       1.14710115
C       -1.41200330       0.03777369       0.60166498
C       -0.49550632       0.95701130      -0.17255917
C        0.06707260      -0.99238139      -1.20667774
H        0.88803095       1.15177684       1.45859505
H        1.23991717       2.21345116      -0.01872267
H        2.11365903      -0.07924244      -0.62364884
H        0.87757298      -2.25118010       0.51588451
H       -1.86708788       0.57944116       1.43612277
H       -2.18532398      -0.34120133      -0.07024119
H       -0.88136259       1.44316552      -1.05806809
H        0.23296856      -1.49167746      -2.14797429
15
Frame=4 idx=008435 GeodesicLength=0.28111048841326736 rxn_smarts="[C:1]1([H:8])([H:9])[C@@:2]2([H:10])[C@@:3]3([H:11])[O:4][C:5]([H:12])([H:13])[C@:6]1([H:14])[C@@:7]23[H:15]>>[C:1](=[C:6]([C:5]([O:4][C:3]1([H:11])[C:2]([H:10])=[C:7]1[H:15])([H:12])[H:13])[H:14])([H:8])[H:9]"
C        0.67395950       1.40841999       0.42274046
C        1.07939837      -0.25947706      -0.45396055
C        0.33648970      -1.38303058       0.16879031
O       -0.63573491      -1.00218841       1.14786662
C       -1.41181973       0.03790244       0.60068701
C       -0.50095931       0.95959917      -0.17695214
C        0.07822126      -0.98368259      -1.20433526
H        0.88495232       1.16248953       1.45572413
H        1.22987120       2.22347002      -0.02142798
H        2.13730882      -0.09996787      -0.61781434
H        0.86582947      -2.26475701       0.51178935
H       -1.87328684       0.57697800       1.43300137
H       -2.18163000      -0.34988623      -0.07105975
H       -0.90035280       1.46226307      -1.04750038
H        0.21775294      -1.48813246      -2.14754885
15
Frame=5 idx=008435 GeodesicLength=0.3514233382179547 rxn_smarts="[C:1]1([H:8])([H:9])[C@@:2]2([H:10])[C@@:3]3([H:11])[O:4][C:5]([H:12])([H:13])[C@:6]1([H:14])[C@@:7]23[H:15]>>[C:1](=[C:6]([C:5]([O:4][C:3]1([H:11])[C:2]([H:10])=[C:7]1[H:15])([H:12])[H:13])[H:14])([H:8])[H:9]"
C        0.67385780       1.40898422       0.41573035
C        1.10211113      -0.27322406      -0.45140185
C        0.34040537      -1.38434596       0.17225583
O       -0.62952405      -0.99749779       1.14869800
C       -1.41163654       0.03792433       0.59962371
C       -0.50670698       0.96221816      -0.18157324
C        0.08997232      -0.97476594      -1.20177586
H        0.88185912       1.17347907       1.45222712
H        1.21967211       2.23319693      -0.02482563
H        2.16141871      -0.12160444      -0.61142505
H        0.85352482      -2.27834847       0.50755534
H       -1.87955959       0.57432604       1.42974461
H       -2.17772515      -0.35888829      -0.07195205
H       -0.92010155       1.48166797      -1.03600879
H        0.20243247      -1.48312177      -2.14687249
15
Frame=6 idx=008435 GeodesicLength=0.42174973811741845 rxn_smarts="[C:1]1([H:8])([H:9])[C@@:2]2([H:10])[C@@:3]3([H:11])[O:4][C:5]([H:12])([H:13])[C@:6]1([H:14])[C@@:7]23[H:15]>>[C:1](=[C:6]([C:5]([O:4][C:3]1([H:11])[C:2]([H:10])=[C:7]1[H:15])([H:12])[H:13])[H:14])([H:8])[H:9]"
C        0.67371508       1.40944464       0.40809001
C        1.12526262      -0.28750340      -0.44840157
C        0.34443992      -1.38567101       0.17586363
O       -0.62316191      -0.99264933       1.14959500
C       -1.41145879       0.03783318       0.59847010
C       -0.51277462       0.96486867      -0.18643496
C        0.10234241      -0.96563155      -1.19898071
H        0.87876289       1.18473536       1.44805703
H        1.20932795       2.24260048      -0.02897026
H        2.18597132      -0.14418886      -0.60446412
H        0.84064626      -2.29191403       0.50317659
H       -1.88591640       0.57146633       1.42634647
H       -2.17359693      -0.36821737      -0.07292111
H       -0.94060682       1.50136666      -1.02351385
H        0.18704702      -1.47653977      -2.14591225
15
Frame=7 idx=008435 GeodesicLength=0.49209168230970746 rxn_smarts="[C:1]1([H:8])([H:9])[C@@:2]2([H:10])[C@@:3]3([H:11])[O:4][C:5]([H:12])([H:13])[C@:6]1([H:14])[C@@:7]23[H:15]>>[C:1](=[C:6]([C:5]([O:4][C:3]1([H:11])[C:2]([H:10])=[C:7]1[H:15])([H:12])[H:13])[H:14])([H:8])[H:9]"
C        0.67351831       1.40978918       0.39979162
C        1.14884197      -0.30233331      -0.44494753
C        0.34859658      -1.38700035       0.17962319
O       -0.61664920      -0.98763334       1.15055749
C       -1.41129118       0.03762144       0.59722086
C       -0.51918578       0.96755017      -0.19154775
C        0.11534542      -0.95628082      -1.19592903
H        0.87567566       1.19624561       1.44316931
H        1.19884388       2.25165082      -0.03390787
H        2.21094517      -0.16775047      -0.59692362
H        0.82718746      -2.30541008       0.49864999
H       -1.89236787       0.56838101       1.42280185
H       -2.16923741      -0.37788364      -0.07397157
H       -0.96185112       1.52133853      -1.00994837
H        0.17162812      -1.46828474      -2.14463856
15
Frame=8 idx=008435 GeodesicLength=0.5624525967349889 rxn_smarts="[C:1]1([H:8])([H:9])[C@@:2]2([H:10])[C@@:3]3([H:11])[O:4][C:5]([H:12])([H:13])[C@:6]1([H:14])[C@@:7]23[H:15]>>[C:1](=[C:6]([C:5]([O:4][C:3]1([H:11])[C:2]([H:10])=[C:7]1[H:15])([H:12])[H:13])[H:14])([H:8])[H:9]"
C        0.67324947       1.41000297       0.39080288
C        1.17283302      -0.31773360      -0.44103039
C        0.35287849      -1.38832808       0.18354472
O       -0.60998615      -0.98243844       1.15158563
C       -1.41114145       0.03728212       0.59587080
C       -0.52596757       0.97026053      -0.19692468
C        0.12899559      -0.94671748      -1.19260155
H        0.87261039       1.20799167       1.43751013
H        1.18822315       2.26031083      -0.03969495
H        2.23631349      -0.19232059      -0.58879320
H        0.81314520      -2.31879258       0.49397916
H       -1.89892649       0.56505065       1.41910735
H       -2.16463985      -0.38789598      -0.07510578
H       -0.98380748       1.54156100      -0.99523393
H        0.15622018      -1.45823303      -2.14301619
15
Frame=9 idx=008435 GeodesicLength=0.6328419157897446 rxn_smarts="[C:1]1([H:8])([H:9])[C@@:2]2([H:10])[C@@:3]3([H:11])[O:4][C:5]([H:12])([H:13])[C@:6]1([H:14])[C@@:7]23[H:15]>>[C:1](=[C:6]([C:5]([O:4][C:3]1([H:11])[C:2]([H:10])=[C:7]1[H:15])([H:12])[H:13])[H:14])([H:8])[H:9]"
C        0.67288848       1.41008822       0.38109570
C        1.19720462      -0.33369376      -0.43665409
C        0.35725902      -1.38964585       0.18759546
O       -0.60317470      -0.97706544       1.15267404
C       -1.41101892       0.03682770       0.59443373
C       -0.53316276       0.97302143      -0.20254923
C        0.14325674      -0.93687502      -1.18898703
H        0.86958716       1.21995719       1.43104993
H        1.17746259       2.26857026      -0.04640001
H        2.26203538      -0.21791777      -0.58005241
H        0.79850529      -2.33204602       0.48908983
H       -1.90558881       0.56147053       1.41531299
H       -2.15981467      -0.39821407      -0.07633744
H       -1.00646872       1.56204225      -0.97924580
H        0.14102932      -1.44651965      -2.14102567
15
Frame=10 idx=008435 GeodesicLength=0.7032663393490455 rxn_smarts="[C:1]1([H:8])([H:9])[C@@:2]2([H:10])[C@@:3]3([H:11])[O:4][C:5]([H:12])([H:13])[C@:6]1([H:14])[C@@:7]23[H:15]>>[C:1](=[C:6]([C:5]([O:4][C:3]1([H:11])[C:2]([H:10])=[C:7]1[H:15])([H:12])[H:13])[H:14])([H:8])[H:9]"
C        0.67241649       1.41002310       0.37065015
C        1.22193988      -0.35025118      -0.43180914
C        0.36176826      -1.39094649       0.19182494
O       -0.59622094      -0.97149643       1.15382564
C       -1.41092900       0.03623523       0.59288668
C       -0.54078102       0.97581100      -0.20845411
C        0.15818061      -0.92682080      -1.18505172
H        0.86661212       1.23211988       1.42373314
H        1.16657321       2.27638189      -0.05405490
H        2.28807704      -0.24457765      -0.57072522
H        0.78328290      -2.34507811       0.48404358
H       -1.91238098       0.55760860       1.41136553
H       -2.15473953      -0.40888763      -0.07766471
H       -1.02975811       1.58270693      -0.96195427
H        0.12595907      -1.43282835      -2.13861556
15
Frame=11 idx=008435 GeodesicLength=0.7737493369096617 rxn_smarts="[C:1]1([H:8])([H:9])[C@@:2]2([H:10])[C@@:3]3([H:11])[O:4][C:5]([H:12])([H:13])[C@:6]1([H:14])[C@@:7]23[H:15]>>[C:1](=[C:6]([C:5]([O:4][C:3]1([H:11])[C:2]([H:10])=[C:7]1[H:15])([H:12])[H:13])[H:14])([H:8])[H:9]"
C        0.67181190       1.40980580       0.35944693
C        1.24701096      -0.36741523      -0.42649632
C        0.36640811      -1.39222357       0.19624020
O       -0.58913020      -0.96572532       1.15503914
C       -1.41087746       0.03549986       0.59122434
C       -0.54884742       0.97862727      -0.21464597
C        0.17376750      -0.91655248      -1.18077288
H        0.86369842       1.24446178       1.41552516
H        1.15555821       2.28372814      -0.06270811
H        2.31439827      -0.27232074      -0.56082070
H        0.76747797      -2.35784588       0.47883116
H       -1.91931349       0.55344428       1.40726113
H       -2.14940597      -0.41991947      -0.07909475
H       -1.05362058       1.60351075      -0.94329013
H        0.11106377      -1.41707520      -2.13573920
15
Frame=12 idx=008435 GeodesicLength=0.8443149277947848 rxn_smarts="[C:1]1([H:8])([H:9])[C@@:2]2([H:10])[C@@:3]3([H:11])[O:4][C:5]([H:12])([H:13])[C@:6]1([H:14])[C@@:7]23[H:15]>>[C:1](=[C:6]([C:5]([O:4][C:3]1([H:11])[C:2]([H:10])=[C:7]1[H:15])([H:12])[H:13])[H:14])([H:8])[H:9]"
C        0.67105087       1.40943463       0.34747738
C        1.27239258      -0.38518771      -0.42071671
C        0.37118089      -1.39346503       0.20085170
O       -0.58190725      -0.95974194       1.15631423
C       -1.41087066       0.03461785       0.58944290
C       -0.55738279       0.98146608      -0.22113050
C        0.19001592      -0.90606827      -1.17612854
H        0.86085442       1.25695870       1.40640064
H        1.14441613       2.29059266      -0.07239134
H        2.34095771      -0.30116164      -0.55035179
H        0.75110630      -2.37030096       0.47345420
H       -1.92639677       0.54895997       1.40299681
H       -2.14380927      -0.43131134      -0.08062857
H       -1.07798048       1.62439627      -0.92321072
H        0.09637237      -1.39918927      -2.13237970
15
Frame=13 idx=008435 GeodesicLength=0.9149960857183645 rxn_smarts="[C:1]1([H:8])([H:9])[C@@:2]2([H:10])[C@@:3]3([H:11])[O:4][C:5]([H:12])([H:13])[C@:6]1([H:14])[C@@:7]23[H:15]>>[C:1](=[C:6]([C:5]([O:4][C:3]1([H:11])[C:2]([H:10])=[C:7]1[H:15])([H:12])[H:13])[H:14])([H:8])[H:9]"
C        0.67010446       1.40890709       0.33472744
C        1.29804652      -0.40357628      -0.41447957
C        0.37608768      -1.39466113       0.20566697
O       -0.57455712      -0.95353823       1.15764953
C       -1.41091714       0.03358577       0.58754060
C       -0.56641306       0.98432481      -0.22791098
C        0.20692133      -0.89537005      -1.17109389
H        0.85809407       1.26958401       1.39632678
H        1.13314366       2.29695425      -0.08315292
H        2.36770166      -0.33112135      -0.53933851
H        0.73417067      -2.38238183       0.46789869
H       -1.93364284       0.54413645       1.39857551
H       -2.13794666      -0.44306293      -0.08226895
H       -1.10275595       1.64530058      -0.90165781
H        0.08196271      -1.37908117      -2.12848289
15
Frame=14 idx=008435 GeodesicLength=0.9858286714983878 rxn_smarts="[C:1]1([H:8])([H:9])[C@@:2]2([H:10])[C@@:3]3([H:11])[O:4][C:5]([H:12])([H:13])[C@:6]1([H:14])[C@@:7]23[H:15]>>[C:1](=[C:6]([C:5]([O:4][C:3]1([H:11])[C:2]([H:10])=[C:7]1[H:15])([H:12])[H:13])[H:14])([H:8])[H:9]"
C        0.66894304       1.40822365       0.32119562
C        1.32393377      -0.42257919      -0.40779708
C        0.38112985      -1.39579766       0.21069447
O       -0.56708690      -0.94710489       1.15904299
C       -1.41102450       0.03240311       0.58551669
C       -0.57596085       0.98720138      -0.23498866
C        0.22447440      -0.88445494      -1.16564728
H        0.85542602       1.28231118       1.38528182
H        1.12173481       2.30280012      -0.09502454
H        2.39457323      -0.36221654      -0.52780853
H        0.71669053      -2.39403321       0.46216356
H       -1.94106367       0.53895701       1.39400056
H       -2.13181589      -0.45516953      -0.08401791
H       -1.12784792       1.66614852      -0.87859049
H        0.06789407      -1.35668901      -2.12402122
15
Frame=15 idx=008435 GeodesicLength=1.0568542934610452 rxn_smarts="[C:1]1([H:8])([H:9])[C@@:2]2([H:10])[C@@:3]3([H:11])[O:4][C:5]([H:12])([H:13])[C@:6]1([H:14])[C@@:7]23[H:15]>>[C:1](=[C:6]([C:5]([O:4][C:3]1([H:11])[C:2]([H:10])=[C:7]1[H:15])([H:12])[H:13])[H:14])([H:8])[H:9]"
C        0.66753543       1.40739070       0.30688932
C        1.35000906      -0.44218966      -0.40069007
C        0.38630567      -1.39685947       0.21593935
O       -0.55950383      -0.94043227       1.16049293
C       -1.41120099       0.03107204       0.58337232
C       -0.58604659       0.99009586      -0.24235947
C        0.24265689      -0.87331639      -1.15976906
H        0.85285914       1.29511068       1.37325787
H        1.11018002       2.30812793      -0.10802479
H        2.42150860      -0.39446045      -0.51580133
H        0.69868742      -2.40519590       0.45624012
H       -1.94866945       0.53340761       1.38927934
H       -2.12541660      -0.46762233      -0.08587416
H       -1.15314405       1.68685614      -0.85398600
H        0.05423929      -1.33198450      -2.11896636
15
Frame=16 idx=008435 GeodesicLength=1.1281270186522112 rxn_smarts="[C:1]1([H:8])([H:9])[C@@:2]2([H:10])[C@@:3]3([H:11])[O:4][C:5]([H:12])([H:13])[C@:6]1([H:14])[C@@:7]23[H:15]>>[C:1](=[C:6]([C:5]([O:4][C:3]1([H:11])[C:2]([H:10])=[C:7]1[H:15])([H:12])[H:13])[H:14])([H:8])[H:9]"
C        0.66584883       1.40641972       0.29182589
C        1.37622706      -0.46239841      -0.39318329
C        0.39161531      -1.39782845       0.22140704
O       -0.55181437      -0.93351133       1.16199827
C       -1.41145379       0.02959657       0.58111288
C       -0.59668831       0.99300825      -0.25001389
C        0.26144665      -0.86194455      -1.15343924
H        0.85040034       1.30795143       1.36025780
H        1.09846606       2.31294404      -0.12216197
H        2.44844165      -0.42786276      -0.50336697
H        0.68018202      -2.41581087       0.45011922
H       -1.95646973       0.52747544       1.38442306
H       -2.11875185      -0.48040793      -0.08783585
H       -1.17851884       1.70732206      -0.82784728
H        0.04106898      -1.30495322      -2.11329567
