19
Frame=0 idx=009936 GeodesicLength=0.0 rxn_smarts="[C:1]([C:2]([C:3]([C:4]1([H:15])[C:5]([H:16])([H:17])[O:6][C:7]1([H:18])[H:19])([H:13])[H:14])([H:11])[H:12])([H:8])([H:9])[H:10]>>[C:1]([C:2]([C:3]([C@:4]([C:5][H:16])([C:7]([O:6][H:17])([H:18])[H:19])[H:15])([H:13])[H:14])([H:11])[H:12])([H:8])([H:9])[H:10]"
C        2.82187130       0.22971801       0.23541738
C        1.47563281      -0.48045254       0.21858397
C        0.29323940       0.47801973       0.29701638
C       -1.04051728      -0.25036133       0.24327697
C       -1.31495996      -0.94387839      -1.08373297
O       -2.97429418      -0.11585994      -0.94534914
C       -2.29487101       0.61005412       0.11488867
H        2.91334789       0.91543453      -0.61025313
H        2.94680697       0.81430229       1.15033214
H        3.64931728      -0.47954695       0.17786658
H        1.42053802      -1.18990200       1.05141805
H        1.38693025      -1.07409931      -0.69850301
H        0.34012589       1.18280184      -0.54038545
H        0.35426259       1.06819220       1.21869874
H       -1.12648752      -0.91893863       1.10726429
H       -1.56888074      -2.00248481      -0.99442581
H       -2.24369497      -0.10474928      -1.73092229
H       -2.09171590       1.63873755      -0.19738270
H       -2.94665088       0.62301284       0.98619127
19
Frame=1 idx=009936 GeodesicLength=0.05692627257031135 rxn_smarts="[C:1]([C:2]([C:3]([C:4]1([H:15])[C:5]([H:16])([H:17])[O:6][C:7]1([H:18])[H:19])([H:13])[H:14])([H:11])[H:12])([H:8])([H:9])[H:10]>>[C:1]([C:2]([C:3]([C@:4]([C:5][H:16])([C:7]([O:6][H:17])([H:18])[H:19])[H:15])([H:13])[H:14])([H:11])[H:12])([H:8])([H:9])[H:10]"
C        2.82067781       0.23133314       0.23010624
C        1.47537692      -0.48076570       0.22098220
C        0.29177900       0.47639102       0.29660219
C       -1.04143279      -0.25328266       0.24938795
C       -1.32119437      -0.95027802      -1.07531402
O       -2.95469002      -0.10228223      -0.96473571
C       -2.29571384       0.60641465       0.11906804
H        2.90909121       0.91212732      -0.61986684
H        2.94727455       0.82157216       1.14116876
H        3.64894215      -0.47715107       0.17467936
H        1.42339383      -1.18527209       1.05819680
H        1.38480659      -1.07979900      -0.69235596
H        0.33687955       1.17723542      -0.54433302
H        0.35386082       1.07154447       1.21505927
H       -1.12426814      -0.92015066       1.11482426
H       -1.59244601      -2.00425013      -0.98074957
H       -2.20815342      -0.08513068      -1.75252613
H       -2.09374740       1.64184771      -0.17100534
H       -2.96043644       0.59989636       0.98081151
19
Frame=2 idx=009936 GeodesicLength=0.11393906985092095 rxn_smarts="[C:1]([C:2]([C:3]([C:4]1([H:15])[C:5]([H:16])([H:17])[O:6][C:7]1([H:18])[H:19])([H:13])[H:14])([H:11])[H:12])([H:8])([H:9])[H:10]>>[C:1]([C:2]([C:3]([C@:4]([C:5][H:16])([C:7]([O:6][H:17])([H:18])[H:19])[H:15])([H:13])[H:14])([H:11])[H:12])([H:8])([H:9])[H:10]"
C        2.81944086       0.23293090       0.22478240
C        1.47507009      -0.48104164       0.22327334
C        0.29028233       0.47479457       0.29629828
C       -1.04238231      -0.25616343       0.25548217
C       -1.32761337      -0.95634639      -1.06706822
O       -2.93478823      -0.08864960      -0.98335432
C       -2.29659407       0.60286479       0.12311012
H        2.90478258       0.90893082      -0.62935413
H        2.94771857       0.82864617       1.13206401
H        3.64851852      -0.47476489       0.17133868
H        1.42621619      -1.18073985       1.06471730
H        1.38259797      -1.08526892      -0.68640069
H        0.33358850       1.17186711      -0.54802051
H        0.35340707       1.07474366       1.21162200
H       -1.12213430      -0.92140411       1.12230186
H       -1.61631829      -2.00535597      -0.96740115
H       -2.17176660      -0.06681913      -1.77310713
H       -2.09602822       1.64451613      -0.14506448
H       -2.97399730       0.57725981       0.97478046
19
Frame=3 idx=009936 GeodesicLength=0.17092485993186496 rxn_smarts="[C:1]([C:2]([C:3]([C:4]1([H:15])[C:5]([H:16])([H:17])[O:6][C:7]1([H:18])[H:19])([H:13])[H:14])([H:11])[H:12])([H:8])([H:9])[H:10]>>[C:1]([C:2]([C:3]([C@:4]([C:5][H:16])([C:7]([O:6][H:17])([H:18])[H:19])[H:15])([H:13])[H:14])([H:11])[H:12])([H:8])([H:9])[H:10]"
C        2.81807905       0.23447731       0.21946394
C        1.47468315      -0.48127391       0.22541758
C        0.28872574       0.47323368       0.29607761
C       -1.04332834      -0.25896556       0.26152634
C       -1.33412016      -0.96204310      -1.05899024
O       -2.91452903      -0.07505121      -1.00103689
C       -2.29746670       0.59942954       0.12702715
H        2.90035676       0.90581845      -0.63862736
H        2.94800647       0.83544852       1.12304364
H        3.64795876      -0.47242153       0.16783721
H        1.42896014      -1.17629452       1.07087859
H        1.38032840      -1.09047709      -0.68067353
H        0.33023121       1.16666646      -0.55143415
H        0.35283371       1.07779156       1.20833642
H       -1.12003857      -0.92263576       1.12961662
H       -1.64028313      -2.00573230      -0.95439900
H       -2.13460542      -0.04991915      -1.79259256
H       -2.09856795       1.64671908      -0.11960693
H       -2.98722408       0.55522954       0.96813556
19
Frame=4 idx=009936 GeodesicLength=0.2280113454871614 rxn_smarts="[C:1]([C:2]([C:3]([C:4]1([H:15])[C:5]([H:16])([H:17])[O:6][C:7]1([H:18])[H:19])([H:13])[H:14])([H:11])[H:12])([H:8])([H:9])[H:10]>>[C:1]([C:2]([C:3]([C@:4]([C:5][H:16])([C:7]([O:6][H:17])([H:18])[H:19])[H:15])([H:13])[H:14])([H:11])[H:12])([H:8])([H:9])[H:10]"
C        2.81666822       0.23601485       0.21411573
C        1.47424740      -0.48147349       0.22750055
C        0.28713671       0.47169392       0.29597739
C       -1.04430327      -0.26174055       0.26753721
C       -1.34078054      -0.96737477      -1.05112044
O       -2.89402380      -0.06144647      -1.01794682
C       -2.29836011       0.59607199       0.13084794
H        2.89587346       0.90274686      -0.64785667
H        2.94826019       0.84214819       1.11401121
H        3.64734631      -0.47007467       0.16422861
H        1.43168006      -1.17189798       1.07687731
H        1.37797401      -1.09551726      -0.67505582
H        0.32685580       1.16164858      -0.55458508
H        0.35219460       1.08068513       1.20526039
H       -1.11803232      -0.92395421       1.13680660
H       -1.66451106      -2.00541525      -0.94181702
H       -2.09673162      -0.03428150      -1.81116694
H       -2.10131584       1.64852244      -0.09456640
H       -3.00017819       0.53364421       0.96095222
19
Frame=5 idx=009936 GeodesicLength=0.285164649066 rxn_smarts="[C:1]([C:2]([C:3]([C:4]1([H:15])[C:5]([H:16])([H:17])[O:6][C:7]1([H:18])[H:19])([H:13])[H:14])([H:11])[H:12])([H:8])([H:9])[H:10]>>[C:1]([C:2]([C:3]([C@:4]([C:5][H:16])([C:7]([O:6][H:17])([H:18])[H:19])[H:15])([H:13])[H:14])([H:11])[H:12])([H:8])([H:9])[H:10]"
C        2.81519596       0.23752423       0.20879914
C        1.47375599      -0.48163163       0.22945501
C        0.28551861       0.47019905       0.29596455
C       -1.04528985      -0.26444710       0.27349468
C       -1.34756654      -0.97233333      -1.04345464
O       -2.87332623      -0.04798787      -1.03391541
C       -2.29925830       0.59283352       0.13456042
H        2.89134321       0.89982521      -0.65686695
H        2.94844825       0.84858502       1.10512147
H        3.64665606      -0.46775336       0.16047849
H        1.43432861      -1.16762753       1.08255724
H        1.37556089      -1.10028999      -0.66967653
H        0.32346173       1.15683946      -0.55748841
H        0.35149608       1.08343187       1.20236819
H       -1.11608597      -0.92530048       1.14385267
H       -1.68882743      -2.00440041      -0.92962093
H       -2.05835206      -0.02009233      -1.82882525
H       -2.10427174       1.64992480      -0.07008951
H       -3.01278727       0.51270088       0.95328578
19
Frame=6 idx=009936 GeodesicLength=0.34238000979802535 rxn_smarts="[C:1]([C:2]([C:3]([C:4]1([H:15])[C:5]([H:16])([H:17])[O:6][C:7]1([H:18])[H:19])([H:13])[H:14])([H:11])[H:12])([H:8])([H:9])[H:10]>>[C:1]([C:2]([C:3]([C@:4]([C:5][H:16])([C:7]([O:6][H:17])([H:18])[H:19])[H:15])([H:13])[H:14])([H:11])[H:12])([H:8])([H:9])[H:10]"
C        2.81366945       0.23901502       0.20347905
C        1.47322226      -0.48176073       0.23133693
C        0.28386981       0.46873326       0.29606088
C       -1.04629253      -0.26710833       0.27939464
C       -1.35446895      -0.97691124      -1.03601417
O       -2.85245482      -0.03462493      -1.04903309
C       -2.30016974       0.58969770       0.13819516
H        2.88674839       0.89695360      -0.66577949
H        2.94857877       0.85489177       1.09626293
H        3.64591474      -0.46544066       0.15663172
H        1.43695236      -1.16342595       1.08803816
H        1.37308893      -1.10489009      -0.66442970
H        0.32005093       1.15221727      -0.56012914
H        0.35072512       1.08603503       1.19967562
H       -1.11420409      -0.92672230       1.15072819
H       -1.71326984      -2.00268253      -0.91788190
H       -2.01945954      -0.00724909      -1.84563969
H       -2.10743360       1.65097457      -0.04607815
H       -3.02506764       0.49229762       0.94518203
19
Frame=7 idx=009936 GeodesicLength=0.3997033156356644 rxn_smarts="[C:1]([C:2]([C:3]([C:4]1([H:15])[C:5]([H:16])([H:17])[O:6][C:7]1([H:18])[H:19])([H:13])[H:14])([H:11])[H:12])([H:8])([H:9])[H:10]>>[C:1]([C:2]([C:3]([C@:4]([C:5][H:16])([C:7]([O:6][H:17])([H:18])[H:19])[H:15])([H:13])[H:14])([H:11])[H:12])([H:8])([H:9])[H:10]"
C        2.81207562       0.24049489       0.19811217
C        1.47264258      -0.48186550       0.23318740
C        0.28218640       0.46728625       0.29629912
C       -1.04731421      -0.26973689       0.28524529
C       -1.36146423      -0.98110361      -1.02880729
O       -2.83137334      -0.02129964      -1.06336118
C       -2.30109214       0.58665234       0.14176519
H        2.88204753       0.89407882      -0.67469039
H        2.94865463       0.86114196       1.08734514
H        3.64510989      -0.46312510       0.15266787
H        1.43956997      -1.15925133       1.09340124
H        1.37053950      -1.10937020      -0.65923955
H        0.31662777       1.14778208      -0.56247131
H        0.34987173       1.08847871       1.19722245
H       -1.11240076      -0.92825239       1.15742931
H       -1.73785180      -2.00023881      -0.90662345
H       -1.97998943       0.00426827      -1.86167087
H       -2.11078122       1.65168423      -0.02244274
H       -3.03705849       0.47237592       0.93663159
19
Frame=8 idx=009936 GeodesicLength=0.4571503737959982 rxn_smarts="[C:1]([C:2]([C:3]([C:4]1([H:15])[C:5]([H:16])([H:17])[O:6][C:7]1([H:18])[H:19])([H:13])[H:14])([H:11])[H:12])([H:8])([H:9])[H:10]>>[C:1]([C:2]([C:3]([C@:4]([C:5][H:16])([C:7]([O:6][H:17])([H:18])[H:19])[H:15])([H:13])[H:14])([H:11])[H:12])([H:8])([H:9])[H:10]"
C        2.81043793       0.24197205       0.19266478
C        1.47203112      -0.48194878       0.23506023
C        0.28047336       0.46585332       0.29671244
C       -1.04836616      -0.27234886       0.29104877
C       -1.36855356      -0.98488648      -1.02186923
O       -2.81009006      -0.00795432      -1.07696196
C       -2.30204449       0.58368512       0.14528485
H        2.87724721       0.89112107      -0.68371482
H        2.94871574       0.86744120       1.07826729
H        3.64427137      -0.46080087       0.14861688
H        1.44221991      -1.15506059       1.09875240
H        1.36790432      -1.11378969      -0.65401526
H        0.31320679       1.14354758      -0.56448503
H        0.34893892       1.09075662       1.19504978
H       -1.11069387      -0.92994743       1.16394487
H       -1.76261596      -1.99702830      -0.89590961
H       -1.93995735       0.01445144      -1.87699878
H       -2.11432686       1.65208782       0.00091040
H       -3.04879833       0.45284908       0.92764198
19
Frame=9 idx=009936 GeodesicLength=0.5147573185517577 rxn_smarts="[C:1]([C:2]([C:3]([C:4]1([H:15])[C:5]([H:16])([H:17])[O:6][C:7]1([H:18])[H:19])([H:13])[H:14])([H:11])[H:12])([H:8])([H:9])[H:10]>>[C:1]([C:2]([C:3]([C@:4]([C:5][H:16])([C:7]([O:6][H:17])([H:18])[H:19])[H:15])([H:13])[H:14])([H:11])[H:12])([H:8])([H:9])[H:10]"
C        2.80865788       0.24343855       0.18705522
C        1.47135138      -0.48201810       0.23699941
C        0.27870127       0.46440974       0.29731927
C       -1.04942668      -0.27496057       0.29681654
C       -1.37565900      -0.98830438      -1.01514678
O       -2.78840397       0.00551142      -1.08994250
C       -2.30299495       0.58075471       0.14878454
H        2.87221026       0.88793020      -0.69299463
H        2.94865401       0.87391198       1.06883759
H        3.64330314      -0.45845811       0.14445355
H        1.44490386      -1.15074644       1.10417991
H        1.36515098      -1.11825390      -0.64862744
H        0.30975595       1.13944859      -0.56614041
H        0.34786774       1.09287266       1.19314783
H       -1.10906011      -0.93179947       1.17025548
H       -1.78754016      -1.99305944      -0.88571929
H       -1.89909072       0.02360617      -1.89160321
H       -2.11802640       1.65213380       0.02417613
H       -3.06035448       0.43358259       0.91814879
19
Frame=10 idx=009936 GeodesicLength=0.572520819022687 rxn_smarts="[C:1]([C:2]([C:3]([C:4]1([H:15])[C:5]([H:16])([H:17])[O:6][C:7]1([H:18])[H:19])([H:13])[H:14])([H:11])[H:12])([H:8])([H:9])[H:10]>>[C:1]([C:2]([C:3]([C@:4]([C:5][H:16])([C:7]([O:6][H:17])([H:18])[H:19])[H:15])([H:13])[H:14])([H:11])[H:12])([H:8])([H:9])[H:10]"
C        2.80685028       0.24491230       0.18133699
C        1.47065270      -0.48207076       0.23900915
C        0.27690755       0.46297663       0.29811789
C       -1.05052664      -0.27757672       0.30253608
C       -1.38286422      -0.99131875      -1.00871223
O       -2.76653503       0.01902474      -1.10225514
C       -2.30399051       0.57788475       0.15225743
H        2.86706862       0.88460502      -0.70247091
H        2.94861064       0.88051423       1.05916725
H        3.64232668      -0.45609142       0.14021326
H        1.44765236      -1.14636956       1.10969652
H        1.36230554      -1.12272267      -0.64311746
H        0.30632074       1.13554969      -0.56747155
H        0.34672855       1.09483296       1.19154749
H       -1.10753154      -0.93387026       1.17637297
H       -1.81266202      -1.98833081      -0.87612596
H       -1.85769513       0.03151427      -1.90558098
H       -2.12191240       1.65188910       0.04723628
H       -3.07170617       0.41464728       0.90824293
19
Frame=11 idx=009936 GeodesicLength=0.6303855018762871 rxn_smarts="[C:1]([C:2]([C:3]([C:4]1([H:15])[C:5]([H:16])([H:17])[O:6][C:7]1([H:18])[H:19])([H:13])[H:14])([H:11])[H:12])([H:8])([H:9])[H:10]>>[C:1]([C:2]([C:3]([C@:4]([C:5][H:16])([C:7]([O:6][H:17])([H:18])[H:19])[H:15])([H:13])[H:14])([H:11])[H:12])([H:8])([H:9])[H:10]"
C        2.80492645       0.24636839       0.17552511
C        1.46990118      -0.48209406       0.24105290
C        0.27506964       0.46155918       0.29909608
C       -1.05163029      -0.28016294       0.30818233
C       -1.39008034      -0.99385870      -1.00258523
O       -2.74444981       0.03255571      -1.11374854
C       -2.30497060       0.57511153       0.15572457
H        2.86174665       0.88113607      -0.71205435
H        2.94844922       0.88716985       1.04928485
H        3.64124128      -0.45372011       0.13586873
H        1.45041349      -1.14191976       1.11520642
H        1.35937872      -1.12715602      -0.63752152
H        0.30288534       1.13183481      -0.56844846
H        0.34546124       1.09663071       1.19022725
H       -1.10607307      -0.93611966       1.18221823
H       -1.83777673      -1.98274488      -0.86720487
H       -1.81581339       0.03787506      -1.91886279
H       -2.12597004       1.65135697       0.07006651
H       -3.08270895       0.39617784       0.89797278
19
Frame=12 idx=009936 GeodesicLength=0.6883807896338157 rxn_smarts="[C:1]([C:2]([C:3]([C:4]1([H:15])[C:5]([H:16])([H:17])[O:6][C:7]1([H:18])[H:19])([H:13])[H:14])([H:11])[H:12])([H:8])([H:9])[H:10]>>[C:1]([C:2]([C:3]([C@:4]([C:5][H:16])([C:7]([O:6][H:17])([H:18])[H:19])[H:15])([H:13])[H:14])([H:11])[H:12])([H:8])([H:9])[H:10]"
C        2.80293024       0.24782682       0.16954185
C        1.46912469      -0.48210768       0.24322586
C        0.27319432       0.46012524       0.30028361
C       -1.05276628      -0.28278125       0.31378783
C       -1.39734442      -0.99605817      -0.99670539
O       -2.72205739       0.04617159      -1.12471020
C       -2.30599218       0.57235239       0.15917041
H        2.85623703       0.87738301      -0.72197203
H        2.94825340       0.89407942       1.03898347
H        3.64011660      -0.45131025       0.13146286
H        1.45327196      -1.13731193       1.12091452
H        1.35635243      -1.13168774      -0.63166295
H        0.29944403       1.12826515      -0.56908585
H        0.34409057       1.09826859       1.18920151
H       -1.10470981      -0.93860063       1.18786861
H       -1.86306487      -1.97643754      -0.85882547
H       -1.77334023       0.04341339      -1.93158865
H       -2.13018266       1.65051841       0.09284207
H       -3.09355745       0.37789118       0.88726795
19
Frame=13 idx=009936 GeodesicLength=0.7465474157632718 rxn_smarts="[C:1]([C:2]([C:3]([C:4]1([H:15])[C:5]([H:16])([H:17])[O:6][C:7]1([H:18])[H:19])([H:13])[H:14])([H:11])[H:12])([H:8])([H:9])[H:10]>>[C:1]([C:2]([C:3]([C@:4]([C:5][H:16])([C:7]([O:6][H:17])([H:18])[H:19])[H:15])([H:13])[H:14])([H:11])[H:12])([H:8])([H:9])[H:10]"
C        2.80086083       0.24928412       0.16345396
C        1.46831605      -0.48209516       0.24545663
C        0.27129204       0.45870843       0.30165942
C       -1.05392542      -0.28539147       0.31932870
C       -1.40465596      -0.99781599      -0.99113281
O       -2.69950048       0.05982364      -1.13492935
C       -2.30703099       0.56967036       0.16262537
H        2.85058259       0.87347053      -0.73205336
H        2.94799907       0.90110365       1.02843148
H        3.63893525      -0.44887694       0.12698190
H        1.45617479      -1.13262602       1.12667147
H        1.35324371      -1.13620601      -0.62568980
H        0.29601701       1.12489439      -0.56938984
H        0.34263080       1.09975472       1.18847732
H       -1.10343290      -0.94130255       1.19327465
H       -1.88839355      -1.96932931      -0.85111844
H       -1.73041739       0.04750997      -1.94370627
H       -2.13455585       1.64940697       0.11543720
H       -3.10413962       0.36001666       0.87622174
19
Frame=14 idx=009936 GeodesicLength=0.8048609731043166 rxn_smarts="[C:1]([C:2]([C:3]([C:4]1([H:15])[C:5]([H:16])([H:17])[O:6][C:7]1([H:18])[H:19])([H:13])[H:14])([H:11])[H:12])([H:8])([H:9])[H:10]>>[C:1]([C:2]([C:3]([C@:4]([C:5][H:16])([C:7]([O:6][H:17])([H:18])[H:19])[H:15])([H:13])[H:14])([H:11])[H:12])([H:8])([H:9])[H:10]"
C        2.79871614       0.25073759       0.15729984
C        1.46747581      -0.48205248       0.24770976
C        0.26936475       0.45731443       0.30318833
C       -1.05509985      -0.28798537       0.32479656
C       -1.41200995      -0.99915508      -0.98584791
O       -2.67683528       0.07344042      -1.14437966
C       -2.30807754       0.56707240       0.16609138
H        2.84480099       0.86945610      -0.74220692
H        2.94766594       0.90817330       1.01771314
H        3.63769254      -0.44642358       0.12243499
H        1.45910201      -1.12789451       1.13240737
H        1.35007303      -1.14066653      -0.61966588
H        0.29259748       1.12170970      -0.56940561
H        0.34108784       1.10110493       1.18801035
H       -1.10222132      -0.94419861       1.19843665
H       -1.91369540      -1.96146926      -0.84404050
H       -1.68715604       0.05019012      -1.95523462
H       -2.13906378       1.64803624       0.13778951
H       -3.11441735       0.34261019       0.86490322
19
Frame=15 idx=009936 GeodesicLength=0.863286485557846 rxn_smarts="[C:1]([C:2]([C:3]([C:4]1([H:15])[C:5]([H:16])([H:17])[O:6][C:7]1([H:18])[H:19])([H:13])[H:14])([H:11])[H:12])([H:8])([H:9])[H:10]>>[C:1]([C:2]([C:3]([C@:4]([C:5][H:16])([C:7]([O:6][H:17])([H:18])[H:19])[H:15])([H:13])[H:14])([H:11])[H:12])([H:8])([H:9])[H:10]"
C        2.79650743       0.25218636       0.15112189
C        1.46660860      -0.48197551       0.24994999
C        0.26741820       0.45595096       0.30483640
C       -1.05628639      -0.29055301       0.33018193
C       -1.41940900      -1.00008616      -0.98084141
O       -2.65414179       0.08695293      -1.15303371
C       -2.30912974       0.56457017       0.16957031
H        2.83892753       0.86540794      -0.75233898
H        2.94725070       0.91521612       1.00692462
H        3.63639627      -0.44395441       0.11783236
H        1.46203314      -1.12315697       1.13805425
H        1.34686292      -1.14502123      -0.61366067
H        0.28918635       1.11870459      -0.56917897
H        0.33947339       1.10233352       1.18776171
H       -1.10106177      -0.94726758       1.20335433
H       -1.93890096      -1.95289698      -0.83755946
H       -1.64368786       0.05142669      -1.96619837
H       -2.14369096       1.64643178       0.15983273
H       -3.12435605       0.32573078       0.85339104
19
Frame=16 idx=009936 GeodesicLength=0.9217998525369319 rxn_smarts="[C:1]([C:2]([C:3]([C:4]1([H:15])[C:5]([H:16])([H:17])[O:6][C:7]1([H:18])[H:19])([H:13])[H:14])([H:11])[H:12])([H:8])([H:9])[H:10]>>[C:1]([C:2]([C:3]([C@:4]([C:5][H:16])([C:7]([O:6][H:17])([H:18])[H:19])[H:15])([H:13])[H:14])([H:11])[H:12])([H:8])([H:9])[H:10]"
C        2.79424641       0.25363215       0.14495774
C        1.46571735      -0.48186091       0.25214518
C        0.26545822       0.45462606       0.30657278
C       -1.05748359      -0.29308554       0.33547769
C       -1.42685835      -1.00062150      -0.97610577
O       -2.63149500       0.10030543      -1.16087663
C       -2.31018656       0.56217365       0.17306507
H        2.83299563       0.86139349      -0.76236823
H        2.94675623       0.92216997       0.99615649
H        3.63505303      -0.44147274       0.11318067
H        1.46494791      -1.11845147       1.14355312
H        1.34362969      -1.14922868      -0.60774013
H        0.28578467       1.11587418      -0.56875432
H        0.33780188       1.10345566       1.18769801
H       -1.09994366      -0.95049093       1.20803072
H       -1.96395390      -1.94365806      -0.83164410
H       -1.60011654       0.05119325      -1.97662028
H       -2.14842005       1.64461925       0.18151305
H       -3.13393337       0.30942675       0.84175893
