11
Frame=0 idx=011448 GeodesicLength=0.0 rxn_smarts="[N:1]([c:2]1[n:3][n:4]([H:10])[c:5]([O:6][H:11])[n:7]1)([H:8])[H:9]>>[N:1]([C:2]1=[N:3][N:4]=[C:5]=[N:7]1)([H:8])[H:9].[O:6]([H:10])[H:11]"
N        2.31513046       0.36358869       0.12601595
C        0.98195004       0.01995301       0.05287304
N        0.54772178      -1.21513107       0.27434981
N       -0.81430058      -1.08036731       0.19190259
C       -1.00176564       0.16993431      -0.08138980
O       -2.42462200       0.23843853      -0.29475413
N        0.01652867       0.96694368      -0.20353249
H        2.92822675      -0.43059629       0.04213455
H        2.56755883       1.12931136      -0.47557648
H       -2.24414363      -0.89748054      -0.03769255
H       -2.87228470       0.73540562       0.40566955
11
Frame=1 idx=011448 GeodesicLength=0.0489252652233652 rxn_smarts="[N:1]([c:2]1[n:3][n:4]([H:10])[c:5]([O:6][H:11])[n:7]1)([H:8])[H:9]>>[N:1]([C:2]1=[N:3][N:4]=[C:5]=[N:7]1)([H:8])[H:9].[O:6]([H:10])[H:11]"
N        2.31504272       0.36209643       0.12370851
C        0.98222171       0.01742846       0.04874992
N        0.54953889      -1.21938738       0.26045133
N       -0.81400333      -1.08250001       0.20381748
C       -1.00430810       0.17333032      -0.04826747
O       -2.42009539       0.23512614      -0.29915248
N        0.01472840       0.96534884      -0.19396847
H        2.92917619      -0.43004915       0.02895453
H        2.56510946       1.13565481      -0.46876195
H       -2.24305501      -0.91475447      -0.03329828
H       -2.87435554       0.75770602       0.37776688
11
Frame=2 idx=011448 GeodesicLength=0.09775493893572716 rxn_smarts="[N:1]([c:2]1[n:3][n:4]([H:10])[c:5]([O:6][H:11])[n:7]1)([H:8])[H:9]>>[N:1]([C:2]1=[N:3][N:4]=[C:5]=[N:7]1)([H:8])[H:9].[O:6]([H:10])[H:11]"
N        2.31429215       0.36118972       0.12200431
C        0.98194165       0.01517293       0.04492726
N        0.55083425      -1.22313595       0.24781550
N       -0.81375169      -1.08524545       0.21320837
C       -1.00679514       0.17557664      -0.01865787
O       -2.41567100       0.23250174      -0.30129653
N        0.01235297       0.96307652      -0.18693883
H        2.92964339      -0.42883566       0.01803269
H        2.56225507       1.14159808      -0.46228681
H       -2.24205458      -0.93233394      -0.02963813
H       -2.87304707       0.78043536       0.35283004
11
Frame=3 idx=011448 GeodesicLength=0.14662175469684796 rxn_smarts="[N:1]([c:2]1[n:3][n:4]([H:10])[c:5]([O:6][H:11])[n:7]1)([H:8])[H:9]>>[N:1]([C:2]1=[N:3][N:4]=[C:5]=[N:7]1)([H:8])[H:9].[O:6]([H:10])[H:11]"
N        2.31314749       0.36064446       0.12048422
C        0.98127131       0.01318830       0.04181038
N        0.55175358      -1.22641259       0.23678464
N       -0.81355969      -1.08836995       0.22111947
C       -1.00921477       0.17693064       0.00803194
O       -2.41142066       0.23040190      -0.30188361
N        0.00953879       0.96054911      -0.18062999
H        2.92971041      -0.42726878       0.00811273
H        2.55893808       1.14719571      -0.45642095
H       -2.24097231      -0.95036574      -0.02715822
H       -2.86919224       0.80350693       0.32974938
11
Frame=4 idx=011448 GeodesicLength=0.1955234687524024 rxn_smarts="[N:1]([c:2]1[n:3][n:4]([H:10])[c:5]([O:6][H:11])[n:7]1)([H:8])[H:9]>>[N:1]([C:2]1=[N:3][N:4]=[C:5]=[N:7]1)([H:8])[H:9].[O:6]([H:10])[H:11]"
N        2.31178327       0.36024782       0.11887559
C        0.98031413       0.01142506       0.03954250
N        0.55238704      -1.22931532       0.22722380
N       -0.81344578      -1.09165664       0.22861415
C       -1.01160615       0.17763390       0.03272663
O       -2.40729952       0.22864715      -0.30144963
N        0.00640289       0.95799065      -0.17391268
H        2.92941949      -0.42555929      -0.00191003
H        2.55514029       1.15260585      -0.45104872
H       -2.23964284      -0.96893270      -0.02600668
H       -2.86345280       0.82691353       0.30734507
11
Frame=5 idx=011448 GeodesicLength=0.24442452116044266 rxn_smarts="[N:1]([c:2]1[n:3][n:4]([H:10])[c:5]([O:6][H:11])[n:7]1)([H:8])[H:9]>>[N:1]([C:2]1=[N:3][N:4]=[C:5]=[N:7]1)([H:8])[H:9].[O:6]([H:10])[H:11]"
N        2.31028811       0.35986023       0.11698969
C        0.97910788       0.00986610       0.03825853
N        0.55276235      -1.23191243       0.21898808
N       -0.81342290      -1.09497976       0.23635114
C       -1.01400688       0.17786040       0.05623242
O       -2.40319377       0.22712335      -0.30033424
N        0.00301379       0.95556161      -0.16604390
H        2.92874952      -0.42384820      -0.01277855
H        2.55082382       1.15791901      -0.44611453
H       -2.23790381      -0.98807195      -0.02627210
H       -2.85621810       0.85062165       0.28472346
11
Frame=6 idx=011448 GeodesicLength=0.2933711235015695 rxn_smarts="[N:1]([c:2]1[n:3][n:4]([H:10])[c:5]([O:6][H:11])[n:7]1)([H:8])[H:9]>>[N:1]([C:2]1=[N:3][N:4]=[C:5]=[N:7]1)([H:8])[H:9].[O:6]([H:10])[H:11]"
N        2.30864205       0.35947052       0.11496842
C        0.97768058       0.00841691       0.03760951
N        0.55290388      -1.23432318       0.21160149
N       -0.81348246      -1.09834236       0.24448428
C       -1.01646375       0.17767380       0.07871608
O       -2.39925741       0.22576844      -0.29836863
N       -0.00058664       0.95312402      -0.15763635
H        2.92774629      -0.42206899      -0.02438270
H        2.54610587       1.16328996      -0.44118033
H       -2.23576825      -1.00779622      -0.02759082
H       -2.84752014       0.87478707       0.26177904
11
Frame=7 idx=011448 GeodesicLength=0.34236675443630593 rxn_smarts="[N:1]([c:2]1[n:3][n:4]([H:10])[c:5]([O:6][H:11])[n:7]1)([H:8])[H:9]>>[N:1]([C:2]1=[N:3][N:4]=[C:5]=[N:7]1)([H:8])[H:9].[O:6]([H:10])[H:11]"
N        2.30685861       0.35902270       0.11277909
C        0.97603994       0.00704503       0.03758009
N        0.55281024      -1.23658888       0.20500643
N       -0.81362913      -1.10173933       0.25314604
C       -1.01900618       0.17714132       0.10050908
O       -2.39548765       0.22453832      -0.29556535
N       -0.00437529       0.95068318      -0.14859983
H        2.92638245      -0.42023747      -0.03702759
H        2.54098017       1.16880626      -0.43606967
H       -2.23317154      -1.02810941      -0.02986969
H       -2.83740162       0.89943830       0.23811140
11
Frame=8 idx=011448 GeodesicLength=0.391431011909294 rxn_smarts="[N:1]([c:2]1[n:3][n:4]([H:10])[c:5]([O:6][H:11])[n:7]1)([H:8])[H:9]>>[N:1]([C:2]1=[N:3][N:4]=[C:5]=[N:7]1)([H:8])[H:9].[O:6]([H:10])[H:11]"
N        2.30478395       0.35875484       0.11083959
C        0.97419410       0.00562769       0.03708208
N        0.55251146      -1.23882445       0.19837587
N       -0.81384332      -1.10523854       0.26173352
C       -1.02160528       0.17628625       0.12128537
O       -2.39229113       0.22352879      -0.29109152
N       -0.00840793       0.94794952      -0.14076527
H        2.92486582      -0.41810071      -0.04886526
H        2.53576137       1.17435069      -0.43068674
H       -2.23026722      -1.04896382      -0.03266995
H       -2.82570184       0.92462974       0.21476231
11
Frame=9 idx=011448 GeodesicLength=0.44057901806220995 rxn_smarts="[N:1]([c:2]1[n:3][n:4]([H:10])[c:5]([O:6][H:11])[n:7]1)([H:8])[H:9]>>[N:1]([C:2]1=[N:3][N:4]=[C:5]=[N:7]1)([H:8])[H:9].[O:6]([H:10])[H:11]"
N        2.30235995       0.35859162       0.10913076
C        0.97212364       0.00413175       0.03600023
N        0.55196171      -1.24097881       0.19187466
N       -0.81413706      -1.10878414       0.27030340
C       -1.02421945       0.17519154       0.14117068
O       -2.38965239       0.22272277      -0.28483269
N       -0.01264928       0.94488950      -0.13418165
H        2.92311397      -0.41566100      -0.06017722
H        2.53042457       1.17997973      -0.42478788
H       -2.22697754      -1.07035471      -0.03600848
H       -2.81234812       0.95027176       0.19150819
11
Frame=10 idx=011448 GeodesicLength=0.4896862099845042 rxn_smarts="[N:1]([c:2]1[n:3][n:4]([H:10])[c:5]([O:6][H:11])[n:7]1)([H:8])[H:9]>>[N:1]([C:2]1=[N:3][N:4]=[C:5]=[N:7]1)([H:8])[H:9].[O:6]([H:10])[H:11]"
N        2.29971138       0.35848748       0.10746921
C        0.96985201       0.00261127       0.03478613
N        0.55123627      -1.24309872       0.18554574
N       -0.81446627      -1.11238270       0.27904062
C       -1.02691163       0.17385623       0.16062142
O       -2.38758136       0.22212518      -0.27689469
N       -0.01716247       0.94165192      -0.12800524
H        2.92117064      -0.41303956      -0.07142065
H        2.52484367       1.18564832      -0.41868424
H       -2.22314164      -1.09221684      -0.04011744
H       -2.79755060       0.97635742       0.16765914
11
Frame=11 idx=011448 GeodesicLength=0.5388408934820194 rxn_smarts="[N:1]([c:2]1[n:3][n:4]([H:10])[c:5]([O:6][H:11])[n:7]1)([H:8])[H:9]>>[N:1]([C:2]1=[N:3][N:4]=[C:5]=[N:7]1)([H:8])[H:9].[O:6]([H:10])[H:11]"
N        2.29686561       0.35848291       0.10568821
C        0.96738254       0.00113765       0.03372567
N        0.55030097      -1.24507215       0.18002530
N       -0.81492041      -1.11601820       0.28777084
C       -1.02964284       0.17238365       0.17985735
O       -2.38604985       0.22187122      -0.26719048
N       -0.02185689       0.93831656      -0.12194604
H        2.91896282      -0.41027328      -0.08258673
H        2.51901578       1.19117011      -0.41292672
H       -2.21868690      -1.11451915      -0.04577212
H       -2.78137083       1.00252068       0.14335472
11
Frame=12 idx=011448 GeodesicLength=0.5880276027308714 rxn_smarts="[N:1]([c:2]1[n:3][n:4]([H:10])[c:5]([O:6][H:11])[n:7]1)([H:8])[H:9]>>[N:1]([C:2]1=[N:3][N:4]=[C:5]=[N:7]1)([H:8])[H:9].[O:6]([H:10])[H:11]"
N        2.29382461       0.35861918       0.10375634
C        0.96471815      -0.00027644       0.03284522
N        0.54919247      -1.24689080       0.17543103
N       -0.81551384      -1.11968229       0.29637191
C       -1.03242324       0.17081090       0.19898399
O       -2.38513656       0.22203841      -0.25549782
N       -0.02676043       0.93490580      -0.11599878
H        2.91652868      -0.40739086      -0.09343137
H        2.51293703       1.19643039      -0.40781997
H       -2.21350571      -1.13714145      -0.05328567
H       -2.76386116       1.02857714       0.11864514
11
Frame=13 idx=011448 GeodesicLength=0.637353163117654 rxn_smarts="[N:1]([c:2]1[n:3][n:4]([H:10])[c:5]([O:6][H:11])[n:7]1)([H:8])[H:9]>>[N:1]([C:2]1=[N:3][N:4]=[C:5]=[N:7]1)([H:8])[H:9].[O:6]([H:10])[H:11]"
N        2.29055780       0.35893793       0.10173304
C        0.96186835      -0.00166700       0.03194038
N        0.54795675      -1.24859147       0.17183752
N       -0.81624367      -1.12336963       0.30472354
C       -1.03521908       0.16920626       0.21794749
O       -2.38499365       0.22272713      -0.24148765
N       -0.03189841       0.93137594      -0.11058727
H        2.91392060      -0.40440788      -0.10356005
H        2.50662796       1.20138734      -0.40346801
H       -2.20751746      -1.15994325      -0.06287067
H       -2.74505920       1.05434463       0.09379168
11
Frame=14 idx=011448 GeodesicLength=0.6865667287497359 rxn_smarts="[N:1]([c:2]1[n:3][n:4]([H:10])[c:5]([O:6][H:11])[n:7]1)([H:8])[H:9]>>[N:1]([C:2]1=[N:3][N:4]=[C:5]=[N:7]1)([H:8])[H:9].[O:6]([H:10])[H:11]"
N        2.28712837       0.35933870       0.09942273
C        0.95882716      -0.00295231       0.03153326
N        0.54652899      -1.25007300       0.16940422
N       -0.81720269      -1.12699353       0.31287715
C       -1.03803478       0.16758221       0.23712005
O       -2.38536247       0.22391198      -0.22543143
N       -0.03717229       0.92785774      -0.10476579
H        2.91099626      -0.40140848      -0.11371643
H        2.50003480       1.20601361      -0.39998445
H       -2.20067331      -1.18263301      -0.07452770
H       -2.72507004       1.07935609       0.06806838
11
Frame=15 idx=011448 GeodesicLength=0.7358465977456253 rxn_smarts="[N:1]([c:2]1[n:3][n:4]([H:10])[c:5]([O:6][H:11])[n:7]1)([H:8])[H:9]>>[N:1]([C:2]1=[N:3][N:4]=[C:5]=[N:7]1)([H:8])[H:9].[O:6]([H:10])[H:11]"
N        2.28356013       0.35983612       0.09690285
C        0.95563310      -0.00417181       0.03141135
N        0.54497347      -1.25140243       0.16813192
N       -0.81838228      -1.13054973       0.32070062
C       -1.04083458       0.16603369       0.25640003
O       -2.38637335       0.22571321      -0.20719968
N       -0.04258853       0.92435530      -0.09891870
H        2.90784946      -0.39844236      -0.12360601
H        2.49321868       1.21031910      -0.39734773
H       -2.19300344      -1.20499811      -0.08820537
H       -2.70405265       1.10330702       0.04173072
11
Frame=16 idx=011448 GeodesicLength=0.7851516529889591 rxn_smarts="[N:1]([c:2]1[n:3][n:4]([H:10])[c:5]([O:6][H:11])[n:7]1)([H:8])[H:9]>>[N:1]([C:2]1=[N:3][N:4]=[C:5]=[N:7]1)([H:8])[H:9].[O:6]([H:10])[H:11]"
N        2.27986998       0.36038256       0.09422851
C        0.95230086      -0.00532494       0.03144342
N        0.54324850      -1.25258774       0.16761129
N       -0.81981048      -1.13398279       0.32811347
C       -1.04357621       0.16460519       0.27584205
O       -2.38793353       0.22814891      -0.18683840
N       -0.04809009       0.92092036      -0.09295063
H        2.90449359      -0.39552869      -0.13328754
H        2.48627638       1.21436146      -0.39530747
H       -2.18466753      -1.22678191      -0.10330775
H       -2.68211148       1.12578760       0.01445304
