17
Frame=0 idx=011533 GeodesicLength=0.0 rxn_smarts="[C:1]([C@@:2]1([H:11])[N:3]([H:12])[C@:4]1([C@@:5]1([H:14])[C:6]([H:15])([H:16])[N:7]1[H:17])[H:13])([H:8])([H:9])[H:10]>>[C:1]([C@@:2]1([H:11])[N:3]([H:12])[C@:4]1([C:5][C:6]([N:7]([H:14])[H:17])([H:15])[H:16])[H:13])([H:8])([H:9])[H:10]"
C       -2.09892169      -0.93762822      -0.16916985
C       -1.17104627      -0.17574555      -1.07528338
N       -0.91884964       1.24041444      -0.87519615
C        0.17868053       0.28954581      -0.64697644
C        0.62353021       0.00689070       0.73465941
C        2.03055635      -0.41073237       0.85763467
N        2.01376944       1.03312756       1.10970748
H       -3.13779998      -0.70866814      -0.41804997
H       -1.92268577      -0.68995869       0.87732649
H       -1.95593739      -2.01337298      -0.29085141
H       -1.25621470      -0.43761369      -2.12636712
H       -1.29000377       1.51628222       0.02940728
H        0.94564536       0.33540802      -1.42475943
H        0.89312489       1.06963999       1.50910580
H        2.34636798      -0.99934025       1.71310247
H        2.55410765      -0.67609789      -0.05825933
H        2.16567686       1.55784901       0.25396944
17
Frame=1 idx=011533 GeodesicLength=0.052740986059200204 rxn_smarts="[C:1]([C@@:2]1([H:11])[N:3]([H:12])[C@:4]1([C@@:5]1([H:14])[C:6]([H:15])([H:16])[N:7]1[H:17])[H:13])([H:8])([H:9])[H:10]>>[C:1]([C@@:2]1([H:11])[N:3]([H:12])[C@:4]1([C:5][C:6]([N:7]([H:14])[H:17])([H:15])[H:16])[H:13])([H:8])([H:9])[H:10]"
C       -2.10968767      -0.92308443      -0.16216727
C       -1.17298512      -0.18394605      -1.07798722
N       -0.90158907       1.23014461      -0.89359437
C        0.18502069       0.26799005      -0.65876594
C        0.63401076      -0.01822579       0.71885766
C        2.05099666      -0.40158627       0.84405362
N        1.99089502       1.03412513       1.13342013
H       -3.14566717      -0.68607946      -0.41559848
H       -1.93233971      -0.66167521       0.88077015
H       -1.97823198      -2.00188515      -0.26841252
H       -1.26358812      -0.45631920      -2.12595652
H       -1.26539562       1.52130645       0.00913307
H        0.94655544       0.30193707      -1.44228461
H        0.86444608       1.02206081       1.54783343
H        2.37392731      -1.00203537       1.68859386
H        2.59317992      -0.62916467      -0.07121848
H        2.13045259       1.58643746       0.29332350
17
Frame=2 idx=011533 GeodesicLength=0.10547628659862085 rxn_smarts="[C:1]([C@@:2]1([H:11])[N:3]([H:12])[C@:4]1([C@@:5]1([H:14])[C:6]([H:15])([H:16])[N:7]1[H:17])[H:13])([H:8])([H:9])[H:10]>>[C:1]([C@@:2]1([H:11])[N:3]([H:12])[C@:4]1([C:5][C:6]([N:7]([H:14])[H:17])([H:15])[H:16])[H:13])([H:8])([H:9])[H:10]"
C       -2.11978223      -0.90777473      -0.15486250
C       -1.17477134      -0.19206540      -1.08070159
N       -0.88379751       1.21950789      -0.91253545
C        0.19156266       0.24602799      -0.67097831
C        0.64481127      -0.04316511       0.70273611
C        2.07112799      -0.39119035       0.83044563
N        1.96664029       1.03386430       1.15760501
H       -3.15283466      -0.66269282      -0.41257197
H       -1.94066367      -0.63244025       0.88415865
H       -2.00017506      -1.98934152      -0.24540223
H       -1.27133484      -0.47513554      -2.12531470
H       -1.23969592       1.52618968      -0.01185379
H        0.94742438       0.26698708      -1.46023549
H        0.83597606       0.97062987       1.58551985
H        2.40222130      -1.00348717       1.66326936
H        2.63064222      -0.57934903      -0.08340653
H        2.09264910       1.61343510       0.33412796
17
Frame=3 idx=011533 GeodesicLength=0.15820350145504908 rxn_smarts="[C:1]([C@@:2]1([H:11])[N:3]([H:12])[C@:4]1([C@@:5]1([H:14])[C:6]([H:15])([H:16])[N:7]1[H:17])[H:13])([H:8])([H:9])[H:10]>>[C:1]([C@@:2]1([H:11])[N:3]([H:12])[C@:4]1([C:5][C:6]([N:7]([H:14])[H:17])([H:15])[H:16])[H:13])([H:8])([H:9])[H:10]"
C       -2.12916622      -0.89170187      -0.14728221
C       -1.17639029      -0.20007690      -1.08340395
N       -0.86548287       1.20849480      -0.93197693
C        0.19829031       0.22367293      -0.68355685
C        0.65590775      -0.06785559       0.68636248
C        2.09085210      -0.37948445       0.81686558
N        1.94106587       1.03224943       1.18218639
H       -3.15926290      -0.63852137      -0.40900822
H       -1.94763090      -0.60229601       0.88745806
H       -2.02170310      -1.97571642      -0.22187344
H       -1.27943267      -0.49399801      -2.12440802
H       -1.21292868       1.53088121      -0.03353439
H        0.94821842       0.23052473      -1.47851022
H        0.80797631       0.91542006       1.62195012
H        2.43122224      -1.00351657       1.63717114
H        2.66618354      -0.52669668      -0.09473967
H        2.05228107       1.63862071       0.37630014
17
Frame=4 idx=011533 GeodesicLength=0.21093932989742453 rxn_smarts="[C:1]([C@@:2]1([H:11])[N:3]([H:12])[C@:4]1([C@@:5]1([H:14])[C:6]([H:15])([H:16])[N:7]1[H:17])[H:13])([H:8])([H:9])[H:10]>>[C:1]([C@@:2]1([H:11])[N:3]([H:12])[C@:4]1([C:5][C:6]([N:7]([H:14])[H:17])([H:15])[H:16])[H:13])([H:8])([H:9])[H:10]"
C       -2.13780896      -0.87486624      -0.13945594
C       -1.17782936      -0.20795934      -1.08607804
N       -0.84666100       1.19709453      -0.95188423
C        0.20518447       0.20093438      -0.69644227
C        0.66727625      -0.09223489       0.66981316
C        2.11007763      -0.36641805       0.80336709
N        1.91424753       1.02919107       1.20709164
H       -3.16492175      -0.61357489      -0.40495971
H       -1.95323024      -0.57127012       0.89063580
H       -2.04275782      -1.96098731      -0.19787059
H       -1.28785319      -0.51285753      -2.12321341
H       -1.18513336       1.53533541      -0.05589605
H        0.94890444       0.19253438      -1.49699716
H        0.78072487       0.85652340       1.65694679
H        2.46091327      -1.00194794       1.61034663
H        2.69949861      -0.47127703      -0.10515566
H        2.00936860       1.66178015       0.41975196
17
Frame=5 idx=011533 GeodesicLength=0.2636825166834094 rxn_smarts="[C:1]([C@@:2]1([H:11])[N:3]([H:12])[C@:4]1([C@@:5]1([H:14])[C:6]([H:15])([H:16])[N:7]1[H:17])[H:13])([H:8])([H:9])[H:10]>>[C:1]([C@@:2]1([H:11])[N:3]([H:12])[C@:4]1([C:5][C:6]([N:7]([H:14])[H:17])([H:15])[H:16])[H:13])([H:8])([H:9])[H:10]"
C       -2.14565944      -0.85727798      -0.13141155
C       -1.17906930      -0.21568027      -1.08871285
N       -0.82737562       1.18531581      -0.97222774
C        0.21221568       0.17783918      -0.70957159
C        0.67888181      -0.11623061       0.65318133
C        2.12869502      -0.35197079       0.79001529
N        1.88627722       1.02460573       1.23222515
H       -3.16976245      -0.58787397      -0.40048187
H       -1.95744117      -0.53940832       0.89366876
H       -2.06323654      -1.94514723      -0.17343472
H       -1.29654684      -0.53164422      -2.12172147
H       -1.15639615       1.53951672      -0.07892758
H        0.94944166       0.15305223      -1.51557841
H        0.75452341       0.79408244       1.69035799
H        2.49124238      -0.99862371       1.58288776
H        2.73025452      -0.41324012      -0.11460652
H        1.96395581       1.68268512       0.46433802
17
Frame=6 idx=011533 GeodesicLength=0.31648872800795114 rxn_smarts="[C:1]([C@@:2]1([H:11])[N:3]([H:12])[C@:4]1([C@@:5]1([H:14])[C:6]([H:15])([H:16])[N:7]1[H:17])[H:13])([H:8])([H:9])[H:10]>>[C:1]([C@@:2]1([H:11])[N:3]([H:12])[C@:4]1([C:5][C:6]([N:7]([H:14])[H:17])([H:15])[H:16])[H:13])([H:8])([H:9])[H:10]"
C       -2.15271063      -0.83894273      -0.12319187
C       -1.18011403      -0.22323540      -1.09130885
N       -0.80764205       1.17313951      -0.99297183
C        0.21935717       0.15438223      -0.72288857
C        0.69070176      -0.13980239       0.63654435
C        2.14661975      -0.33610084       0.77686360
N        1.85727116       1.01844332       1.25753379
H       -3.17377856      -0.56142751      -0.39563900
H       -1.96026300      -0.50672948       0.89652423
H       -2.08311956      -1.92818865      -0.14863258
H       -1.30551087      -0.55033911      -2.11994034
H       -1.12676059       1.54338602      -0.10260635
H        0.94979419       0.11208763      -1.53413548
H        0.72968463       0.72824609       1.72207258
H        2.52218320      -0.99335760       1.55485505
H        2.75817290      -0.35271473      -0.12305834
H        1.91611455       1.70115363       0.50997962
17
Frame=7 idx=011533 GeodesicLength=0.3695398324587667 rxn_smarts="[C:1]([C@@:2]1([H:11])[N:3]([H:12])[C@:4]1([C@@:5]1([H:14])[C:6]([H:15])([H:16])[N:7]1[H:17])[H:13])([H:8])([H:9])[H:10]>>[C:1]([C@@:2]1([H:11])[N:3]([H:12])[C@:4]1([C:5][C:6]([N:7]([H:14])[H:17])([H:15])[H:16])[H:13])([H:8])([H:9])[H:10]"
C       -2.15900214      -0.81971023      -0.11473406
C       -1.18089684      -0.23067036      -1.09384576
N       -0.78729135       1.16047721      -1.01424458
C        0.22667746       0.13040990      -0.73640581
C        0.70276904      -0.16318454       0.61986742
C        2.16384926      -0.31869972       0.76385350
N        1.82702929       1.01053111       1.28308110
H       -3.17696946      -0.53399840      -0.39042019
H       -1.96175801      -0.47300915       0.89920259
H       -2.10253916      -1.90996293      -0.12322710
H       -1.31466703      -0.56904879      -2.11779185
H       -1.09605274       1.54693997      -0.12711625
H        0.95006432       0.06945673      -1.55260836
H        0.70624944       0.65866522       1.75201184
H        2.55395895      -0.98600030       1.52603409
H        2.78318024      -0.28930586      -0.13053765
H        1.86539873       1.71711012       0.55688106
17
Frame=8 idx=011533 GeodesicLength=0.42259074599774604 rxn_smarts="[C:1]([C@@:2]1([H:11])[N:3]([H:12])[C@:4]1([C@@:5]1([H:14])[C:6]([H:15])([H:16])[N:7]1[H:17])[H:13])([H:8])([H:9])[H:10]>>[C:1]([C@@:2]1([H:11])[N:3]([H:12])[C@:4]1([C:5][C:6]([N:7]([H:14])[H:17])([H:15])[H:16])[H:13])([H:8])([H:9])[H:10]"
C       -2.16447003      -0.79963852      -0.10617999
C       -1.18143622      -0.23796601      -1.09625506
N       -0.76635362       1.14722513      -1.03583366
C        0.23409111       0.10598026      -0.74994068
C        0.71500176      -0.18617687       0.60325206
C        2.18015392      -0.29968123       0.75105999
N        1.79583763       1.00084367       1.30865985
H       -3.17923821      -0.50571525      -0.38496256
H       -1.96181234      -0.43841053       0.90150927
H       -2.12145310      -1.89041108      -0.09750962
H       -1.32403787      -0.58767595      -2.11514617
H       -1.06431399       1.54995113      -0.15233197
H        0.95010961       0.02536027      -1.57064931
H        0.68478381       0.58565815       1.77996842
H        2.58624309      -0.97612277       1.49659153
H        2.80468090      -0.22335985      -0.13697149
H        1.81221353       1.73013944       0.60473940
17
Frame=9 idx=011533 GeodesicLength=0.47583290948256607 rxn_smarts="[C:1]([C@@:2]1([H:11])[N:3]([H:12])[C@:4]1([C@@:5]1([H:14])[C:6]([H:15])([H:16])[N:7]1[H:17])[H:13])([H:8])([H:9])[H:10]>>[C:1]([C@@:2]1([H:11])[N:3]([H:12])[C@:4]1([C:5][C:6]([N:7]([H:14])[H:17])([H:15])[H:16])[H:13])([H:8])([H:9])[H:10]"
C       -2.16906218      -0.77882539      -0.09750329
C       -1.18171984      -0.24503747      -1.09861628
N       -0.74501859       1.13359648      -1.05777999
C        0.24156609       0.08120205      -0.76351565
C        0.72734680      -0.20870266       0.58684827
C        2.19542370      -0.27923409       0.73862813
N        1.76388146       0.98939677       1.33415088
H       -3.18060604      -0.47665602      -0.37923452
H       -1.96045133      -0.40309467       0.90360306
H       -2.13960520      -1.86974044      -0.07151440
H       -1.33350936      -0.60609731      -2.11221170
H       -1.03191030       1.55261295      -0.17820610
H        0.94998384      -0.01998988      -1.58832700
H        0.66557111       0.50973038       1.80592497
H        2.61891414      -0.96383276       1.46683753
H        2.82251913      -0.15547688      -0.14233985
H        1.75667657       1.74014894       0.65325596
17
Frame=10 idx=011533 GeodesicLength=0.5293690565962872 rxn_smarts="[C:1]([C@@:2]1([H:11])[N:3]([H:12])[C@:4]1([C@@:5]1([H:14])[C:6]([H:15])([H:16])[N:7]1[H:17])[H:13])([H:8])([H:9])[H:10]>>[C:1]([C@@:2]1([H:11])[N:3]([H:12])[C@:4]1([C:5][C:6]([N:7]([H:14])[H:17])([H:15])[H:16])[H:13])([H:8])([H:9])[H:10]"
C       -2.17278979      -0.75714663      -0.08869848
C       -1.18172751      -0.25192086      -1.10091351
N       -0.72318645       1.11946311      -1.08014937
C        0.24912241       0.05595822      -0.77710758
C        0.73983130      -0.23092342       0.57063858
C        2.20960835      -0.25725031       0.72654722
N        1.73108111       0.97605746       1.35958017
H       -3.18105266      -0.44663986      -0.37326203
H       -1.95763622      -0.36691691       0.90542607
H       -2.15710029      -1.84777835      -0.04513736
H       -1.34308440      -0.62438157      -2.10891056
H       -0.99871196       1.55484178      -0.20486981
H        0.94971613      -0.06665125      -1.60552379
H        0.64882084       0.43068144       1.82981850
H        2.65204819      -0.94886711       1.43670388
H        2.83649916      -0.08545587      -0.14665078
H        1.69856178       1.74693012       0.70250887
17
Frame=11 idx=011533 GeodesicLength=0.583032555992861 rxn_smarts="[C:1]([C@@:2]1([H:11])[N:3]([H:12])[C@:4]1([C@@:5]1([H:14])[C:6]([H:15])([H:16])[N:7]1[H:17])[H:13])([H:8])([H:9])[H:10]>>[C:1]([C@@:2]1([H:11])[N:3]([H:12])[C@:4]1([C:5][C:6]([N:7]([H:14])[H:17])([H:15])[H:16])[H:13])([H:8])([H:9])[H:10]"
C       -2.17559183      -0.73460240      -0.07984766
C       -1.18146618      -0.25862728      -1.10310358
N       -0.70080701       1.10471092      -1.10281282
C        0.25670169       0.03023978      -0.79061577
C        0.75240071      -0.25279946       0.55462845
C        2.22248283      -0.23365639       0.71486939
N        1.69759839       0.96078665       1.38482864
H       -3.18046274      -0.41567785      -0.36709360
H       -1.95320573      -0.32995439       0.90685328
H       -2.17395938      -1.82444474      -0.01854815
H       -1.35281599      -0.64250907      -2.10514590
H       -0.96462099       1.55648700      -0.23225958
H        0.94920351      -0.11448313      -1.62201782
H        0.63494756       0.34873785       1.85144991
H        2.68532626      -0.93087179       1.40626876
H        2.84619754      -0.01349991      -0.14981565
H        1.63807138       1.75016421       0.75236210
17
Frame=12 idx=011533 GeodesicLength=0.636968256889409 rxn_smarts="[C:1]([C@@:2]1([H:11])[N:3]([H:12])[C@:4]1([C@@:5]1([H:14])[C:6]([H:15])([H:16])[N:7]1[H:17])[H:13])([H:8])([H:9])[H:10]>>[C:1]([C@@:2]1([H:11])[N:3]([H:12])[C@:4]1([C:5][C:6]([N:7]([H:14])[H:17])([H:15])[H:16])[H:13])([H:8])([H:9])[H:10]"
C       -2.17742910      -0.71125147      -0.07093079
C       -1.18093369      -0.26507876      -1.10523024
N       -0.67805556       1.08948019      -1.12579843
C        0.26428683       0.00413720      -0.80404406
C        0.76502738      -0.27431486       0.53891621
C        2.23395279      -0.20863574       0.70371840
N        1.66357450       0.94360825       1.40976941
H       -3.17886907      -0.38381540      -0.36070769
H       -1.94715739      -0.29235059       0.90797759
H       -2.18997691      -1.79985831       0.00823641
H       -1.36261747      -0.66036889      -2.10102309
H       -0.92993292       1.55766577      -0.26036267
H        0.94852185      -0.16323485      -1.63782939
H        0.62418148       0.26436325       1.87079924
H        2.71859842      -0.90993428       1.37583773
H        2.85152381       0.05985776      -0.15182336
H        1.57530504       1.74973072       0.80249472
17
Frame=13 idx=011533 GeodesicLength=0.6909653015090695 rxn_smarts="[C:1]([C@@:2]1([H:11])[N:3]([H:12])[C@:4]1([C@@:5]1([H:14])[C:6]([H:15])([H:16])[N:7]1[H:17])[H:13])([H:8])([H:9])[H:10]>>[C:1]([C@@:2]1([H:11])[N:3]([H:12])[C@:4]1([C:5][C:6]([N:7]([H:14])[H:17])([H:15])[H:16])[H:13])([H:8])([H:9])[H:10]"
C       -2.17827829      -0.68714753      -0.06201782
C       -1.18012801      -0.27124714      -1.10719178
N       -0.65489864       1.07367468      -1.14890125
C        0.27184932      -0.02226839      -0.81725962
C        0.77762372      -0.29538797       0.52346569
C        2.24380484      -0.18216785       0.69314545
N        1.62918763       0.92451379       1.43416722
H       -3.17622201      -0.35119378      -0.35412556
H       -1.93941746      -0.25427478       0.90863713
H       -2.20517509      -1.77396066       0.03506752
H       -1.37248911      -0.67786796      -2.09633185
H       -0.89458064       1.55819194      -0.28907303
H        0.94765681      -0.21260535      -1.65268786
H        0.61673776       0.17797072       1.88752891
H        2.75138789      -0.88582555       1.34549795
H        2.85228510       0.13427056      -0.15253825
H        1.51065617       1.74532527       0.85261714
17
Frame=14 idx=011533 GeodesicLength=0.7455069450710176 rxn_smarts="[C:1]([C@@:2]1([H:11])[N:3]([H:12])[C@:4]1([C@@:5]1([H:14])[C:6]([H:15])([H:16])[N:7]1[H:17])[H:13])([H:8])([H:9])[H:10]>>[C:1]([C@@:2]1([H:11])[N:3]([H:12])[C@:4]1([C:5][C:6]([N:7]([H:14])[H:17])([H:15])[H:16])[H:13])([H:8])([H:9])[H:10]"
C       -2.17804872      -0.66221933      -0.05302575
C       -1.17900959      -0.27713781      -1.10910170
N       -0.63132639       1.05736374      -1.17227704
C        0.27939821      -0.04911011      -0.83038885
C        0.79024794      -0.31625471       0.50831278
C        2.25192691      -0.15437072       0.68321529
N        1.59431927       0.90354568       1.45809843
H       -3.17239895      -0.31744976      -0.34717734
H       -1.92977845      -0.21580426       0.90908833
H       -2.21952598      -1.74680312       0.06192290
H       -1.38241174      -0.69500799      -2.09132078
H       -0.85854447       1.55821282      -0.31842079
H        0.94663494      -0.26268133      -1.66685267
H        0.61279818       0.08968820       1.90186491
H        2.78370831      -0.85846183       1.31552892
H        2.84826803       0.20958636      -0.15209809
H        1.44374249       1.73690419       0.90263144
17
Frame=15 idx=011533 GeodesicLength=0.8004406561613734 rxn_smarts="[C:1]([C@@:2]1([H:11])[N:3]([H:12])[C@:4]1([C@@:5]1([H:14])[C:6]([H:15])([H:16])[N:7]1[H:17])[H:13])([H:8])([H:9])[H:10]>>[C:1]([C@@:2]1([H:11])[N:3]([H:12])[C@:4]1([C:5][C:6]([N:7]([H:14])[H:17])([H:15])[H:16])[H:13])([H:8])([H:9])[H:10]"
C       -2.17672408      -0.63656669      -0.04401553
C       -1.17761057      -0.28270275      -1.11088108
N       -0.60741407       1.04052272      -1.19573230
C        0.28689454      -0.07626061      -0.84332792
C        0.80284643      -0.33682607       0.49341982
C        2.25816648      -0.12528081       0.67403241
N        1.55916958       0.88075781       1.48131397
H       -3.16739520      -0.28275828      -0.33987551
H       -1.91817579      -0.17719264       0.90922046
H       -2.23301985      -1.71841466       0.08864375
H       -1.39243397      -0.71165401      -2.08582914
H       -0.82182365       1.55759348      -0.34827225
H        0.94542871      -0.31313111      -1.68012977
H        0.61247088       0.00011806       1.91347319
H        2.81508436      -0.82778179       1.28611979
H        2.83946176       0.28532846      -0.15031291
H        1.37507444       1.72424892       0.95215300
17
Frame=16 idx=011533 GeodesicLength=0.8562953124908093 rxn_smarts="[C:1]([C@@:2]1([H:11])[N:3]([H:12])[C@:4]1([C@@:5]1([H:14])[C:6]([H:15])([H:16])[N:7]1[H:17])[H:13])([H:8])([H:9])[H:10]>>[C:1]([C@@:2]1([H:11])[N:3]([H:12])[C@:4]1([C:5][C:6]([N:7]([H:14])[H:17])([H:15])[H:16])[H:13])([H:8])([H:9])[H:10]"
C       -2.17420991      -0.60997217      -0.03489177
C       -1.17588112      -0.28797706      -1.11255502
N       -0.58299964       1.02303346      -1.21943736
C        0.29439001      -0.10393866      -0.85618578
C        0.81553862      -0.35741767       0.47867669
C        2.26239748      -0.09483078       0.66559218
N        1.52346544       0.85598089       1.50389938
H       -3.16104240      -0.24664748      -0.33206165
H       -1.90435200      -0.13830219       0.90914561
H       -2.24572690      -1.68857831       0.11537722
H       -1.40260366      -0.72788818      -2.07985817
H       -0.78410649       1.55630946      -0.37879354
H        0.94407122      -0.36418413      -1.69266917
H        0.61589551      -0.09099668       1.92235554
H        2.84557873      -0.79344494       1.25730601
H        2.82557487       0.36180647      -0.14718795
H        1.30401024       1.70704798       1.00128776
