11
Frame=0 idx=004177 GeodesicLength=0.0 rxn_smarts="[O:1]([C:2]([C@@:3]([O:4][H:11])([C:5]#[N:6])[H:10])([H:8])[H:9])[H:7]>>[H:7][H:9].[O:1]=[C:2]([C@@:3]([O:4][H:11])([C:5]#[N:6])[H:10])[H:8]"
O        1.78953623       0.56995989       0.30416850
C        0.81576579      -0.14751593      -0.22595224
C       -0.59314347       0.25728744       0.26421127
O       -0.70578126       1.61563225      -0.02738817
C       -1.64298461      -0.50340216      -0.42013977
N       -2.41338649      -1.16746897      -0.94848550
H        1.55286496      -0.84669846       0.53242059
H        0.85381451      -0.40192030      -1.29741152
H        0.86811923      -1.44131336       0.23688801
H       -0.66532679       0.05983894       1.34166488
H        0.14052193       2.00560061       0.24002390
11
Frame=1 idx=004177 GeodesicLength=0.10156361567843868 rxn_smarts="[O:1]([C:2]([C@@:3]([O:4][H:11])([C:5]#[N:6])[H:10])([H:8])[H:9])[H:7]>>[H:7][H:9].[O:1]=[C:2]([C@@:3]([O:4][H:11])([C:5]#[N:6])[H:10])[H:8]"
O        1.78763963       0.55518210       0.31816600
C        0.81168659      -0.14762330      -0.22523219
C       -0.59521403       0.26378479       0.26193067
O       -0.71214053       1.62053525      -0.03870482
C       -1.64442395      -0.50253492      -0.41720884
N       -2.41430785      -1.17098172      -0.94076973
H        1.57537379      -0.86931837       0.53811682
H        0.85345576      -0.38139645      -1.30117498
H        0.87769041      -1.45929164       0.22846280
H       -0.66770742       0.07378084       1.34062402
H        0.12794758       2.01786343       0.23579026
11
Frame=2 idx=004177 GeodesicLength=0.20292734470977813 rxn_smarts="[O:1]([C:2]([C@@:3]([O:4][H:11])([C:5]#[N:6])[H:10])([H:8])[H:9])[H:7]>>[H:7][H:9].[O:1]=[C:2]([C@@:3]([O:4][H:11])([C:5]#[N:6])[H:10])[H:8]"
O        1.78542608       0.53976728       0.33237466
C        0.80737630      -0.14764622      -0.22465862
C       -0.59743327       0.27044310       0.25956742
O       -0.71862236       1.62549888      -0.05018779
C       -1.64589873      -0.50165288      -0.41427776
N       -2.41554756      -1.17426276      -0.93286568
H        1.59876911      -0.89238021       0.54399002
H        0.85327052      -0.36073317      -1.30464306
H        0.88787475      -1.47726625       0.21979576
H       -0.67021755       0.08792380       1.33945539
H        0.11500271       2.03030844       0.23144964
11
Frame=3 idx=004177 GeodesicLength=0.30419522848038316 rxn_smarts="[O:1]([C:2]([C@@:3]([O:4][H:11])([C:5]#[N:6])[H:10])([H:8])[H:9])[H:7]>>[H:7][H:9].[O:1]=[C:2]([C@@:3]([O:4][H:11])([C:5]#[N:6])[H:10])[H:8]"
O        1.78287463       0.52364271       0.34677612
C        0.80281421      -0.14757210      -0.22426927
C       -0.59981113       0.27726621       0.25711192
O       -0.72523616       1.63052917      -0.06182882
C       -1.64742524      -0.50074684      -0.41134723
N       -2.41712282      -1.17728860      -0.92477477
H        1.62311388      -0.91590762       0.55014143
H        0.85323503      -0.33991913      -1.30785136
H        0.89874182      -1.49520497       0.21089502
H       -0.67285696       0.10226354       1.33814801
H        0.10167274       2.04293763       0.22699895
11
Frame=4 idx=004177 GeodesicLength=0.40544678298096076 rxn_smarts="[O:1]([C:2]([C@@:3]([O:4][H:11])([C:5]#[N:6])[H:10])([H:8])[H:9])[H:7]>>[H:7][H:9].[O:1]=[C:2]([C@@:3]([O:4][H:11])([C:5]#[N:6])[H:10])[H:8]"
O        1.77996025       0.50672478       0.36134230
C        0.79797915      -0.14738731      -0.22410718
C       -0.60235842       0.28425872       0.25455464
O       -0.73199238       1.63563407      -0.07361701
C       -1.64902184      -0.49980513      -0.40841779
N       -2.41905665      -1.18003393      -0.91649956
H        1.64847083      -0.93992785       0.55668372
H        0.85332989      -0.31893901      -1.31083743
H        0.91037152      -1.51307032       0.20177167
H       -0.67562215       0.11679363       1.33669109
H        0.08793979       2.05575235       0.22243555
11
Frame=5 idx=004177 GeodesicLength=0.5067189986444038 rxn_smarts="[O:1]([C:2]([C@@:3]([O:4][H:11])([C:5]#[N:6])[H:10])([H:8])[H:9])[H:7]>>[H:7][H:9].[O:1]=[C:2]([C@@:3]([O:4][H:11])([C:5]#[N:6])[H:10])[H:8]"
O        1.77666124       0.48892384       0.37604642
C        0.79284198      -0.14708119      -0.22421710
C       -0.60508833       0.29142327       0.25188383
O       -0.73890129       1.64082089      -0.08554077
C       -1.65071038      -0.49881471      -0.40549269
N       -2.42137505      -1.18247168      -0.90804334
H        1.67491148      -0.96445199       0.56373063
H        0.85352871      -0.29778620      -1.31364024
H        0.92284829      -1.53081748       0.19243774
H       -0.67851302       0.13150396       1.33507179
H        0.07379636       2.06875129       0.21776372
11
Frame=6 idx=004177 GeodesicLength=0.6080897821966417 rxn_smarts="[O:1]([C:2]([C@@:3]([O:4][H:11])([C:5]#[N:6])[H:10])([H:8])[H:9])[H:7]>>[H:7][H:9].[O:1]=[C:2]([C@@:3]([O:4][H:11])([C:5]#[N:6])[H:10])[H:8]"
O        1.77294466       0.47012754       0.39083207
C        0.78738152      -0.14663346      -0.22465687
C       -0.60801208       0.29876503       0.24908566
O       -0.74597897       1.64610129      -0.09758400
C       -1.65251168      -0.49776203      -0.40257695
N       -2.42410990      -1.18456831      -0.89940470
H        1.70249977      -0.98952160       0.57143855
H        0.85380917      -0.27642824      -1.31631016
H        0.93627814      -1.54839958       0.18291467
H       -0.68151816       0.14638173       1.33327552
H        0.05921753       2.08193762       0.21298620
11
Frame=7 idx=004177 GeodesicLength=0.7095902042145626 rxn_smarts="[O:1]([C:2]([C@@:3]([O:4][H:11])([C:5]#[N:6])[H:10])([H:8])[H:9])[H:7]>>[H:7][H:9].[O:1]=[C:2]([C@@:3]([O:4][H:11])([C:5]#[N:6])[H:10])[H:8]"
O        1.76877959       0.45022664       0.40564820
C        0.78156846      -0.14603220      -0.22547500
C       -0.61114301       0.30628863       0.24614702
O       -0.75323861       1.65148606      -0.10973511
C       -1.65445162      -0.49662898      -0.39967346
N       -2.42729062      -1.18629483      -0.89058575
H        1.73131986      -1.01515246       0.57994643
H        0.85414749      -0.25484338      -1.31888603
H        0.95075122      -1.56578015       0.17321336
H       -0.68463224       0.16141658       1.33128881
H        0.04418949       2.09531409       0.20811154
11
Frame=8 idx=004177 GeodesicLength=0.8112364420646686 rxn_smarts="[O:1]([C:2]([C@@:3]([O:4][H:11])([C:5]#[N:6])[H:10])([H:8])[H:9])[H:7]>>[H:7][H:9].[O:1]=[C:2]([C@@:3]([O:4][H:11])([C:5]#[N:6])[H:10])[H:8]"
O        1.76413303       0.42907962       0.42041485
C        0.77536936      -0.14525403      -0.22674108
C       -0.61449530       0.31399988       0.24305085
O       -0.76069919       1.65698998      -0.12197342
C       -1.65655363      -0.49539911      -0.39678883
N       -2.43095457      -1.18761733      -0.88158444
H        1.76142639      -1.04139722       0.58944022
H        0.85451231      -0.23299212      -1.32142544
H        0.96640907      -1.58288329       0.16336217
H       -0.68784075       0.17659175       1.32909331
H        0.02869327       2.10888186       0.20315181
11
Frame=9 idx=004177 GeodesicLength=0.9131469836476321 rxn_smarts="[O:1]([C:2]([C@@:3]([O:4][H:11])([C:5]#[N:6])[H:10])([H:8])[H:9])[H:7]>>[H:7][H:9].[O:1]=[C:2]([C@@:3]([O:4][H:11])([C:5]#[N:6])[H:10])[H:8]"
O        1.75889632       0.40643999       0.43502270
C        0.76872932      -0.14428253      -0.22855487
C       -0.61809820       0.32190805       0.23978353
O       -0.76837462       1.66263716      -0.13426917
C       -1.65888204      -0.49402885      -0.39392128
N       -2.43519782      -1.18847121      -0.87243607
H        1.79296861      -1.06824394       0.60018398
H        0.85487211      -0.21090575      -1.32400725
H        0.98350048      -1.59957995       0.15337752
H       -0.69112687       0.19187756       1.32667513
H        0.01271271       2.12264946       0.19814579
11
Frame=10 idx=004177 GeodesicLength=1.0150971271762022 rxn_smarts="[O:1]([C:2]([C@@:3]([O:4][H:11])([C:5]#[N:6])[H:10])([H:8])[H:9])[H:7]>>[H:7][H:9].[O:1]=[C:2]([C@@:3]([O:4][H:11])([C:5]#[N:6])[H:10])[H:8]"
O        1.75308523       0.38227988       0.44939086
C        0.76166035      -0.14310948      -0.23092916
C       -0.62193796       0.33001167       0.23633106
O       -0.77628194       1.66842981      -0.14661767
C       -1.66142515      -0.49252039      -0.39107687
N       -2.43999164      -1.18885563      -0.86309827
H        1.82588899      -1.09575208       0.61227433
H        0.85521492      -0.18845362      -1.32664170
H        1.00202606      -1.61591969       0.14326854
H       -0.69446467       0.20727357       1.32402223
H       -0.00377418       2.13661597       0.19307665
11
Frame=11 idx=004177 GeodesicLength=1.117020721355751 rxn_smarts="[O:1]([C:2]([C@@:3]([O:4][H:11])([C:5]#[N:6])[H:10])([H:8])[H:9])[H:7]>>[H:7][H:9].[O:1]=[C:2]([C@@:3]([O:4][H:11])([C:5]#[N:6])[H:10])[H:8]"
O        1.74665477       0.35646155       0.46343336
C        0.75413855      -0.14172717      -0.23392570
C       -0.62602059       0.33831302       0.23268206
O       -0.78443623       1.67438209      -0.15899655
C       -1.66421028      -0.49084974      -0.38825182
N       -2.44537718      -1.18873426      -0.85357789
H        1.86022890      -1.12391596       0.62589246
H        0.85550889      -0.16561122      -1.32938008
H        1.02211758      -1.63186493       0.13304008
H       -0.69782517       0.22276018       1.32112474
H       -0.02077923       2.15078646       0.18795933
11
Frame=12 idx=004177 GeodesicLength=1.2188614665051738 rxn_smarts="[O:1]([C:2]([C@@:3]([O:4][H:11])([C:5]#[N:6])[H:10])([H:8])[H:9])[H:7]>>[H:7][H:9].[O:1]=[C:2]([C@@:3]([O:4][H:11])([C:5]#[N:6])[H:10])[H:8]"
O        1.73955837       0.32883875       0.47702034
C        0.74615325      -0.14012111      -0.23761172
C       -0.63034420       0.34681596       0.22882117
O       -0.79285705       1.68050908      -0.17138561
C       -1.66725707      -0.48899761      -0.38544644
N       -2.45138625      -1.18807763      -0.84385508
H        1.89597080      -1.15276074       0.64125218
H        0.85573880      -0.14230123      -1.33226768
H        1.04391807      -1.64739215       0.12269375
H       -0.70116525       0.23831963       1.31797021
H       -0.03832946       2.16516704       0.18280888
11
Frame=13 idx=004177 GeodesicLength=1.3205867152740396 rxn_smarts="[O:1]([C:2]([C@@:3]([O:4][H:11])([C:5]#[N:6])[H:10])([H:8])[H:9])[H:7]>>[H:7][H:9].[O:1]=[C:2]([C@@:3]([O:4][H:11])([C:5]#[N:6])[H:10])[H:8]"
O        1.73174365       0.29928541       0.49003597
C        0.73768098      -0.13830058      -0.24202793
C       -0.63490837       0.35552022       0.22473748
O       -0.80155010       1.68682042      -0.18377089
C       -1.67059034      -0.48693745      -0.38265520
N       -2.45804801      -1.18685422      -0.83391895
H        1.93313298      -1.18223887       0.65854654
H        0.85588564      -0.11848384      -1.33532153
H        1.06753614      -1.66250841       0.11218211
H       -0.70445160       0.25393685       1.31454863
H       -0.05643097       2.17976046       0.17764378
11
Frame=14 idx=004177 GeodesicLength=1.4221829614445196 rxn_smarts="[O:1]([C:2]([C@@:3]([O:4][H:11])([C:5]#[N:6])[H:10])([H:8])[H:9])[H:7]>>[H:7][H:9].[O:1]=[C:2]([C@@:3]([O:4][H:11])([C:5]#[N:6])[H:10])[H:8]"
O        1.72315220       0.26766355       0.50231257
C        0.72872952      -0.13624903      -0.24722588
C       -0.63970103       0.36443407       0.22042140
O       -0.81053529       1.69333275      -0.19613601
C       -1.67422240      -0.48464710      -0.37986862
N       -2.46537842      -1.18505228      -0.82373605
H        1.97163083      -1.21235837       0.67799996
H        0.85595735      -0.09407737      -1.33855965
H        1.09311289      -1.67723652       0.10145547
H       -0.70762439       0.26960417       1.31085520
H       -0.07512125       2.19458612       0.17248161
11
Frame=15 idx=004177 GeodesicLength=1.5236598590971973 rxn_smarts="[O:1]([C:2]([C@@:3]([O:4][H:11])([C:5]#[N:6])[H:10])([H:8])[H:9])[H:7]>>[H:7][H:9].[O:1]=[C:2]([C@@:3]([O:4][H:11])([C:5]#[N:6])[H:10])[H:8]"
O        1.71372593       0.23386618       0.51369456
C        0.71930265      -0.13396873      -0.25323357
C       -0.64470568       0.37356098       0.21586888
O       -0.81982169       1.70005639      -0.20846863
C       -1.67816192      -0.48210292      -0.37706922
N       -2.47338710      -1.18265834      -0.81327143
H        2.01136588      -1.24306480       0.69983022
H        0.85596470      -0.06903644      -1.34197421
H        1.12076645      -1.69162598       0.09039662
H       -0.71062526       0.28531604       1.30688827
H       -0.09442396       2.20965761       0.16733851
11
Frame=16 idx=004177 GeodesicLength=1.6250702710350737 rxn_smarts="[O:1]([C:2]([C@@:3]([O:4][H:11])([C:5]#[N:6])[H:10])([H:8])[H:9])[H:7]>>[H:7][H:9].[O:1]=[C:2]([C@@:3]([O:4][H:11])([C:5]#[N:6])[H:10])[H:8]"
O        1.70340574       0.19780040       0.52399142
C        0.70942611      -0.13145119      -0.26007558
C       -0.64989335       0.38290749       0.21107700
O       -0.82941849       1.70700064      -0.22076091
C       -1.68240700      -0.47928544      -0.37423325
N       -2.48206849      -1.17968792      -0.80245551
H        2.05213340      -1.27431565       0.72429594
H        0.85594565      -0.04328119      -1.34554100
H        1.15062536      -1.70575431       0.07882659
H       -0.71337528       0.30107387       1.30264970
H       -0.11437365       2.22499330       0.16222561
