15
Frame=0 idx=004847 GeodesicLength=0.0 rxn_smarts="[C:1]([C:2]([C@@:3]([C:4]([H:12])([H:13])[H:14])([O:5][H:15])[H:11])([H:9])[H:10])([H:6])([H:7])[H:8]>>[C:1]([C:2]([C:3](=[O:5])[H:11])([H:9])[H:10])([H:6])([H:7])[H:8].[C:4]([H:12])([H:13])([H:14])[H:15]"
C        2.10670723       0.04800776      -0.05274723
C        0.69629916      -0.51706279       0.09471152
C       -0.28489413       0.60928338      -0.13008063
C       -1.99933195      -0.28775960      -0.02175920
O       -0.35090536       1.58075300       0.76717142
H        2.26365334       0.85862320       0.65867388
H        2.27489454       0.43944861      -1.05873312
H        2.85036453      -0.72724288       0.13369193
H        0.52460312      -1.32479446      -0.62143520
H        0.55319948      -0.90807847       1.10396475
H       -0.36324835       0.90214498      -1.19080895
H       -2.00978000      -0.63068713      -1.05153607
H       -1.92775156      -1.11304527       0.68172384
H       -2.92198517       0.28408095       0.14392952
H       -1.41182488       0.78632866       0.54323355
15
Frame=1 idx=004847 GeodesicLength=0.09320211269541881 rxn_smarts="[C:1]([C:2]([C@@:3]([C:4]([H:12])([H:13])[H:14])([O:5][H:15])[H:11])([H:9])[H:10])([H:6])([H:7])[H:8]>>[C:1]([C:2]([C:3](=[O:5])[H:11])([H:9])[H:10])([H:6])([H:7])[H:8].[C:4]([H:12])([H:13])([H:14])[H:15]"
C        2.11476478       0.04589786      -0.05903384
C        0.70349086      -0.51304963       0.10084216
C       -0.28080170       0.61036649      -0.12425962
C       -2.01001721      -0.28800232      -0.02579222
O       -0.35277712       1.57619666       0.77737884
H        2.28081923       0.85845631       0.64817545
H        2.27688836       0.43339805      -1.06756665
H        2.85717611      -0.73137913       0.12403094
H        0.52449102      -1.32335701      -0.61078210
H        0.56504211      -0.90071239       1.11208494
H       -0.34808046       0.91349076      -1.18312349
H       -2.01033313      -0.63850337      -1.05361511
H       -1.94364938      -1.11313859       0.67888339
H       -2.94144761       0.27350519       0.12262819
H       -1.43556585       0.79683111       0.56014912
15
Frame=2 idx=004847 GeodesicLength=0.18629915061994512 rxn_smarts="[C:1]([C:2]([C@@:3]([C:4]([H:12])([H:13])[H:14])([O:5][H:15])[H:11])([H:9])[H:10])([H:6])([H:7])[H:8]>>[C:1]([C:2]([C:3](=[O:5])[H:11])([H:9])[H:10])([H:6])([H:7])[H:8].[C:4]([H:12])([H:13])([H:14])[H:15]"
C        2.12291419       0.04374092      -0.06537473
C        0.71088838      -0.50904336       0.10688098
C       -0.27645613       0.61141894      -0.11867716
C       -2.02075265      -0.28799788      -0.02983783
O       -0.35516500       1.57117372       0.78766998
H        2.29797547       0.85830637       0.63742978
H        2.27902351       0.42714021      -1.07645329
H        2.86404624      -0.73553582       0.11449464
H        0.52451176      -1.32193251      -0.60008059
H        0.57714089      -0.89327961       1.12011277
H       -0.33270122       0.92502439      -1.17537837
H       -2.01098618      -0.64638191      -1.05545033
H       -1.95968036      -1.11302040       0.67597070
H       -2.96068097       0.26284376       0.10114440
H       -1.46007791       0.80754319       0.57754904
15
Frame=3 idx=004847 GeodesicLength=0.27933981681389897 rxn_smarts="[C:1]([C:2]([C@@:3]([C:4]([H:12])([H:13])[H:14])([O:5][H:15])[H:11])([H:9])[H:10])([H:6])([H:7])[H:8]>>[C:1]([C:2]([C:3](=[O:5])[H:11])([H:9])[H:10])([H:6])([H:7])[H:8].[C:4]([H:12])([H:13])([H:14])[H:15]"
C        2.13116829       0.04153514      -0.07176509
C        0.71850259      -0.50504695       0.11281512
C       -0.27183486       0.61244005      -0.11337555
C       -2.03154297      -0.28772232      -0.03389017
O       -0.35812385       1.56565426       0.79799653
H        2.31511957       0.85817652       0.62643909
H        2.28132696       0.42066348      -1.08538788
H        2.87098906      -0.73971120       0.10510433
H        0.52467995      -1.32052644      -0.58933633
H        0.58949395      -0.88577087       1.12803708
H       -0.31708378       0.93674539      -1.16760847
H       -2.01176071      -0.65429334      -1.05703145
H       -1.97583979      -1.11268315       0.67297109
H       -2.97968291       0.25209809       0.07951463
H       -1.48541150       0.81844135       0.59551707
15
Frame=4 idx=004847 GeodesicLength=0.3723495834061053 rxn_smarts="[C:1]([C:2]([C@@:3]([C:4]([H:12])([H:13])[H:14])([O:5][H:15])[H:11])([H:9])[H:10])([H:6])([H:7])[H:8]>>[C:1]([C:2]([C:3](=[O:5])[H:11])([H:9])[H:10])([H:6])([H:7])[H:8].[C:4]([H:12])([H:13])([H:14])[H:15]"
C        2.13954277       0.03927778      -0.07820011
C        0.72634433      -0.50106194       0.11863249
C       -0.26691422       0.61343016      -0.10839655
C       -2.04239504      -0.28715217      -0.03794269
O       -0.36171331       1.55960679       0.80830662
H        2.33225287       0.85806952       0.61520460
H        2.28382697       0.41395422      -1.09436587
H        2.87802196      -0.74390374       0.09588074
H        0.52500961      -1.31914297      -0.57855326
H        0.60209959      -0.87817431       1.13584773
H       -0.30119826       0.94865745      -1.15984489
H       -2.01268010      -0.66220763      -1.05834890
H       -1.99212273      -1.11212093       0.66987096
H       -2.99845277       0.24127469       0.05777654
H       -1.51162166       0.82949308       0.61413259
15
Frame=5 idx=004847 GeodesicLength=0.4653456595705633 rxn_smarts="[C:1]([C:2]([C@@:3]([C:4]([H:12])([H:13])[H:14])([O:5][H:15])[H:11])([H:9])[H:10])([H:6])([H:7])[H:8]>>[C:1]([C:2]([C:3](=[O:5])[H:11])([H:9])[H:10])([H:6])([H:7])[H:8].[C:4]([H:12])([H:13])([H:14])[H:15]"
C        2.14805124       0.03696733      -0.08467328
C        0.73442520      -0.49709263       0.12431716
C       -0.26166976       0.61438562      -0.10379259
C       -2.05331428      -0.28626166      -0.04198786
O       -0.36600400       1.55299170       0.81853932
H        2.34936786       0.85799188       0.60373006
H        2.28655531       0.40700020      -1.10338043
H        2.88516020      -0.74811009       0.08685250
H        0.52552000      -1.31779042      -0.56774023
H        0.61495338      -0.87047991       1.14353102
H       -0.28501427       0.96075997      -1.15212922
H       -2.01376900      -0.67009125      -1.05939129
H       -2.00852334      -1.11132500       0.66665466
H       -3.01698283       0.23038637       0.03597540
H       -1.53875571       0.84066789       0.63349478
15
Frame=6 idx=004847 GeodesicLength=0.5583786886596487 rxn_smarts="[C:1]([C:2]([C@@:3]([C:4]([H:12])([H:13])[H:14])([O:5][H:15])[H:11])([H:9])[H:10])([H:6])([H:7])[H:8]>>[C:1]([C:2]([C:3](=[O:5])[H:11])([H:9])[H:10])([H:6])([H:7])[H:8].[C:4]([H:12])([H:13])([H:14])[H:15]"
C        2.15671482       0.03459974      -0.09117814
C        0.74275854      -0.49313783       0.12985587
C       -0.25607066       0.61531103      -0.09961569
C       -2.06430972      -0.28502266      -0.04601537
O       -0.37107146       1.54577100       0.82861171
H        2.36647293       0.85794622       0.59201597
H        2.28955080       0.39977986      -1.11242604
H        2.89242519      -0.75233098       0.07804875
H        0.52622707      -1.31647138      -0.55689927
H        0.62805095      -0.86266528       1.15107782
H       -0.26849374       0.97305671      -1.14450225
H       -2.01505511      -0.67789514      -1.06015361
H       -2.02503151      -1.11029763       0.66329948
H       -3.03527861       0.21944408       0.01416465
H       -1.56688949       0.85191226       0.65371610
15
Frame=7 idx=004847 GeodesicLength=0.6514492323013249 rxn_smarts="[C:1]([C:2]([C@@:3]([C:4]([H:12])([H:13])[H:14])([O:5][H:15])[H:11])([H:9])[H:10])([H:6])([H:7])[H:8]>>[C:1]([C:2]([C:3](=[O:5])[H:11])([H:9])[H:10])([H:6])([H:7])[H:8].[C:4]([H:12])([H:13])([H:14])[H:15]"
C        2.16555303       0.03217161      -0.09770678
C        0.75135696      -0.48919697       0.13523453
C       -0.25008821       0.61621004      -0.09592038
C       -2.07538944      -0.28341000      -0.05001548
O       -0.37699637       1.53790503       0.83843920
H        2.38357107       0.85793674       0.58006669
H        2.29285160       0.39227562      -1.12149718
H        2.89983623      -0.75656656       0.06950109
H        0.52714944      -1.31519043      -0.54603473
H        0.64138604      -0.85470879       1.15847805
H       -0.25160157       0.98554639      -1.13700973
H       -2.01656614      -0.68556919      -1.06063064
H       -2.04163893      -1.10903855       0.65978532
H       -3.05334345       0.20846621      -0.00760114
H       -1.59608025       0.86316887       0.67491117
15
Frame=8 idx=004847 GeodesicLength=0.7445701294765574 rxn_smarts="[C:1]([C:2]([C@@:3]([C:4]([H:12])([H:13])[H:14])([O:5][H:15])[H:11])([H:9])[H:10])([H:6])([H:7])[H:8]>>[C:1]([C:2]([C:3](=[O:5])[H:11])([H:9])[H:10])([H:6])([H:7])[H:8].[C:4]([H:12])([H:13])([H:14])[H:15]"
C        2.17458886       0.02967938      -0.10424963
C        0.76023464      -0.48526831       0.14043744
C       -0.24368684       0.61708520      -0.09277130
C       -2.08656770      -0.28139139      -0.05397292
O       -0.38387316       1.52934238       0.84791321
H        2.40066829       0.85796963       0.56788183
H        2.29650468       0.38446145      -1.13058467
H        2.90741441      -0.76081389       0.06124985
H        0.52830640      -1.31395182      -0.53514863
H        0.65495072      -0.84658161       1.16572121
H       -0.23429184       0.99823551      -1.12969932
H       -2.01833873      -0.69305032      -1.06081840
H       -2.05833391      -1.10755053       0.65608509
H       -3.07118053       0.19747381      -0.02925272
H       -1.62639528       0.87436049       0.69720895
15
Frame=9 idx=004847 GeodesicLength=0.8378911734443485 rxn_smarts="[C:1]([C:2]([C@@:3]([C:4]([H:12])([H:13])[H:14])([O:5][H:15])[H:11])([H:9])[H:10])([H:6])([H:7])[H:8]>>[C:1]([C:2]([C:3](=[O:5])[H:11])([H:9])[H:10])([H:6])([H:7])[H:8].[C:4]([H:12])([H:13])([H:14])[H:15]"
C        2.18385601       0.02711809      -0.11078714
C        0.76941457      -0.48134421       0.14544446
C       -0.23680491       0.61795121      -0.09027161
C       -2.09785017      -0.27890894      -0.05784661
O       -0.39185031       1.51999307       0.85680605
H        2.41777190       0.85806378       0.55546984
H        2.30058153       0.37629505      -1.13968312
H        2.91518730      -0.76507645       0.05337157
H        0.52973159      -1.31276235      -0.52424554
H        0.66872549      -0.83822832       1.17279722
H       -0.21651353       1.01109923      -1.12267520
H       -2.02040361      -0.70019397      -1.06071063
H       -2.07509786      -1.10587073       0.65212551
H       -3.08881379       0.18651377      -0.05068283
H       -1.65793424       0.88535077       0.72088802
15
Frame=10 idx=004847 GeodesicLength=0.9311973937406243 rxn_smarts="[C:1]([C:2]([C@@:3]([C:4]([H:12])([H:13])[H:14])([O:5][H:15])[H:11])([H:9])[H:10])([H:6])([H:7])[H:8]>>[C:1]([C:2]([C:3](=[O:5])[H:11])([H:9])[H:10])([H:6])([H:7])[H:8].[C:4]([H:12])([H:13])([H:14])[H:15]"
C        2.19337073       0.02448208      -0.11731808
C        0.77889862      -0.47741740       0.15025148
C       -0.22943758       0.61881391      -0.08844119
C       -2.10926753      -0.27597024      -0.06164549
O       -0.40097339       1.50985432       0.86509243
H        2.43489996       0.85820969       0.54282628
H        2.30510629       0.36776140      -1.14878266
H        2.92317086      -0.76935494       0.04587208
H        0.53142585      -1.31161495      -0.51331610
H        0.68270766      -0.82962301       1.17970533
H       -0.19822314       1.02417529      -1.11593231
H       -2.02280340      -0.70699551      -1.06032380
H       -2.09192871      -1.10398347       0.64792410
H       -3.10624636       0.17559131      -0.07185038
H       -1.69069986       0.89607152       0.74593830
15
Frame=11 idx=004847 GeodesicLength=1.0244435398367338 rxn_smarts="[C:1]([C:2]([C@@:3]([C:4]([H:12])([H:13])[H:14])([O:5][H:15])[H:11])([H:9])[H:10])([H:6])([H:7])[H:8]>>[C:1]([C:2]([C:3](=[O:5])[H:11])([H:9])[H:10])([H:6])([H:7])[H:8].[C:4]([H:12])([H:13])([H:14])[H:15]"
C        2.20315269       0.02176585      -0.12383354
C        0.78869540      -0.47347671       0.15485068
C       -0.22155918       0.61968438      -0.08733365
C       -2.12083755      -0.27255846      -0.06536030
O       -0.41132665       1.49889154       0.87264030
H        2.45206486       0.85841255       0.52995164
H        2.31011581       0.35883275      -1.15787978
H        2.93138327      -0.77365729       0.03879086
H        0.53340346      -1.31050876      -0.50235077
H        0.69688533      -0.82071847       1.18644654
H       -0.17937568       1.03747174      -1.10950982
H       -2.02556797      -0.71338253      -1.05967204
H       -2.10881834      -1.10190549       0.64345348
H       -3.12349735       0.16473395      -0.09269262
H       -1.72471809       0.90641497       0.77249901
15
Frame=12 idx=004847 GeodesicLength=1.1176144247640967 rxn_smarts="[C:1]([C:2]([C@@:3]([C:4]([H:12])([H:13])[H:14])([O:5][H:15])[H:11])([H:9])[H:10])([H:6])([H:7])[H:8]>>[C:1]([C:2]([C:3](=[O:5])[H:11])([H:9])[H:10])([H:6])([H:7])[H:8].[C:4]([H:12])([H:13])([H:14])[H:15]"
C        2.21322902       0.01896043      -0.13032379
C        0.79881416      -0.46950456       0.15923784
C       -0.21313953       0.62058412      -0.08700531
C       -2.13258931      -0.26865813      -0.06897702
O       -0.42300311       1.48706910       0.87929581
H        2.46929322       0.85867303       0.51684169
H        2.31565653       0.34946998      -1.16696890
H        2.93984475      -0.77799160       0.03217101
H        0.53567557      -1.30943650      -0.49133279
H        0.71124378      -0.81145023       1.19302702
H       -0.15991945       1.05100299      -1.10345069
H       -2.02873544      -0.71926861      -1.05877900
H       -2.12575621      -1.09966126       0.63867891
H       -3.14059346       0.15397350      -0.11313330
H       -1.76002052       0.91623775       0.80071852
15
Frame=13 idx=004847 GeodesicLength=1.2106590697791106 rxn_smarts="[C:1]([C:2]([C@@:3]([C:4]([H:12])([H:13])[H:14])([O:5][H:15])[H:11])([H:9])[H:10])([H:6])([H:7])[H:8]>>[C:1]([C:2]([C:3](=[O:5])[H:11])([H:9])[H:10])([H:6])([H:7])[H:8].[C:4]([H:12])([H:13])([H:14])[H:15]"
C        2.22361724       0.01606017      -0.13677769
C        0.80926058      -0.46548417       0.16341111
C       -0.20415531       0.62152594      -0.08750896
C       -2.14454941      -0.26425775      -0.07248528
O       -0.43608722       1.47435554       0.88490242
H        2.48659879       0.85899840       0.50349015
H        2.32176401       0.33963671      -1.17604243
H        2.94856539      -0.78236226       0.02605785
H        0.53825258      -1.30839426      -0.48024014
H        0.72576695      -0.80175262       1.19945513
H       -0.13980472       1.06477615      -1.09779195
H       -2.03234278      -0.72456322      -1.05767460
H       -2.14273538      -1.09727880       0.63356179
H       -3.15755840       0.14334609      -0.13309654
H       -1.79659232       0.92539406       0.83073914
15
Frame=14 idx=004847 GeodesicLength=1.3036129939112349 rxn_smarts="[C:1]([C:2]([C@@:3]([C:4]([H:12])([H:13])[H:14])([O:5][H:15])[H:11])([H:9])[H:10])([H:6])([H:7])[H:8]>>[C:1]([C:2]([C:3](=[O:5])[H:11])([H:9])[H:10])([H:6])([H:7])[H:8].[C:4]([H:12])([H:13])([H:14])[H:15]"
C        2.23434403       0.01304922      -0.14319017
C        0.82003866      -0.46138337       0.16738113
C       -0.19458270       0.62254593      -0.08888067
C       -2.15675560      -0.25935834      -0.07587801
O       -0.45064361       1.46074075       0.88928866
H        2.50402780       0.85938314       0.48987823
H        2.32847033       0.32927786      -1.18510554
H        2.95756205      -0.78679066       0.02048906
H        0.54113306      -1.30736366      -0.46902996
H        0.74044158      -0.79153154       1.20575552
H       -0.11897859       1.07882470      -1.09254871
H       -2.03642049      -0.72917140      -1.05640716
H       -2.15974704      -1.09480296       0.62805902
H       -3.17443430       0.13288197      -0.15251625
H       -1.83445516       0.93369838       0.86270483
15
Frame=15 idx=004847 GeodesicLength=1.3964964654246925 rxn_smarts="[C:1]([C:2]([C@@:3]([C:4]([H:12])([H:13])[H:14])([O:5][H:15])[H:11])([H:9])[H:10])([H:6])([H:7])[H:8]>>[C:1]([C:2]([C:3](=[O:5])[H:11])([H:9])[H:10])([H:6])([H:7])[H:8].[C:4]([H:12])([H:13])([H:14])[H:15]"
C        2.24542619       0.00991516      -0.14955327
C        0.83114924      -0.45716877       0.17116179
C       -0.18440308       0.62367712      -0.09115507
C       -2.16924662      -0.25396472      -0.07915053
O       -0.46672981       1.44621782       0.89226999
H        2.52161470       0.85982705       0.47598702
H        2.33579930       0.31833931      -1.19415913
H        2.96683941      -0.79129460       0.01550951
H        0.54431506      -1.30632756      -0.45765324
H        0.75525120      -0.78068644       1.21195618
H       -0.09739346       1.09316914      -1.08773786
H       -2.04100197      -0.73298821      -1.05503665
H       -2.17678327      -1.09228848       0.62211769
H       -3.19126179       0.12262027      -0.17131551
H       -1.87357512       0.94095292       0.89675908
15
Frame=16 idx=004847 GeodesicLength=1.489365920746659 rxn_smarts="[C:1]([C:2]([C@@:3]([C:4]([H:12])([H:13])[H:14])([O:5][H:15])[H:11])([H:9])[H:10])([H:6])([H:7])[H:8]>>[C:1]([C:2]([C:3](=[O:5])[H:11])([H:9])[H:10])([H:6])([H:7])[H:8].[C:4]([H:12])([H:13])([H:14])[H:15]"
C        2.25687895       0.00663959      -0.15586306
C        0.84258934      -0.45279773       0.17477719
C       -0.17360343       0.62496404      -0.09434998
C       -2.18206710      -0.24809235      -0.08230148
O       -0.48438047       1.43079924       0.89366627
H        2.53940421       0.86032578       0.46178397
H        2.34376148       0.30675408      -1.20321182
H        2.97639769      -0.79590019       0.01115818
H        0.54778686      -1.30526063      -0.44604402
H        0.77018208      -0.76909915       1.21809659
H       -0.07500140       1.10784867      -1.08335349
H       -2.04611568      -0.73591285      -1.05363449
H       -2.19383859      -1.08979745       0.61568168
H       -3.20808843       0.11259513      -0.18943398
H       -1.91390551       0.94693382       0.93302842
