15
Frame=0 idx=011669 GeodesicLength=0.0 rxn_smarts="[O:1]([C:2]([C@@:3]1([H:11])[C:4]([H:12])([H:13])[C@:5]1([C:6]#[C:7][H:15])[H:14])([H:9])[H:10])[H:8]>>[O:1]([C:2]([C@@:3]1([H:11])[C:4]([H:12])([H:13])[C:5]1=[C:6]=[C:7]([H:14])[H:15])([H:9])[H:10])[H:8]"
O       -2.02115100      -0.51487546       1.38494754
C       -1.76283400       0.22334025       0.21318530
C       -0.63445582      -0.36600980      -0.60108754
C        0.18457644       0.52217053      -1.54136859
C        0.74288514       0.01931056      -0.28542146
C        1.82934903      -0.11948908       0.51562862
C        2.60203709      -0.55587530       1.47219891
H       -1.22418781      -0.53194109       1.91915349
H       -1.53762579       1.27370967       0.44126782
H       -2.68769518       0.20171417      -0.36683943
H       -0.80209468      -1.38556112      -0.93553010
H        0.48967864       0.08658526      -2.48659826
H       -0.06190469       1.57838712      -1.59448983
H        2.22759027      -0.43034334      -0.54418025
H        2.65583236      -0.00112237       2.40913377
15
Frame=1 idx=011669 GeodesicLength=0.09743390105614629 rxn_smarts="[O:1]([C:2]([C@@:3]1([H:11])[C:4]([H:12])([H:13])[C@:5]1([C:6]#[C:7][H:15])[H:14])([H:9])[H:10])[H:8]>>[O:1]([C:2]([C@@:3]1([H:11])[C:4]([H:12])([H:13])[C:5]1=[C:6]=[C:7]([H:14])[H:15])([H:9])[H:10])[H:8]"
O       -2.00255320      -0.51585678       1.39027948
C       -1.75442026       0.22342838       0.21681830
C       -0.63779286      -0.36880593      -0.61086678
C        0.17894511       0.51782617      -1.55212914
C        0.74549545       0.00386814      -0.30357934
C        1.81499454      -0.06330311       0.52792871
C        2.57497130      -0.54317998       1.47005444
H       -1.19941337      -0.53606830       1.91520270
H       -1.52282426       1.27245414       0.44463154
H       -2.68591159       0.20745709      -0.35267024
H       -0.81171985      -1.38709860      -0.94555452
H        0.47974665       0.08579724      -2.50018436
H       -0.06245741       1.57542496      -1.59796689
H        2.24188719      -0.44593033      -0.52864475
H        2.64105258      -0.02601307       2.42668085
15
Frame=2 idx=011669 GeodesicLength=0.19490795985836895 rxn_smarts="[O:1]([C:2]([C@@:3]1([H:11])[C:4]([H:12])([H:13])[C@:5]1([C:6]#[C:7][H:15])[H:14])([H:9])[H:10])[H:8]>>[O:1]([C:2]([C@@:3]1([H:11])[C:4]([H:12])([H:13])[C:5]1=[C:6]=[C:7]([H:14])[H:15])([H:9])[H:10])[H:8]"
O       -1.98703863      -0.51955693       1.39293359
C       -1.74641549       0.22353703       0.22019229
C       -0.64189894      -0.37148100      -0.62102938
C        0.17517838       0.51455197      -1.55994286
C        0.74794372      -0.01558263      -0.31996479
C        1.79692439      -0.01802981       0.53966790
C        2.54718934      -0.52763181       1.47023030
H       -1.17854438      -0.54568341       1.90941914
H       -1.50667231       1.27010564       0.45069486
H       -2.68375879       0.21657455      -0.33971783
H       -0.82455337      -1.38681559      -0.95963067
H        0.47091504       0.08836815      -2.51201492
H       -0.05878081       1.57407720      -1.59571413
H        2.25395978      -0.47041186      -0.51043904
H        2.63555206      -0.03202149       2.43531554
15
Frame=3 idx=011669 GeodesicLength=0.2924822503225768 rxn_smarts="[O:1]([C:2]([C@@:3]1([H:11])[C:4]([H:12])([H:13])[C@:5]1([C:6]#[C:7][H:15])[H:14])([H:9])[H:10])[H:8]>>[O:1]([C:2]([C@@:3]1([H:11])[C:4]([H:12])([H:13])[C:5]1=[C:6]=[C:7]([H:14])[H:15])([H:9])[H:10])[H:8]"
O       -1.97295774      -0.52467713       1.39434869
C       -1.73857520       0.22352351       0.22344759
C       -0.64603242      -0.37384133      -0.63109859
C        0.17254063       0.51215066      -1.56609614
C        0.75055223      -0.03631249      -0.33521099
C        1.77666056       0.02057536       0.55016647
C        2.51985980      -0.50990541       1.47103079
H       -1.15962500      -0.55768107       1.90291747
H       -1.49018945       1.26715920       0.45793344
H       -2.68124140       0.22678834      -0.32743283
H       -0.83856148      -1.38527067      -0.97553538
H        0.46270892       0.09300689      -2.52280677
H       -0.05306282       1.57367651      -1.59060582
H        2.26427664      -0.50064905      -0.49068392
H        2.63364674      -0.02854332       2.43962598
15
Frame=4 idx=011669 GeodesicLength=0.39012280806129945 rxn_smarts="[O:1]([C:2]([C@@:3]1([H:11])[C:4]([H:12])([H:13])[C@:5]1([C:6]#[C:7][H:15])[H:14])([H:9])[H:10])[H:8]>>[O:1]([C:2]([C@@:3]1([H:11])[C:4]([H:12])([H:13])[C:5]1=[C:6]=[C:7]([H:14])[H:15])([H:9])[H:10])[H:8]"
O       -1.95963884      -0.53056698       1.39510506
C       -1.73090006       0.22329117       0.22654763
C       -0.64980382      -0.37578467      -0.64079778
C        0.17068340       0.51057242      -1.57110263
C        0.75338655      -0.05674828      -0.34941441
C        1.75502543       0.05485942       0.55937687
C        2.49329965      -0.49079296       1.47165215
H       -1.14188895      -0.57039328       1.89619552
H       -1.47414357       1.26388469       0.46548094
H       -2.67842131       0.23682494      -0.31573759
H       -0.85249908      -1.38279721      -0.99205398
H        0.45512446       0.09908535      -2.53268936
H       -0.04647337       1.57394718      -1.58400181
H        2.27280737      -0.53521302      -0.46965466
H        2.63344215      -0.02016877       2.44109406
15
Frame=5 idx=011669 GeodesicLength=0.4878059916857569 rxn_smarts="[O:1]([C:2]([C@@:3]1([H:11])[C:4]([H:12])([H:13])[C@:5]1([C:6]#[C:7][H:15])[H:14])([H:9])[H:10])[H:8]>>[O:1]([C:2]([C@@:3]1([H:11])[C:4]([H:12])([H:13])[C:5]1=[C:6]=[C:7]([H:14])[H:15])([H:9])[H:10])[H:8]"
O       -1.94659625      -0.53677144       1.39545866
C       -1.72336057       0.22281471       0.22941711
C       -0.65299028      -0.37725795      -0.64995572
C        0.16931702       0.50973024      -1.57524258
C        0.75644722      -0.07598983      -0.36259936
C        1.73245875       0.08625147       0.56744614
C        2.46778062      -0.47076708       1.47153114
H       -1.12478741      -0.58282789       1.88945068
H       -1.45898241       1.26043737       0.47274563
H       -2.67531355       0.24601593      -0.30463741
H       -0.86556686      -1.37959489      -1.00836974
H        0.44810327       0.10615347      -2.54163361
H       -0.03984191       1.57465652      -1.57673224
H        2.27951127      -0.57301089      -0.44745937
H        2.63382111      -0.00983973       2.44058068
15
Frame=6 idx=011669 GeodesicLength=0.5854290707813805 rxn_smarts="[O:1]([C:2]([C@@:3]1([H:11])[C:4]([H:12])([H:13])[C@:5]1([C:6]#[C:7][H:15])[H:14])([H:9])[H:10])[H:8]>>[O:1]([C:2]([C@@:3]1([H:11])[C:4]([H:12])([H:13])[C:5]1=[C:6]=[C:7]([H:14])[H:15])([H:9])[H:10])[H:8]"
O       -1.93387685      -0.54320879       1.39547892
C       -1.71609428       0.22206612       0.23200671
C       -0.65557449      -0.37824599      -0.65858976
C        0.16837014       0.50965745      -1.57866103
C        0.75971641      -0.09360414      -0.37474103
C        1.70932429       0.11558535       0.57459726
C        2.44346740      -0.45011153       1.47054367
H       -1.10831572      -0.59472710       1.88276375
H       -1.44499127       1.25689838       0.47959260
H       -2.67209857       0.25408134      -0.29422213
H       -0.87748353      -1.37580877      -1.02429526
H        0.44180285       0.11409561      -2.54969054
H       -0.03342792       1.57582909      -1.56910578
H        2.28404564      -0.61408719      -0.42388609
H        2.63513589       0.00158018       2.43820871
15
Frame=7 idx=011669 GeodesicLength=0.6830543185303002 rxn_smarts="[O:1]([C:2]([C@@:3]1([H:11])[C:4]([H:12])([H:13])[C@:5]1([C:6]#[C:7][H:15])[H:14])([H:9])[H:10])[H:8]>>[O:1]([C:2]([C@@:3]1([H:11])[C:4]([H:12])([H:13])[C:5]1=[C:6]=[C:7]([H:14])[H:15])([H:9])[H:10])[H:8]"
O       -1.92138051      -0.54974077       1.39530497
C       -1.70911209       0.22105133       0.23431776
C       -0.65753058      -0.37879299      -0.66670033
C        0.16775599       0.51029078      -1.58153581
C        0.76321194      -0.10940283      -0.38590532
C        1.68578679       0.14355166       0.58104172
C        2.42067738      -0.42887608       1.46837778
H       -1.09232946      -0.60582567       1.87625734
H       -1.43225874       1.25336597       0.48589646
H       -2.66883865       0.26086742      -0.28447225
H       -0.88807429      -1.37162250      -1.03963239
H        0.43622644       0.12270251      -2.55697847
H       -0.02744829       1.57742070      -1.56143913
H        2.28632728      -0.65795977      -0.39895224
H        2.63698679       0.01297023       2.43441993
15
Frame=8 idx=011669 GeodesicLength=0.7806176694605156 rxn_smarts="[O:1]([C:2]([C@@:3]1([H:11])[C:4]([H:12])([H:13])[C@:5]1([C:6]#[C:7][H:15])[H:14])([H:9])[H:10])[H:8]>>[O:1]([C:2]([C@@:3]1([H:11])[C:4]([H:12])([H:13])[C:5]1=[C:6]=[C:7]([H:14])[H:15])([H:9])[H:10])[H:8]"
O       -1.90902872      -0.55627671       1.39497312
C       -1.70241881       0.21977861       0.23633268
C       -0.65884404      -0.37893282      -0.67429088
C        0.16740186       0.51157716      -1.58394046
C        0.76696240      -0.12332562      -0.39612905
C        1.66194840       0.17064213       0.58696533
C        2.39987804      -0.40694255       1.46469626
H       -1.07671744      -0.61597169       1.86996251
H       -1.42083524       1.24988195       0.49157889
H       -2.66558049       0.26630992      -0.27540078
H       -0.89723454      -1.36713612      -1.05427900
H        0.43135427       0.13184960      -2.56352533
H       -0.02204694       1.57938821      -1.55386400
H        2.28615475      -0.70443074      -0.37258299
H        2.63900648       0.02358868       2.42950369
15
Frame=9 idx=011669 GeodesicLength=0.8780836769671194 rxn_smarts="[O:1]([C:2]([C@@:3]1([H:11])[C:4]([H:12])([H:13])[C@:5]1([C:6]#[C:7][H:15])[H:14])([H:9])[H:10])[H:8]>>[O:1]([C:2]([C@@:3]1([H:11])[C:4]([H:12])([H:13])[C:5]1=[C:6]=[C:7]([H:14])[H:15])([H:9])[H:10])[H:8]"
O       -1.89673219      -0.56274703       1.39454983
C       -1.69599303       0.21825688       0.23805978
C       -0.65949457      -0.37870865      -0.68136082
C        0.16725693       0.51347119      -1.58595377
C        0.77102220      -0.13535157      -0.40546052
C        1.63787137       0.19728104       0.59252035
C        2.38171955      -0.38401079       1.45904040
H       -1.06135730      -0.62505927       1.86393602
H       -1.41071763       1.24649694       0.49659766
H       -2.66234582       0.27036672      -0.26699162
H       -0.90490146      -1.36246319      -1.06815557
H        0.42714968       0.14142601      -2.56939176
H       -0.01731709       1.58171440      -1.54650029
H        2.28329279      -0.75337986      -0.34474981
H        2.64054657       0.03270717       2.42386012
15
Frame=10 idx=011669 GeodesicLength=0.9754119858235878 rxn_smarts="[O:1]([C:2]([C@@:3]1([H:11])[C:4]([H:12])([H:13])[C@:5]1([C:6]#[C:7][H:15])[H:14])([H:9])[H:10])[H:8]>>[O:1]([C:2]([C@@:3]1([H:11])[C:4]([H:12])([H:13])[C:5]1=[C:6]=[C:7]([H:14])[H:15])([H:9])[H:10])[H:8]"
O       -1.88471836      -0.56916864       1.39392836
C       -1.68995455       0.21647509       0.23942011
C       -0.65951697      -0.37815522      -0.68792535
C        0.16735912       0.51595379      -1.58750469
C        0.77536488      -0.14555884      -0.41380075
C        1.61339396       0.22366637       0.59807834
C        2.36676940      -0.35986251       1.45104433
H       -1.04651109      -0.63312885       1.85815235
H       -1.40203231       1.24319287       0.50093484
H       -2.65922730       0.27305479      -0.25941807
H       -0.91108201      -1.35763893      -1.08132901
H        0.42375117       0.15142749      -2.57450036
H       -0.01321186       1.58439841      -1.53924173
H        2.27734309      -0.80488953      -0.31517282
H        2.64227282       0.04023372       2.41733447
15
Frame=11 idx=011669 GeodesicLength=1.0725446446813596 rxn_smarts="[O:1]([C:2]([C@@:3]1([H:11])[C:4]([H:12])([H:13])[C@:5]1([C:6]#[C:7][H:15])[H:14])([H:9])[H:10])[H:8]>>[O:1]([C:2]([C@@:3]1([H:11])[C:4]([H:12])([H:13])[C:5]1=[C:6]=[C:7]([H:14])[H:15])([H:9])[H:10])[H:8]"
O       -1.87270940      -0.57535430       1.39332939
C       -1.68419611       0.21444722       0.24048141
C       -0.65879893      -0.37733650      -0.69389266
C        0.16762463       0.51893990      -1.58871563
C        0.78014314      -0.15382709      -0.42122404
C        1.58860492       0.25031916       0.60366387
C        2.35649751      -0.33352299       1.43957484
H       -1.03185559      -0.63982387       1.85281111
H       -1.39475740       1.24007649       0.50448125
H       -2.65617959       0.27420611      -0.25257631
H       -0.91559601      -1.35285183      -1.09353656
H        0.42102328       0.16163027      -2.57894896
H       -0.00991079       1.58737942      -1.53233226
H        2.26809168      -0.85867154      -0.28402268
H        2.64201865       0.04438952       2.41090723
15
Frame=12 idx=011669 GeodesicLength=1.1694339895636838 rxn_smarts="[O:1]([C:2]([C@@:3]1([H:11])[C:4]([H:12])([H:13])[C@:5]1([C:6]#[C:7][H:15])[H:14])([H:9])[H:10])[H:8]>>[O:1]([C:2]([C@@:3]1([H:11])[C:4]([H:12])([H:13])[C:5]1=[C:6]=[C:7]([H:14])[H:15])([H:9])[H:10])[H:8]"
O       -1.86174806      -0.58152758       1.39220965
C       -1.67923181       0.21210751       0.24089378
C       -0.65750084      -0.37627040      -0.69929528
C        0.16829409       0.52250242      -1.58915871
C        0.78514011      -0.16034696      -0.42717918
C        1.56278227       0.27702068       0.61036505
C        2.35137296      -0.30478426       1.42440454
H       -1.01862136      -0.64551242       1.84771447
H       -1.38943525       1.23701732       0.50717716
H       -2.65352792       0.27391136      -0.24721662
H       -0.91853260      -1.34803698      -1.10509621
H        0.41957896       0.17224915      -2.58227884
H       -0.00710764       1.59075002      -1.52521135
H        2.25462868      -0.91526723      -0.25018301
H        2.64390841       0.04618735       2.40285453
15
Frame=13 idx=011669 GeodesicLength=1.266121255659911 rxn_smarts="[O:1]([C:2]([C@@:3]1([H:11])[C:4]([H:12])([H:13])[C@:5]1([C:6]#[C:7][H:15])[H:14])([H:9])[H:10])[H:8]>>[O:1]([C:2]([C@@:3]1([H:11])[C:4]([H:12])([H:13])[C:5]1=[C:6]=[C:7]([H:14])[H:15])([H:9])[H:10])[H:8]"
O       -1.85132438      -0.58738568       1.39099165
C       -1.67487395       0.20944430       0.24078430
C       -0.65537183      -0.37502710      -0.70392746
C        0.16925325       0.52652289      -1.58904165
C        0.79062644      -0.16475153      -0.43172569
C        1.53600068       0.30477246       0.61809501
C        2.35411840      -0.27082558       1.40318076
H       -1.00622915      -0.64956486       1.84323648
H       -1.38610285       1.23417209       0.50880138
H       -2.65117002       0.27176408      -0.24315238
H       -0.91948096      -1.34346476      -1.11550450
H        0.41927006       0.18290982      -2.58463350
H       -0.00515440       1.59439658      -1.51836872
H        2.23645386      -0.97445790      -0.21321193
H        2.64398486       0.04149518       2.39447626
15
Frame=14 idx=011669 GeodesicLength=1.3627046760040082 rxn_smarts="[O:1]([C:2]([C@@:3]1([H:11])[C:4]([H:12])([H:13])[C@:5]1([C:6]#[C:7][H:15])[H:14])([H:9])[H:10])[H:8]>>[O:1]([C:2]([C@@:3]1([H:11])[C:4]([H:12])([H:13])[C:5]1=[C:6]=[C:7]([H:14])[H:15])([H:9])[H:10])[H:8]"
O       -1.84291780      -0.59306301       1.38903099
C       -1.67189819       0.20633462       0.23963839
C       -0.65249781      -0.37365317      -0.70766516
C        0.17084956       0.53102664      -1.58774253
C        0.79636195      -0.16699243      -0.43389534
C        1.50706778       0.33364761       0.62848407
C        2.36678251      -0.22900918       1.37380300
H       -0.99645622      -0.65209653       1.83928166
H       -1.38578737       1.23141503       0.50906770
H       -2.64957690       0.26758188      -0.24153694
H       -0.91822575      -1.33917351      -1.12488396
H        0.42112067       0.19366633      -2.58525594
H       -0.00378372       1.59833711      -1.51119168
H        2.21200373      -1.03670445      -0.17052805
H        2.64695756       0.02868308       2.38339379
15
Frame=15 idx=011669 GeodesicLength=1.4603491891156364 rxn_smarts="[O:1]([C:2]([C@@:3]1([H:11])[C:4]([H:12])([H:13])[C@:5]1([C:6]#[C:7][H:15])[H:14])([H:9])[H:10])[H:8]>>[O:1]([C:2]([C@@:3]1([H:11])[C:4]([H:12])([H:13])[C:5]1=[C:6]=[C:7]([H:14])[H:15])([H:9])[H:10])[H:8]"
O       -1.84772405      -0.60234667       1.37975599
C       -1.67517227       0.20230354       0.23409196
C       -0.65105983      -0.37186501      -0.71138069
C        0.17617591       0.53738623      -1.57999778
C        0.79951366      -0.17062974      -0.42803301
C        1.46970867       0.35515886       0.65178773
C        2.38462808      -0.18762750       1.34066524
H       -1.00243329      -0.66014902       1.83261316
H       -1.39232271       1.22689607       0.50897055
H       -2.65155975       0.26446507      -0.24961715
H       -0.91723838      -1.33308519      -1.13819688
H        0.43164282       0.20842245      -2.57882209
H        0.00206408       1.60416722      -1.49573846
H        2.17368002      -1.11003803      -0.11239033
H        2.70009703       0.03694173       2.34629179
15
Frame=16 idx=011669 GeodesicLength=1.5595548762119358 rxn_smarts="[O:1]([C:2]([C@@:3]1([H:11])[C:4]([H:12])([H:13])[C@:5]1([C:6]#[C:7][H:15])[H:14])([H:9])[H:10])[H:8]>>[O:1]([C:2]([C@@:3]1([H:11])[C:4]([H:12])([H:13])[C:5]1=[C:6]=[C:7]([H:14])[H:15])([H:9])[H:10])[H:8]"
O       -1.86264458      -0.61413555       1.36520015
C       -1.68278626       0.19738547       0.22547185
C       -0.64966258      -0.36976465      -0.71410926
C        0.18518546       0.54491899      -1.56636382
C        0.80127788      -0.17476731      -0.41483316
C        1.42521153       0.37106395       0.68658618
C        2.41268208      -0.13834986       1.29291102
H       -1.02084955      -0.67199949       1.82445119
H       -1.40420328       1.22074095       0.50871072
H       -2.65542047       0.26155035      -0.26515945
H       -0.91465496      -1.32559365      -1.15327646
H        0.45039208       0.22575094      -2.56563128
H        0.01203946       1.61089509      -1.47306637
H        2.12116230      -1.19139053      -0.03677262
H        2.78227089       0.05369530       2.28588132
