13
Frame=0 idx=000005 GeodesicLength=0.0 rxn_smarts="[C:1]([O:2][C:3]([C:4]([O:5][H:13])([H:11])[H:12])([H:9])[H:10])([H:6])([H:7])[H:8]>>[C:1]([H:6])[H:7].[O:2]([C:3]([C:4]([O:5][H:13])([H:11])[H:12])([H:9])[H:10])[H:8]"
C        2.20438715       0.66390699       0.54887295
O        0.44835227       0.57205432       0.56284857
C       -0.04064337      -0.60976900      -0.07823960
C       -1.52187920      -0.46166946      -0.34424085
O       -1.80006965       0.57732651      -1.25515724
H        2.34416585       0.98602626       1.58498558
H        2.44800414      -0.40367968       0.49934777
H        0.91845643       1.17491723      -0.11398788
H        0.50710803      -0.76630885      -1.01198305
H        0.15241513      -1.44629674       0.59784877
H       -1.88931310      -1.38635323      -0.79445227
H       -2.05425410      -0.31653243       0.60282338
H       -1.71672963       1.41637803      -0.79866614
13
Frame=1 idx=000005 GeodesicLength=0.06645458444885896 rxn_smarts="[C:1]([O:2][C:3]([C:4]([O:5][H:13])([H:11])[H:12])([H:9])[H:10])([H:6])([H:7])[H:8]>>[C:1]([H:6])[H:7].[O:2]([C:3]([C:4]([O:5][H:13])([H:11])[H:12])([H:9])[H:10])[H:8]"
C        2.19323212       0.65524853       0.54954391
O        0.45373954       0.56669386       0.55781792
C       -0.03828908      -0.61371628      -0.08200811
C       -1.51943406      -0.46066708      -0.34409873
O       -1.79058403       0.58457752      -1.25014006
H        2.33577774       1.00538682       1.57615726
H        2.44609567      -0.41107605       0.52362308
H        0.92920063       1.17763269      -0.13023211
H        0.50726488      -0.77090992      -1.01708212
H        0.15416923      -1.45199695       0.59222301
H       -1.89110699      -1.38201080      -0.79792481
H       -2.04898668      -0.31888469       0.60508654
H       -1.73107898       1.41972235      -0.78296580
13
Frame=2 idx=000005 GeodesicLength=0.13290060241336335 rxn_smarts="[C:1]([O:2][C:3]([C:4]([O:5][H:13])([H:11])[H:12])([H:9])[H:10])([H:6])([H:7])[H:8]>>[C:1]([H:6])[H:7].[O:2]([C:3]([C:4]([O:5][H:13])([H:11])[H:12])([H:9])[H:10])[H:8]"
C        2.18206555       0.64672013       0.55028613
O        0.45885811       0.56122748       0.55328291
C       -0.03601485      -0.61767214      -0.08560042
C       -1.51701442      -0.45964569      -0.34394209
O       -1.78099886       0.59196694      -1.24488888
H        2.32761782       1.02439216       1.56668011
H        2.44387534      -0.41781546       0.54774066
H        0.94025888       1.18014907      -0.14625610
H        0.50740040      -0.77533525      -1.02199413
H        0.15583301      -1.45779787       0.58664601
H       -1.89286426      -1.37753663      -0.80156587
H       -2.04388519      -0.32137895       0.60728506
H       -1.74513153       1.42272620      -0.76767339
13
Frame=3 idx=000005 GeodesicLength=0.19931122449430677 rxn_smarts="[C:1]([O:2][C:3]([C:4]([O:5][H:13])([H:11])[H:12])([H:9])[H:10])([H:6])([H:7])[H:8]>>[C:1]([H:6])[H:7].[O:2]([C:3]([C:4]([O:5][H:13])([H:11])[H:12])([H:9])[H:10])[H:8]"
C        2.17086896       0.63837856       0.55111888
O        0.46368914       0.55567438       0.54928080
C       -0.03382372      -0.62162205      -0.08899187
C       -1.51462441      -0.45860732      -0.34375765
O       -1.77131081       0.59943859      -1.23945108
H        2.31967997       1.04286424       1.55667682
H        2.44140620      -0.42384710       0.57147801
H        0.95160781       1.18249997      -0.16203255
H        0.50752137      -0.77956814      -1.02669271
H        0.15741297      -1.46367890       0.58114949
H       -1.89458273      -1.37296078      -0.80531088
H       -2.03896732      -0.32396140       0.60941938
H       -1.75887744       1.42538992      -0.75288664
13
Frame=4 idx=000005 GeodesicLength=0.26575145454155724 rxn_smarts="[C:1]([O:2][C:3]([C:4]([O:5][H:13])([H:11])[H:12])([H:9])[H:10])([H:6])([H:7])[H:8]>>[C:1]([H:6])[H:7].[O:2]([C:3]([C:4]([O:5][H:13])([H:11])[H:12])([H:9])[H:10])[H:8]"
C        2.15962687       0.63025970       0.55204011
O        0.46823867       0.55002802       0.54583212
C       -0.03171197      -0.62555838      -0.09216971
C       -1.51226006      -0.45755197      -0.34353607
O       -1.76151285       0.60694576      -1.23385922
H        2.31191624       1.06071052       1.54626840
H        2.43871733      -0.42916123       0.59467542
H        0.96323761       1.18471416      -0.17757713
H        0.50762875      -0.78360509      -1.03116129
H        0.15891964      -1.46962109       0.57575001
H       -1.89626086      -1.36829751      -0.80910855
H       -2.03422862      -0.32659261       0.61148856
H       -1.77231076       1.42772971      -0.73864263
13
Frame=5 idx=000005 GeodesicLength=0.33215662192491735 rxn_smarts="[C:1]([O:2][C:3]([C:4]([O:5][H:13])([H:11])[H:12])([H:9])[H:10])([H:6])([H:7])[H:8]>>[C:1]([H:6])[H:7].[O:2]([C:3]([C:4]([O:5][H:13])([H:11])[H:12])([H:9])[H:10])[H:8]"
C        2.14834653       0.62235299       0.55304965
O        0.47249867       0.54430654       0.54292319
C       -0.02968198      -0.62947772      -0.09514458
C       -1.50992710      -0.45648179      -0.34328252
O       -1.75161693       0.61450563      -1.22809243
H        2.30434813       1.07797977       1.53544592
H        2.43584334      -0.43379766       0.61740401
H        0.97518130       1.18675925      -0.19292121
H        0.50772550      -0.78744344      -1.03541319
H        0.16035067      -1.47562548       0.57043580
H       -1.89789446      -1.36354445      -0.81298620
H       -2.02967764      -0.32929445       0.61349479
H       -1.78549603       1.42976079      -0.72491324
13
Frame=6 idx=000005 GeodesicLength=0.3985615989353754 rxn_smarts="[C:1]([O:2][C:3]([C:4]([O:5][H:13])([H:11])[H:12])([H:9])[H:10])([H:6])([H:7])[H:8]>>[C:1]([H:6])[H:7].[O:2]([C:3]([C:4]([O:5][H:13])([H:11])[H:12])([H:9])[H:10])[H:8]"
C        2.13703716       0.61463205       0.55413218
O        0.47648805       0.53849847       0.54052934
C       -0.02772769      -0.63338554      -0.09793853
C       -1.50762284      -0.45539790      -0.34300320
O       -1.74163072       0.62214179      -1.22211613
H        2.29695321       1.09477991       1.52417833
H        2.43276430      -0.43781118       0.63979606
H        0.98748472       1.18860691      -0.20812760
H        0.50781029      -0.79108904      -1.03947271
H        0.16171201      -1.48169936       0.56517809
H       -1.89948476      -1.35868475      -0.81697647
H       -2.02530112      -0.33210104       0.61544089
H       -1.79848262       1.43150967      -0.71162024
13
Frame=7 idx=000005 GeodesicLength=0.46497232416292983 rxn_smarts="[C:1]([O:2][C:3]([C:4]([O:5][H:13])([H:11])[H:12])([H:9])[H:10])([H:6])([H:7])[H:8]>>[C:1]([H:6])[H:7].[O:2]([C:3]([C:4]([O:5][H:13])([H:11])[H:12])([H:9])[H:10])[H:8]"
C        2.12570823       0.60707855       0.55527344
O        0.48021158       0.53259971       0.53863902
C       -0.02584694      -0.63728701      -0.10056624
C       -1.50535080      -0.45430220      -0.34270495
O       -1.73155983       0.62987928      -1.21590060
H        2.28973569       1.11119919       1.51242693
H        2.42947659      -0.44124268       0.66196833
H        1.00018761       1.19022919      -0.22324126
H        0.50788777      -0.79454815      -1.04335667
H        0.16300642      -1.48785724       0.55995264
H       -1.90103075      -1.35370774      -0.82111473
H       -2.02110263      -0.33504291       0.61732661
H       -1.81132293       1.43300199      -0.69870251
13
Frame=8 idx=000005 GeodesicLength=0.531395700725243 rxn_smarts="[C:1]([O:2][C:3]([C:4]([O:5][H:13])([H:11])[H:12])([H:9])[H:10])([H:6])([H:7])[H:8]>>[C:1]([H:6])[H:7].[O:2]([C:3]([C:4]([O:5][H:13])([H:11])[H:12])([H:9])[H:10])[H:8]"
C        2.11435589       0.59966334       0.55647584
O        0.48368231       0.52661495       0.53721454
C       -0.02403707      -0.64117978      -0.10304028
C       -1.50310039      -0.45318838      -0.34239910
O       -1.72140254       0.63775878      -1.20939212
H        2.28265708       1.12732490       1.50015186
H        2.42596367      -0.44411428       0.68403671
H        1.01335632       1.19154774      -0.23835698
H        0.50795099      -0.79783873      -1.04707437
H        0.16423285      -1.49408370       0.55475476
H       -1.90251707      -1.34857414      -0.82545897
H       -2.01706398      -0.33816828       0.61914489
H       -1.82407806       1.43423759      -0.68605677
13
Frame=9 idx=000005 GeodesicLength=0.5978220930593799 rxn_smarts="[C:1]([O:2][C:3]([C:4]([O:5][H:13])([H:11])[H:12])([H:9])[H:10])([H:6])([H:7])[H:8]>>[C:1]([H:6])[H:7].[O:2]([C:3]([C:4]([O:5][H:13])([H:11])[H:12])([H:9])[H:10])[H:8]"
C        2.10296092       0.59245296       0.55774052
O        0.48688330       0.52054336       0.53630638
C       -0.02230214      -0.64505589      -0.10533521
C       -1.50087697      -0.45206037      -0.34207066
O       -1.71115971       0.64572070      -1.20263527
H        2.27570721       1.14299478       1.48749203
H        2.42228710      -0.44638373       0.70576401
H        1.02695482       1.19260662      -0.25343226
H        0.50800249      -0.80094331      -1.05059734
H        0.16539981      -1.50036508       0.54961030
H       -1.90394683      -1.34331751      -0.82993812
H       -2.01320189      -0.34141518       0.62089521
H       -1.83670811       1.43522266      -0.67379959
13
Frame=10 idx=000005 GeodesicLength=0.6642667219654081 rxn_smarts="[C:1]([O:2][C:3]([C:4]([O:5][H:13])([H:11])[H:12])([H:9])[H:10])([H:6])([H:7])[H:8]>>[C:1]([H:6])[H:7].[O:2]([C:3]([C:4]([O:5][H:13])([H:11])[H:12])([H:9])[H:10])[H:8]"
C        2.09153163       0.58543879       0.55906772
O        0.48981999       0.51438760       0.53589837
C       -0.02063943      -0.64892063      -0.10745874
C       -1.49868500      -0.45091678      -0.34172561
O       -1.70083308       0.65380022      -1.19559147
H        2.26886161       1.15827826       1.47443241
H        2.41846196      -0.44807136       0.72721877
H        1.04104717       1.19335562      -0.26853422
H        0.50805229      -0.80387757      -1.05393333
H        0.16650491      -1.50671018       0.54451331
H       -1.90531889      -1.33792201      -0.83458962
H       -2.00953196      -0.34481936       0.62257453
H       -1.84927121       1.43597740      -0.66187212
13
Frame=11 idx=000005 GeodesicLength=0.7307284853298 rxn_smarts="[C:1]([O:2][C:3]([C:4]([O:5][H:13])([H:11])[H:12])([H:9])[H:10])([H:6])([H:7])[H:8]>>[C:1]([H:6])[H:7].[O:2]([C:3]([C:4]([O:5][H:13])([H:11])[H:12])([H:9])[H:10])[H:8]"
C        2.08006638       0.57860281       0.56044256
O        0.49249649       0.50814700       0.53597721
C       -0.01904924      -0.65277466      -0.10941994
C       -1.49652011      -0.44975597      -0.34137542
O       -1.69042244       0.66203430      -1.18821131
H        2.26211744       1.17325071       1.46091749
H        2.41446760      -0.44919123       0.74851646
H        1.05568203       1.19373896      -0.28372049
H        0.50809491      -0.80665149      -1.05709160
H        0.16754362      -1.51311553       0.53945819
H       -1.90662091      -1.33235968      -0.83946996
H       -2.00604977      -0.34842743       0.62417348
H       -1.86180601       1.43650220      -0.65019667
13
Frame=12 idx=000005 GeodesicLength=0.7972135042184744 rxn_smarts="[C:1]([O:2][C:3]([C:4]([O:5][H:13])([H:11])[H:12])([H:9])[H:10])([H:6])([H:7])[H:8]>>[C:1]([H:6])[H:7].[O:2]([C:3]([C:4]([O:5][H:13])([H:11])[H:12])([H:9])[H:10])[H:8]"
C        2.06856323       0.57194212       0.56186293
O        0.49491223       0.50180779       0.53654315
C       -0.01753132      -0.65662298      -0.11122423
C       -1.49438331      -0.44857547      -0.34102346
O       -1.67992748       0.67044484      -1.18045627
H        2.25546529       1.18795735       1.44691672
H        2.41030966      -0.44973699       0.76971894
H        1.07090438       1.19370565      -0.29902996
H        0.50813023      -0.80927244      -1.06007601
H        0.16851914      -1.51958844       0.53443087
H       -1.90785086      -1.32660546      -0.84461112
H       -2.00275907      -0.35226475       0.62568683
H       -1.87435213       1.43680879      -0.63873838
13
Frame=13 idx=000005 GeodesicLength=0.8637651811683099 rxn_smarts="[C:1]([O:2][C:3]([C:4]([O:5][H:13])([H:11])[H:12])([H:9])[H:10])([H:6])([H:7])[H:8]>>[C:1]([H:6])[H:7].[O:2]([C:3]([C:4]([O:5][H:13])([H:11])[H:12])([H:9])[H:10])[H:8]"
C        2.05702898       0.56543266       0.56331317
O        0.49709487       0.49535423       0.53757613
C       -0.01607618      -0.66047195      -0.11289086
C       -1.49226469      -0.44736987      -0.34067752
O       -1.66934058       0.67908011      -1.17225682
H        2.24883883       1.20252067       1.43233762
H        2.40592485      -0.44972960       0.79100353
H        1.08678483       1.19317001      -0.31456076
H        0.50815869      -0.81175045      -1.06290760
H        0.16943639      -1.52614156       0.52939813
H       -1.90899902      -1.32061769      -0.85007240
H       -1.99964624      -0.35638699       0.62711122
H       -1.88694074       1.43691045      -0.62737385
13
Frame=14 idx=000005 GeodesicLength=0.9303373833753047 rxn_smarts="[C:1]([O:2][C:3]([C:4]([O:5][H:13])([H:11])[H:12])([H:9])[H:10])([H:6])([H:7])[H:8]>>[C:1]([H:6])[H:7].[O:2]([C:3]([C:4]([O:5][H:13])([H:11])[H:12])([H:9])[H:10])[H:8]"
C        2.04543634       0.55913410       0.56479516
O        0.49900571       0.48879278       0.53913712
C       -0.01469746      -0.66431239      -0.11438351
C       -1.49017597      -0.44614004      -0.34032774
O       -1.65865984       0.68790086      -1.16364200
H        2.24225780       1.21679075       1.41731158
H        2.40141938      -0.44910954       0.81211301
H        1.10330144       1.19214953      -0.33025310
H        0.50817972      -0.81407579      -1.06554677
H        0.17028969      -1.53275961       0.52440543
H       -1.91006387      -1.31441460      -0.85581301
H       -1.99674521      -0.36075014       0.62843769
H       -1.89954772       1.43679408      -0.61623387
13
Frame=15 idx=000005 GeodesicLength=0.9969399783817103 rxn_smarts="[C:1]([O:2][C:3]([C:4]([O:5][H:13])([H:11])[H:12])([H:9])[H:10])([H:6])([H:7])[H:8]>>[C:1]([H:6])[H:7].[O:2]([C:3]([C:4]([O:5][H:13])([H:11])[H:12])([H:9])[H:10])[H:8]"
C        2.03376421       0.55309290       0.56630050
O        0.50063502       0.48210882       0.54127518
C       -0.01339876      -0.66814181      -0.11567838
C       -1.48811908      -0.44488383      -0.33996343
O       -1.64787083       0.69687636      -1.15462693
H        2.23567571       1.23068835       1.40194308
H        2.39685886      -0.44785221       0.83285636
H        1.12044327       1.19064732      -0.34609088
H        0.50819516      -0.81624303      -1.06796528
H        0.17107694      -1.53943659       0.51947541
H       -1.91104403      -1.30800225      -0.86179695
H       -1.99407116      -0.36531962       0.62966267
H       -1.91214531       1.43646559      -0.60539136
13
Frame=16 idx=000005 GeodesicLength=1.0635688116200097 rxn_smarts="[C:1]([O:2][C:3]([C:4]([O:5][H:13])([H:11])[H:12])([H:9])[H:10])([H:6])([H:7])[H:8]>>[C:1]([H:6])[H:7].[O:2]([C:3]([C:4]([O:5][H:13])([H:11])[H:12])([H:9])[H:10])[H:8]"
C        2.02199301       0.54735089       0.56781756
O        0.50197136       0.47528838       0.54403658
C       -0.01218493      -0.67195853      -0.11675311
C       -1.48609680      -0.44359884      -0.33957617
O       -1.63696182       0.70598231      -1.14522362
H        2.22904520       1.24415589       1.38633525
H        2.39231699      -0.44594442       0.85305297
H        1.13820246       1.18866215      -0.36205896
H        0.50820585      -0.81825003      -1.07013724
H        0.17179376      -1.54616760       0.51463172
H       -1.91193783      -1.30138554      -0.86799515
H       -1.99164013      -0.37006460       0.63078172
H       -1.92470712       1.43592994      -0.59491154
