10
Frame=0 idx=005280 GeodesicLength=0.0 rxn_smarts="[c:1]1([H:7])[c:2]([H:8])[n:3][n:4][c:5]([H:9])[c:6]1[H:10]>>[C:1]1([H:7])=[C:6]([H:10])[C:5]([H:9])=[N+:4]2[C@:2]1([H:8])[N-:3]2"
C        0.62821055       0.87125576       0.05928221
C        1.14074976      -0.49888547      -0.13613781
N        0.89540239      -1.49223232       0.79876567
N       -0.24466290      -1.31042961       0.11259483
C       -1.21537761      -0.44735360      -0.06526636
C       -0.71962260       0.89472142       0.01764150
H        1.28577748       1.72417366       0.14391464
H        1.82509379      -0.71193292      -0.96337219
H       -2.23880945      -0.78932337      -0.11015675
H       -1.35676140       1.76000645       0.14273426
10
Frame=1 idx=005280 GeodesicLength=0.028722615428408746 rxn_smarts="[c:1]1([H:7])[c:2]([H:8])[n:3][n:4][c:5]([H:9])[c:6]1[H:10]>>[C:1]1([H:7])=[C:6]([H:10])[C:5]([H:9])=[N+:4]2[C@:2]1([H:8])[N-:3]2"
C        0.62954762       0.86951125       0.06197662
C        1.14344213      -0.49627070      -0.13596987
N        0.88581294      -1.49728040       0.78825032
N       -0.24896775      -1.31760600       0.09530075
C       -1.21862013      -0.44733050      -0.06247969
C       -0.71999172       0.89112279       0.02339873
H        1.28390208       1.72596260       0.13582006
H        1.84540928      -0.70335415      -0.94913494
H       -2.24444561      -0.78408190      -0.08954957
H       -1.35608883       1.75932701       0.13238759
10
Frame=2 idx=005280 GeodesicLength=0.05739390998639983 rxn_smarts="[c:1]1([H:7])[c:2]([H:8])[n:3][n:4][c:5]([H:9])[c:6]1[H:10]>>[C:1]1([H:7])=[C:6]([H:10])[C:5]([H:9])=[N+:4]2[C@:2]1([H:8])[N-:3]2"
C        0.63089252       0.86773331       0.06502671
C        1.14605273      -0.49365578      -0.13585373
N        0.87629434      -1.50255419       0.77707223
N       -0.25336855      -1.32444217       0.07783756
C       -1.22185579      -0.44721351      -0.05928957
C       -0.72034588       0.88754978       0.02956729
H        1.28193962       1.72763104       0.12765013
H        1.86541747      -0.69468760      -0.93445381
H       -2.24967274      -0.77899403      -0.06879236
H       -1.35535371       1.75863316       0.12123554
10
Frame=3 idx=005280 GeodesicLength=0.08619263719393194 rxn_smarts="[c:1]1([H:7])[c:2]([H:8])[n:3][n:4][c:5]([H:9])[c:6]1[H:10]>>[C:1]1([H:7])=[C:6]([H:10])[C:5]([H:9])=[N+:4]2[C@:2]1([H:8])[N-:3]2"
C        0.63228414       0.86608814       0.06819026
C        1.14859976      -0.49103968      -0.13580465
N        0.86675250      -1.50793715       0.76550665
N       -0.25795541      -1.33106245       0.06038135
C       -1.22507875      -0.44706567      -0.05586997
C       -0.72068003       0.88410529       0.03601053
H        1.27994840       1.72937937       0.11928383
H        1.88516731      -0.68615398      -0.91941063
H       -2.25447212      -0.77404652      -0.04819154
H       -1.35456581       1.75773265       0.10990417
10
Frame=4 idx=005280 GeodesicLength=0.11469590994794811 rxn_smarts="[c:1]1([H:7])[c:2]([H:8])[n:3][n:4][c:5]([H:9])[c:6]1[H:10]>>[C:1]1([H:7])=[C:6]([H:10])[C:5]([H:9])=[N+:4]2[C@:2]1([H:8])[N-:3]2"
C        0.63367148       0.86431833       0.07143076
C        1.15097960      -0.48838695      -0.13595997
N        0.85761865      -1.51320781       0.75335678
N       -0.26264548      -1.33705495       0.04337443
C       -1.22829757      -0.44685714      -0.05150930
C       -0.72103945       0.88063119       0.04330244
H        1.27788626       1.73081917       0.11132675
H        1.90401518      -0.67757061      -0.90439074
H       -2.25884214      -0.76952028      -0.02834237
H       -1.35334654       1.75682905       0.09741122
10
Frame=5 idx=005280 GeodesicLength=0.14324022097004704 rxn_smarts="[c:1]1([H:7])[c:2]([H:8])[n:3][n:4][c:5]([H:9])[c:6]1[H:10]>>[C:1]1([H:7])=[C:6]([H:10])[C:5]([H:9])=[N+:4]2[C@:2]1([H:8])[N-:3]2"
C        0.63507575       0.86277252       0.07379019
C        1.15334290      -0.48577528      -0.13609978
N        0.84846071      -1.51793330       0.74166311
N       -0.26747554      -1.34275709       0.02698471
C       -1.23145524      -0.44660378      -0.04726224
C       -0.72139807       0.87735145       0.04973059
H        1.27576115       1.73240449       0.10231440
H        1.92265964      -0.66973597      -0.88875532
H       -2.26288546      -0.76514109      -0.01016068
H       -1.35208583       1.75541805       0.08779503
10
Frame=6 idx=005280 GeodesicLength=0.1717611871369309 rxn_smarts="[c:1]1([H:7])[c:2]([H:8])[n:3][n:4][c:5]([H:9])[c:6]1[H:10]>>[C:1]1([H:7])=[C:6]([H:10])[C:5]([H:9])=[N+:4]2[C@:2]1([H:8])[N-:3]2"
C        0.63650855       0.86134296       0.07531944
C        1.15570863      -0.48321184      -0.13616893
N        0.83922629      -1.52212223       0.73035278
N       -0.27243763      -1.34811582       0.01104808
C       -1.23452579      -0.44632750      -0.04333599
C       -0.72172711       0.87417531       0.05508204
H        1.27355942       1.73401906       0.09215435
H        1.94120070      -0.66254988      -0.87230452
H       -2.26660430      -0.76093844       0.00668867
H       -1.35090876       1.75372840       0.08116407
10
Frame=7 idx=005280 GeodesicLength=0.20028317563253917 rxn_smarts="[c:1]1([H:7])[c:2]([H:8])[n:3][n:4][c:5]([H:9])[c:6]1[H:10]>>[C:1]1([H:7])=[C:6]([H:10])[C:5]([H:9])=[N+:4]2[C@:2]1([H:8])[N-:3]2"
C        0.63797482       0.85999852       0.07633357
C        1.15809121      -0.48068557      -0.13622474
N        0.82999222      -1.52598954       0.71913352
N       -0.27750457      -1.35319120      -0.00462302
C       -1.23755829      -0.44604904      -0.03963062
C       -0.72204038       0.87106927       0.05975878
H        1.27128184       1.73562964       0.08116110
H        1.95964181      -0.65578563      -0.85510002
H       -2.27011672      -0.75690144       0.02273222
H       -1.34976194       1.75190499       0.07645921
10
Frame=8 idx=005280 GeodesicLength=0.22882735769595916 rxn_smarts="[c:1]1([H:7])[c:2]([H:8])[n:3][n:4][c:5]([H:9])[c:6]1[H:10]>>[C:1]1([H:7])=[C:6]([H:10])[C:5]([H:9])=[N+:4]2[C@:2]1([H:8])[N-:3]2"
C        0.63946007       0.85872969       0.07686886
C        1.16048168      -0.47818641      -0.13620895
N        0.82066417      -1.52955543       0.70803322
N       -0.28269191      -1.35802434      -0.02012274
C       -1.24048397      -0.44574687      -0.03627865
C       -0.72231335       0.86801679       0.06366675
H        1.26888659       1.73721658       0.06918863
H        1.97802991      -0.64941746      -0.83706493
H       -2.27332467      -0.75295161       0.03808440
H       -1.34870851       1.74991905       0.07383341
10
Frame=9 idx=005280 GeodesicLength=0.2572046278840285 rxn_smarts="[c:1]1([H:7])[c:2]([H:8])[n:3][n:4][c:5]([H:9])[c:6]1[H:10]>>[C:1]1([H:7])=[C:6]([H:10])[C:5]([H:9])=[N+:4]2[C@:2]1([H:8])[N-:3]2"
C        0.64096954       0.85750377       0.07703387
C        1.16283306      -0.47571592      -0.13635914
N        0.81161040      -1.53290104       0.69681127
N       -0.28792458      -1.36258302      -0.03514318
C       -1.24334620      -0.44544485      -0.03268665
C       -0.72255115       0.86500211       0.06750935
H        1.26644614       1.73869767       0.05711709
H        1.99593231      -0.64329610      -0.81870977
H       -2.27636003      -0.74917609       0.05264622
H       -1.34760949       1.74791348       0.07178095
10
Frame=10 idx=005280 GeodesicLength=0.2856147594650373 rxn_smarts="[c:1]1([H:7])[c:2]([H:8])[n:3][n:4][c:5]([H:9])[c:6]1[H:10]>>[C:1]1([H:7])=[C:6]([H:10])[C:5]([H:9])=[N+:4]2[C@:2]1([H:8])[N-:3]2"
C        0.64252811       0.85634991       0.07682629
C        1.16520169      -0.47326201      -0.13659770
N        0.80269708      -1.53599722       0.68558369
N       -0.29326753      -1.36695385      -0.04980893
C       -1.24614016      -0.44515145      -0.02908932
C       -0.72275465       0.86202473       0.07109925
H        1.26395443       1.74013095       0.04459695
H        2.01356609      -0.63747746      -0.79988819
H       -2.27922411      -0.74551971       0.06645947
H       -1.34656094       1.74585611       0.07081849
10
Frame=11 idx=005280 GeodesicLength=0.3140568944398153 rxn_smarts="[c:1]1([H:7])[c:2]([H:8])[n:3][n:4][c:5]([H:9])[c:6]1[H:10]>>[C:1]1([H:7])=[C:6]([H:10])[C:5]([H:9])=[N+:4]2[C@:2]1([H:8])[N-:3]2"
C        0.64414213       0.85524844       0.07643267
C        1.16759326      -0.47083098      -0.13692474
N        0.79389385      -1.53899263       0.67416372
N       -0.29872068      -1.37115451      -0.06431614
C       -1.24889230      -0.44486470      -0.02552133
C       -0.72292299       0.85908001       0.07458545
H        1.26140318       1.74150588       0.03164587
H        2.03100443      -0.63180836      -0.78048947
H       -2.28196022      -0.74196908       0.07991279
H       -1.34554065       1.74378592       0.07051117
10
Frame=12 idx=005280 GeodesicLength=0.34248686574950093 rxn_smarts="[c:1]1([H:7])[c:2]([H:8])[n:3][n:4][c:5]([H:9])[c:6]1[H:10]>>[C:1]1([H:7])=[C:6]([H:10])[C:5]([H:9])=[N+:4]2[C@:2]1([H:8])[N-:3]2"
C        0.64577110       0.85415238       0.07621295
C        1.16996691      -0.46837422      -0.13730701
N        0.78519422      -1.54202594       0.66233127
N       -0.30428460      -1.37516971      -0.07884921
C       -1.25155908      -0.44455375      -0.02190169
C       -0.72304648       0.85613340       0.07841653
H        1.25870877       1.74276681       0.01841638
H        2.04813578      -0.62614578      -0.76063675
H       -2.28444930      -0.73847185       0.09334699
H       -1.34443732       1.74168868       0.06997055
10
Frame=13 idx=005280 GeodesicLength=0.37076876058780966 rxn_smarts="[c:1]1([H:7])[c:2]([H:8])[n:3][n:4][c:5]([H:9])[c:6]1[H:10]>>[C:1]1([H:7])=[C:6]([H:10])[C:5]([H:9])=[N+:4]2[C@:2]1([H:8])[N-:3]2"
C        0.64743430       0.85307110       0.07552430
C        1.17232227      -0.46595125      -0.13793503
N        0.77678233      -1.54478864       0.65038649
N       -0.30992043      -1.37894894      -0.09293226
C       -1.25414665      -0.44425254      -0.01810501
C       -0.72312032       0.85318793       0.08194340
H        1.25599361       1.74389520       0.00527723
H        2.06481290      -0.62067604      -0.74040329
H       -2.28682661      -0.73508494       0.10622025
H       -1.34333139       1.73954812       0.07002392
10
Frame=14 idx=005280 GeodesicLength=0.39908626132322084 rxn_smarts="[c:1]1([H:7])[c:2]([H:8])[n:3][n:4][c:5]([H:9])[c:6]1[H:10]>>[C:1]1([H:7])=[C:6]([H:10])[C:5]([H:9])=[N+:4]2[C@:2]1([H:8])[N-:3]2"
C        0.64914477       0.85205669       0.07458311
C        1.17471139      -0.46352647      -0.13872951
N        0.76857533      -1.54738175       0.63831724
N       -0.31566176      -1.38263111      -0.10670294
C       -1.25666439      -0.44397833      -0.01419458
C       -0.72315207       0.85027451       0.08539939
H        1.25323561       1.74495614      -0.00789857
H        2.08114284      -0.61538933      -0.71987900
H       -2.28909256      -0.73178034       0.11865645
H       -1.34223916       1.73739998       0.07044842
10
Frame=15 idx=005280 GeodesicLength=0.427388617170874 rxn_smarts="[c:1]1([H:7])[c:2]([H:8])[n:3][n:4][c:5]([H:9])[c:6]1[H:10]>>[C:1]1([H:7])=[C:6]([H:10])[C:5]([H:9])=[N+:4]2[C@:2]1([H:8])[N-:3]2"
C        0.65089277       0.85106616       0.07348937
C        1.17711654      -0.46110589      -0.13969915
N        0.76054278      -1.54987638       0.62597410
N       -0.32151397      -1.38616717      -0.12031978
C       -1.25911939      -0.44371445      -0.01022106
C       -0.72313954       0.84736759       0.08884863
H        1.25042005       1.74592780      -0.02116215
H        2.09716025      -0.61018468      -0.69888514
H       -2.29123293      -0.72854733       0.13093176
H       -1.34112655       1.73523435       0.07104341
10
Frame=16 idx=005280 GeodesicLength=0.45567484476755266 rxn_smarts="[c:1]1([H:7])[c:2]([H:8])[n:3][n:4][c:5]([H:9])[c:6]1[H:10]>>[C:1]1([H:7])=[C:6]([H:10])[C:5]([H:9])=[N+:4]2[C@:2]1([H:8])[N-:3]2"
C        0.65267167       0.85009830       0.07219692
C        1.17954181      -0.45869538      -0.14082480
N        0.75263416      -1.55226778       0.61336161
N       -0.32747478      -1.38956047      -0.13385241
C       -1.26151137      -0.44345456      -0.00629936
C       -0.72308125       0.84446344       0.09223199
H        1.24751743       1.74680463      -0.03474243
H        2.11293525      -0.60506481      -0.67722726
H       -2.29323209      -0.72537287       0.14306419
H       -1.34000082       1.73304950       0.07209156
