17
Frame=0 idx=011164 GeodesicLength=0.0 rxn_smarts="[C:1]1([H:8])([H:9])[C@:2]2([H:10])[C@@:3]1([H:11])[C@:4]1([H:12])[C:5]([H:13])([H:14])[C:6]([H:15])([H:16])[C@:7]21[H:17]>>[C:1]1([H:8])([H:9])[C@@:2]2([H:10])[C@:3]1([H:11])[C@:4]([C:5]([C:6][H:15])([H:13])[H:14])([H:12])[C:7]2([H:16])[H:17]"
C        1.28856298      -0.36568207       1.11253995
C        1.37868952       0.73001462       0.09768449
C        1.16025505      -0.72900906      -0.32698651
C       -0.23195863      -0.37606631      -0.85724529
C       -1.47691832      -0.80783831      -0.07598353
C       -1.82887919       0.51137545       0.61353637
C       -0.00452932       1.08130041      -0.41098448
H        2.22840952      -0.63947302       1.57404610
H        0.42869661      -0.40914164       1.77316281
H        2.25526591       1.35681328       0.00903052
H        1.85771524      -1.40501077      -0.80348681
H       -0.30461326      -0.49618493      -1.93708311
H       -1.26020768      -1.60425292       0.64005288
H       -2.28051474      -1.15278545      -0.73078031
H       -2.41149294       1.11231841      -0.10403473
H       -0.69212522       1.30639145       0.55738166
H       -0.10635550       1.88723091      -1.13084999
17
Frame=1 idx=011164 GeodesicLength=0.057257826125524804 rxn_smarts="[C:1]1([H:8])([H:9])[C@:2]2([H:10])[C@@:3]1([H:11])[C@:4]1([H:12])[C:5]([H:13])([H:14])[C:6]([H:15])([H:16])[C@:7]21[H:17]>>[C:1]1([H:8])([H:9])[C@@:2]2([H:10])[C@:3]1([H:11])[C@:4]([C:5]([C:6][H:15])([H:13])[H:14])([H:12])[C:7]2([H:16])[H:17]"
C        1.28920048      -0.36461341       1.11312933
C        1.37868504       0.72920731       0.09624370
C        1.15935017      -0.72936421      -0.32605303
C       -0.23148379      -0.37568908      -0.85809372
C       -1.47788754      -0.81023596      -0.07757622
C       -1.82395341       0.50958241       0.60669539
C       -0.00714313       1.08185424      -0.40845677
H        2.22962532      -0.63823488       1.57366449
H        0.43008161      -0.40795312       1.77478667
H        2.25609215       1.35453212       0.00414083
H        1.85587425      -1.40689479      -0.80209820
H       -0.30433374      -0.49642969      -1.93790780
H       -1.26155067      -1.60718657       0.63791027
H       -2.27973911      -1.15432337      -0.73521426
H       -2.41710041       1.10991712      -0.10307781
H       -0.69326445       1.32198117       0.57655650
H       -0.10245277       1.88385071      -1.13464936
17
Frame=2 idx=011164 GeodesicLength=0.11377232966857695 rxn_smarts="[C:1]1([H:8])([H:9])[C@:2]2([H:10])[C@@:3]1([H:11])[C@:4]1([H:12])[C:5]([H:13])([H:14])[C:6]([H:15])([H:16])[C@:7]21[H:17]>>[C:1]1([H:8])([H:9])[C@@:2]2([H:10])[C@:3]1([H:11])[C@:4]([C:5]([C:6][H:15])([H:13])[H:14])([H:12])[C:7]2([H:16])[H:17]"
C        1.28981366      -0.36353268       1.11372798
C        1.37860404       0.72838631       0.09479113
C        1.15846487      -0.72973505      -0.32514897
C       -0.23096585      -0.37542415      -0.85905007
C       -1.47888233      -0.81266956      -0.07924418
C       -1.81869232       0.50805441       0.59981364
C       -0.00979351       1.08240001      -0.40594654
H        2.23082449      -0.63691322       1.57328664
H        0.43141706      -0.40668802       1.77638716
H        2.25680477       1.35226853      -0.00070506
H        1.85404795      -1.40881279      -0.80062661
H       -0.30401990      -0.49674162      -1.93882592
H       -1.26291196      -1.61009815       0.63573208
H       -2.27898628      -1.15578253      -0.73965991
H       -2.42265155       1.10746474      -0.10186971
H       -0.69445928       1.33738563       0.59559823
H       -0.09861387       1.88043813      -1.13825988
17
Frame=3 idx=011164 GeodesicLength=0.17023203550760985 rxn_smarts="[C:1]1([H:8])([H:9])[C@:2]2([H:10])[C@@:3]1([H:11])[C@:4]1([H:12])[C:5]([H:13])([H:14])[C:6]([H:15])([H:16])[C@:7]21[H:17]>>[C:1]1([H:8])([H:9])[C@@:2]2([H:10])[C@:3]1([H:11])[C@:4]([C:5]([C:6][H:15])([H:13])[H:14])([H:12])[C:7]2([H:16])[H:17]"
C        1.29041617      -0.36240483       1.11428793
C        1.37846260       0.72760015       0.09334578
C        1.15761711      -0.73013620      -0.32426821
C       -0.23040720      -0.37526930      -0.86009488
C       -1.47986700      -0.81508866      -0.08093822
C       -1.81316893       0.50677253       0.59283886
C       -0.01242887       1.08291455      -0.40354510
H        2.23196949      -0.63556487       1.57293137
H        0.43273053      -0.40534695       1.77797947
H        2.25742203       1.35004975      -0.00553763
H        1.85223498      -1.41074366      -0.79910934
H       -0.30367745      -0.49714809      -1.93980556
H       -1.26430674      -1.61299363       0.63351616
H       -2.27825712      -1.15718475      -0.74412305
H       -2.42814297       1.10502060      -0.10046176
H       -0.69578104       1.35253191       0.61475515
H       -0.09481560       1.87699144      -1.14177096
17
Frame=4 idx=011164 GeodesicLength=0.22583241381048852 rxn_smarts="[C:1]1([H:8])([H:9])[C@:2]2([H:10])[C@@:3]1([H:11])[C@:4]1([H:12])[C:5]([H:13])([H:14])[C:6]([H:15])([H:16])[C@:7]21[H:17]>>[C:1]1([H:8])([H:9])[C@@:2]2([H:10])[C@:3]1([H:11])[C@:4]([C:5]([C:6][H:15])([H:13])[H:14])([H:12])[C:7]2([H:16])[H:17]"
C        1.29096008      -0.36128388       1.11484301
C        1.37826380       0.72681378       0.09190389
C        1.15678991      -0.73055187      -0.32340002
C       -0.22982260      -0.37525177      -0.86124186
C       -1.48087881      -0.81748966      -0.08266598
C       -1.80740427       0.50575762       0.58582378
C       -0.01506354       1.08340005      -0.40122172
H        2.23308976      -0.63414961       1.57257798
H        0.43403196      -0.40398498       1.77951536
H        2.25792645       1.34789432      -0.01025099
H        1.85049635      -1.41263713      -0.79758302
H       -0.30330523      -0.49764774      -1.94084994
H       -1.26575847      -1.61581970       0.63132544
H       -2.27757354      -1.15853120      -0.74855471
H       -2.43356193       1.10254246      -0.09882564
H       -0.69714420       1.36738687       0.63373832
H       -0.09104573       1.87355245      -1.14513388
17
Frame=5 idx=011164 GeodesicLength=0.2809486784897902 rxn_smarts="[C:1]1([H:8])([H:9])[C@:2]2([H:10])[C@@:3]1([H:11])[C@:4]1([H:12])[C:5]([H:13])([H:14])[C:6]([H:15])([H:16])[C@:7]21[H:17]>>[C:1]1([H:8])([H:9])[C@@:2]2([H:10])[C@:3]1([H:11])[C@:4]([C:5]([C:6][H:15])([H:13])[H:14])([H:12])[C:7]2([H:16])[H:17]"
C        1.29146369      -0.36016094       1.11537012
C        1.37803376       0.72605199       0.09043348
C        1.15598818      -0.73100019      -0.32252807
C       -0.22918209      -0.37535288      -0.86248327
C       -1.48191247      -0.81988919      -0.08441808
C       -1.80135300       0.50498999       0.57872225
C       -0.01772509       1.08385166      -0.39892099
H        2.23420019      -0.63268526       1.57223711
H        0.43530039      -0.40254016       1.78104961
H        2.25833567       1.34577132      -0.01492497
H        1.84881560      -1.41456210      -0.79603392
H       -0.30290006      -0.49823667      -1.94197033
H       -1.26726134      -1.61863460       0.62909765
H       -2.27692077      -1.15980288      -0.75300152
H       -2.43893697       1.10002134      -0.09696576
H       -0.69860626       1.38209290       0.65265842
H       -0.08733944       1.87008566      -1.14832172
17
Frame=6 idx=011164 GeodesicLength=0.33584780883329984 rxn_smarts="[C:1]1([H:8])([H:9])[C@:2]2([H:10])[C@@:3]1([H:11])[C@:4]1([H:12])[C:5]([H:13])([H:14])[C:6]([H:15])([H:16])[C@:7]21[H:17]>>[C:1]1([H:8])([H:9])[C@@:2]2([H:10])[C@:3]1([H:11])[C@:4]([C:5]([C:6][H:15])([H:13])[H:14])([H:12])[C:7]2([H:16])[H:17]"
C        1.29195959      -0.35896972       1.11589941
C        1.37773055       0.72529428       0.08897741
C        1.15520982      -0.73147355      -0.32166526
C       -0.22850694      -0.37553947      -0.86383780
C       -1.48295531      -0.82226584      -0.08622384
C       -1.79504463       0.50451440       0.57145519
C       -0.02035535       1.08430441      -0.39672735
H        2.23524499      -0.63113839       1.57190054
H        0.43652991      -0.40103690       1.78256019
H        2.25863571       1.34363889      -0.01959362
H        1.84715043      -1.41651665      -0.79441672
H       -0.30243715      -0.49890170      -1.94316078
H       -1.26878253      -1.62140118       0.62682413
H       -2.27629602      -1.16098662      -0.75746488
H       -2.44427833       1.09737910      -0.09474032
H       -0.70017396       1.39652931       0.67165005
H       -0.08363077       1.86656962      -1.15143636
17
Frame=7 idx=011164 GeodesicLength=0.39020816416488036 rxn_smarts="[C:1]1([H:8])([H:9])[C@:2]2([H:10])[C@@:3]1([H:11])[C@:4]1([H:12])[C:5]([H:13])([H:14])[C:6]([H:15])([H:16])[C@:7]21[H:17]>>[C:1]1([H:8])([H:9])[C@@:2]2([H:10])[C@:3]1([H:11])[C@:4]([C:5]([C:6][H:15])([H:13])[H:14])([H:12])[C:7]2([H:16])[H:17]"
C        1.29241516      -0.35776069       1.11640317
C        1.37737104       0.72457098       0.08752615
C        1.15447144      -0.73196046      -0.32082528
C       -0.22777675      -0.37588331      -0.86529006
C       -1.48402832      -0.82461498      -0.08805029
C       -1.78842589       0.50436333       0.56408073
C       -0.02298595       1.08473146      -0.39462943
H        2.23623765      -0.62956051       1.57161052
H        0.43769295      -0.39947949       1.78403506
H        2.25884059       1.34160178      -0.02414830
H        1.84555989      -1.41844277      -0.79276869
H       -0.30196696      -0.49965966      -1.94443373
H       -1.27037521      -1.62415586       0.62451054
H       -2.27572508      -1.16210194      -0.76191499
H       -2.44954162       1.09468318      -0.09213574
H       -0.70182390       1.41064408       0.69059524
H       -0.07993904       1.86302486      -1.15456490
17
Frame=8 idx=011164 GeodesicLength=0.4442919653017309 rxn_smarts="[C:1]1([H:8])([H:9])[C@:2]2([H:10])[C@@:3]1([H:11])[C@:4]1([H:12])[C:5]([H:13])([H:14])[C:6]([H:15])([H:16])[C@:7]21[H:17]>>[C:1]1([H:8])([H:9])[C@@:2]2([H:10])[C@:3]1([H:11])[C@:4]([C:5]([C:6][H:15])([H:13])[H:14])([H:12])[C:7]2([H:16])[H:17]"
C        1.29286886      -0.35649326       1.11689917
C        1.37693179       0.72384919       0.08608966
C        1.15372774      -0.73245308      -0.31995284
C       -0.22698593      -0.37632475      -0.86685438
C       -1.48513639      -0.82696796      -0.08994414
C       -1.78153348       0.50443916       0.55663870
C       -0.02558911       1.08513014      -0.39258886
H        2.23720465      -0.62788817       1.57131291
H        0.43886365      -0.39787907       1.78550492
H        2.25892643       1.33955083      -0.02876318
H        1.84399137      -1.42043720      -0.79103848
H       -0.30141990      -0.50054809      -1.94575057
H       -1.27200230      -1.62685178       0.62211998
H       -2.27517505      -1.16309933      -0.76644143
H       -2.45471093       1.09193804      -0.08922812
H       -0.70365867       1.42455979       0.70954725
H       -0.07630272       1.85947555      -1.15755059
17
Frame=9 idx=011164 GeodesicLength=0.4983832441244149 rxn_smarts="[C:1]1([H:8])([H:9])[C@:2]2([H:10])[C@@:3]1([H:11])[C@:4]1([H:12])[C:5]([H:13])([H:14])[C:6]([H:15])([H:16])[C@:7]21[H:17]>>[C:1]1([H:8])([H:9])[C@@:2]2([H:10])[C@:3]1([H:11])[C@:4]([C:5]([C:6][H:15])([H:13])[H:14])([H:12])[C:7]2([H:16])[H:17]"
C        1.29327555      -0.35526056       1.11734823
C        1.37636568       0.72313289       0.08464692
C        1.15302741      -0.73297577      -0.31911600
C       -0.22615185      -0.37694799      -0.86854846
C       -1.48625921      -0.82941038      -0.09188426
C       -1.77408290       0.50489466       0.54879653
C       -0.02825977       1.08550573      -0.39059487
H        2.23812787      -0.62618682       1.57104504
H        0.43999000      -0.39621523       1.78692474
H        2.25885901       1.33756211      -0.03325791
H        1.84251639      -1.42237349      -0.78932901
H       -0.30086087      -0.50154283      -1.94720251
H       -1.27368020      -1.62951709       0.61984669
H       -2.27470027      -1.16407367      -0.77087706
H       -2.45986720       1.08921302      -0.08608791
H       -0.70557198       1.43834285       0.72857208
H       -0.07272768       1.85585261      -1.16028223
17
Frame=10 idx=011164 GeodesicLength=0.5521574708329894 rxn_smarts="[C:1]1([H:8])([H:9])[C@:2]2([H:10])[C@@:3]1([H:11])[C@:4]1([H:12])[C:5]([H:13])([H:14])[C:6]([H:15])([H:16])[C@:7]21[H:17]>>[C:1]1([H:8])([H:9])[C@@:2]2([H:10])[C@:3]1([H:11])[C@:4]([C:5]([C:6][H:15])([H:13])[H:14])([H:12])[C:7]2([H:16])[H:17]"
C        1.29364266      -0.35398605       1.11779504
C        1.37577329       0.72242268       0.08319235
C        1.15233967      -0.73353157      -0.31827435
C       -0.22527684      -0.37767109      -0.87034614
C       -1.48739343      -0.83182664      -0.09385549
C       -1.76639646       0.50564747       0.54080020
C       -0.03089052       1.08586034      -0.38870450
H        2.23903051      -0.62441247       1.57076793
H        0.44105792      -0.39446227       1.78832101
H        2.25869830       1.33558775      -0.03774305
H        1.84105789      -1.42435590      -0.78754286
H       -0.30024345      -0.50262628      -1.94871011
H       -1.27541928      -1.63213637       0.61753910
H       -2.27422356      -1.16498243      -0.77537130
H       -2.46497888       1.08637371      -0.08257671
H       -0.70756764       1.45185459       0.74760371
H       -0.06921018       1.85224452      -1.16289483
17
Frame=11 idx=011164 GeodesicLength=0.605741513564885 rxn_smarts="[C:1]1([H:8])([H:9])[C@:2]2([H:10])[C@@:3]1([H:11])[C@:4]1([H:12])[C:5]([H:13])([H:14])[C:6]([H:15])([H:16])[C@:7]21[H:17]>>[C:1]1([H:8])([H:9])[C@@:2]2([H:10])[C@:3]1([H:11])[C@:4]([C:5]([C:6][H:15])([H:13])[H:14])([H:12])[C:7]2([H:16])[H:17]"
C        1.29397569      -0.35272168       1.11821751
C        1.37516226       0.72172017       0.08170881
C        1.15169549      -0.73410750      -0.31745965
C       -0.22434643      -0.37849136      -0.87222713
C       -1.48857628      -0.83417227      -0.09584085
C       -1.75853662       0.50664514       0.53264113
C       -0.03346831       1.08618562      -0.38692633
H        2.23988284      -0.62258334       1.57054249
H        0.44212336      -0.39266403       1.78969783
H        2.25846354       1.33368531      -0.04214113
H        1.83965277      -1.42634854      -0.78572876
H       -0.29960574      -0.50379563      -1.95027775
H       -1.27720186      -1.63467756       0.61520713
H       -2.27377966      -1.16581786      -0.77985172
H       -2.47001413       1.08344849      -0.07869170
H       -0.70974666       1.46506962       0.76667472
H       -0.06568028       1.84862541      -1.16554461
17
Frame=12 idx=011164 GeodesicLength=0.6590131468387455 rxn_smarts="[C:1]1([H:8])([H:9])[C@:2]2([H:10])[C@@:3]1([H:11])[C@:4]1([H:12])[C:5]([H:13])([H:14])[C:6]([H:15])([H:16])[C@:7]21[H:17]>>[C:1]1([H:8])([H:9])[C@@:2]2([H:10])[C@:3]1([H:11])[C@:4]([C:5]([C:6][H:15])([H:13])[H:14])([H:12])[C:7]2([H:16])[H:17]"
C        1.29428056      -0.35135881       1.11864424
C        1.37445437       0.72104845       0.08026651
C        1.15105248      -0.73468745      -0.31662254
C       -0.22336765      -0.37940145      -0.87420139
C       -1.48977649      -0.83649066      -0.09789693
C       -1.75047249       0.50791654       0.52434804
C       -0.03602843       1.08654167      -0.38528295
H        2.24066586      -0.62068789       1.57032690
H        0.44311884      -0.39079766       1.79103896
H        2.25816399       1.33176418      -0.04659341
H        1.83826058      -1.42836042      -0.78382621
H       -0.29890082      -0.50507326      -1.95192656
H       -1.27901571      -1.63717942       0.61281801
H       -2.27334165      -1.16653174      -0.78439685
H       -2.47500583       1.08035984      -0.07437798
H       -0.71192055       1.47801196       0.78578209
H       -0.06216708       1.84492611      -1.16809992
17
Frame=13 idx=011164 GeodesicLength=0.7118413044042058 rxn_smarts="[C:1]1([H:8])([H:9])[C@:2]2([H:10])[C@@:3]1([H:11])[C@:4]1([H:12])[C:5]([H:13])([H:14])[C:6]([H:15])([H:16])[C@:7]21[H:17]>>[C:1]1([H:8])([H:9])[C@@:2]2([H:10])[C@:3]1([H:11])[C@:4]([C:5]([C:6][H:15])([H:13])[H:14])([H:12])[C:7]2([H:16])[H:17]"
C        1.29458241      -0.35000765       1.11902104
C        1.37378078       0.72036705       0.07878777
C        1.15042697      -0.73529687      -0.31579894
C       -0.22236314      -0.38035779      -0.87623517
C       -1.49099030      -0.83867803      -0.09994315
C       -1.74241324       0.50938125       0.51603589
C       -0.03847848       1.08688708      -0.38382622
H        2.24142308      -0.61880876       1.57012338
H        0.44408977      -0.38882084       1.79238431
H        2.25782173       1.32995725      -0.05083534
H        1.83689496      -1.43038263      -0.78196238
H       -0.29819310      -0.50640469      -1.95361436
H       -1.28086564      -1.63960190       0.61044561
H       -2.27292804      -1.16720666      -0.78887845
H       -2.47986063       1.07716042      -0.06982317
H       -0.71430616       1.49056153       0.80488423
H       -0.05862097       1.84125122      -1.17076506
17
Frame=14 idx=011164 GeodesicLength=0.7642995665434099 rxn_smarts="[C:1]1([H:8])([H:9])[C@:2]2([H:10])[C@@:3]1([H:11])[C@:4]1([H:12])[C:5]([H:13])([H:14])[C:6]([H:15])([H:16])[C@:7]21[H:17]>>[C:1]1([H:8])([H:9])[C@@:2]2([H:10])[C@:3]1([H:11])[C@:4]([C:5]([C:6][H:15])([H:13])[H:14])([H:12])[C:7]2([H:16])[H:17]"
C        1.29484395      -0.34864857       1.11939393
C        1.37307144       0.71970031       0.07732716
C        1.14984015      -0.73590552      -0.31502444
C       -0.22133598      -0.38142193      -0.87835313
C       -1.49223204      -0.84081270      -0.10196541
C       -1.73418063       0.51106820       0.50770779
C       -0.04086635       1.08719205      -0.38254611
H        2.24212216      -0.61688986       1.56994063
H        0.44504126      -0.38681824       1.79367418
H        2.25741113       1.32820718      -0.05495769
H        1.83556662      -1.43233484      -0.78006008
H       -0.29747324      -0.50786053      -1.95535677
H       -1.28275106      -1.64198819       0.60803643
H       -2.27255833      -1.16777330      -0.79333520
H       -2.48457140       1.07389788      -0.06497049
H       -0.71687037       1.50282560       0.82393172
H       -0.05505731       1.83756248      -1.17344251
17
Frame=15 idx=011164 GeodesicLength=0.8164773766064475 rxn_smarts="[C:1]1([H:8])([H:9])[C@:2]2([H:10])[C@@:3]1([H:11])[C@:4]1([H:12])[C:5]([H:13])([H:14])[C:6]([H:15])([H:16])[C@:7]21[H:17]>>[C:1]1([H:8])([H:9])[C@@:2]2([H:10])[C@:3]1([H:11])[C@:4]([C:5]([C:6][H:15])([H:13])[H:14])([H:12])[C:7]2([H:16])[H:17]"
C        1.29504955      -0.34725880       1.11977380
C        1.37233728       0.71905198       0.07583934
C        1.14925207      -0.73653226      -0.31424652
C       -0.22026250      -0.38257354      -0.88055690
C       -1.49348303      -0.84288748      -0.10403018
C       -1.72583986       0.51305438       0.49923867
C       -0.04321239       1.08748373      -0.38140878
H        2.24277854      -0.61494889       1.56976536
H        0.44595056      -0.38474113       1.79494732
H        2.25692017       1.32646956      -0.05900000
H        1.83427940      -1.43431158      -0.77813199
H       -0.29669611      -0.50939888      -1.95716725
H       -1.28467485      -1.64431643       0.60562312
H       -2.27220042      -1.16827931      -0.79781525
H       -2.48921872       1.07042567      -0.05971208
H       -0.71947193       1.51488046       0.84297109
H       -0.05150776       1.83388251      -1.17608975
17
Frame=16 idx=011164 GeodesicLength=0.8682663744714633 rxn_smarts="[C:1]1([H:8])([H:9])[C@:2]2([H:10])[C@@:3]1([H:11])[C@:4]1([H:12])[C:5]([H:13])([H:14])[C:6]([H:15])([H:16])[C@:7]21[H:17]>>[C:1]1([H:8])([H:9])[C@@:2]2([H:10])[C@:3]1([H:11])[C@:4]([C:5]([C:6][H:15])([H:13])[H:14])([H:12])[C:7]2([H:16])[H:17]"
C        1.29522691      -0.34584693       1.12013705
C        1.37158575       0.71841654       0.07438514
C        1.14869132      -0.73719163      -0.31348157
C       -0.21915431      -0.38381313      -0.88284759
C       -1.49476260      -0.84488291      -0.10609915
C       -1.71737511       0.51525703       0.49069971
C       -0.04546829       1.08775091      -0.38047064
H        2.24337936      -0.61299684       1.56959808
H        0.44683916      -0.38257047       1.79618231
H        2.25634382       1.32480421      -0.06291850
H        1.83303694      -1.43624829      -0.77620143
H       -0.29591413      -0.51103766      -1.95901533
H       -1.28663693      -1.64656057       0.60319451
H       -2.27186303      -1.16869605      -0.80223951
H       -2.49374428       1.06689293      -0.05415592
H       -0.72224107       1.52652972       0.86199848
H       -0.04794352       1.83019313      -1.17876563
