11
Frame=0 idx=004041 GeodesicLength=0.0 rxn_smarts="[O:1]([c:2]1[c:3]([H:8])[n:4]([H:9])[c:5]([H:10])[c:6]1[H:11])[H:7]>>[O:1]([C:2]1=[C:3]([H:8])[N:4]([H:9])[C:5][C:6]1([H:10])[H:11])[H:7]"
O        2.14569240      -0.16128823       0.00698221
C        0.79163972      -0.08254357      -0.06446376
C       -0.03281038      -1.08188114      -0.46276886
N       -1.32673644      -0.62874797      -0.34969468
C       -1.44573172       0.67866934       0.03137418
C       -0.06190236       1.02137232       0.28240578
H        2.50932478       0.71404301       0.14569818
H        0.21065638      -2.07744528      -0.79967372
H       -2.12863040      -1.20283085      -0.53546640
H       -0.91408274       0.78999798       1.23039199
H        0.25258079       2.03065442       0.51521507
11
Frame=1 idx=004041 GeodesicLength=0.038925971869461284 rxn_smarts="[O:1]([c:2]1[c:3]([H:8])[n:4]([H:9])[c:5]([H:10])[c:6]1[H:11])[H:7]>>[O:1]([C:2]1=[C:3]([H:8])[N:4]([H:9])[C:5][C:6]1([H:10])[H:11])[H:7]"
O        2.14657496      -0.16194410       0.00271128
C        0.79218250      -0.08573572      -0.06144554
C       -0.03093879      -1.08343469      -0.46541990
N       -1.32629731      -0.62986139      -0.35069543
C       -1.44210575       0.67533481       0.03152688
C       -0.06054546       1.01888687       0.28930934
H        2.50840482       0.71161690       0.15648648
H        0.21203976      -2.07446130      -0.81544127
H       -2.12864970      -1.20624440      -0.52751443
H       -0.92555815       0.80262479       1.24258910
H        0.25489312       2.03321822       0.49789347
11
Frame=2 idx=004041 GeodesicLength=0.0778527711132618 rxn_smarts="[O:1]([c:2]1[c:3]([H:8])[n:4]([H:9])[c:5]([H:10])[c:6]1[H:11])[H:7]>>[O:1]([C:2]1=[C:3]([H:8])[N:4]([H:9])[C:5][C:6]1([H:10])[H:11])[H:7]"
O        2.14743466      -0.16252745      -0.00155741
C        0.79273689      -0.08892623      -0.05847682
C       -0.02901770      -1.08490188      -0.46832151
N       -1.32583661      -0.63105270      -0.35155704
C       -1.43847075       0.67188094       0.03194494
C       -0.05917823       1.01640232       0.29625551
H        2.50751179       0.70888245       0.16775912
H        0.21347023      -2.07110924      -0.83170182
H       -2.12854778      -1.20981907      -0.51911708
H       -0.93723323       0.81584205       1.25464053
H        0.25713072       2.03532879       0.48013157
11
Frame=3 idx=004041 GeodesicLength=0.11677805457953944 rxn_smarts="[O:1]([c:2]1[c:3]([H:8])[n:4]([H:9])[c:5]([H:10])[c:6]1[H:11])[H:7]>>[O:1]([C:2]1=[C:3]([H:8])[N:4]([H:9])[C:5][C:6]1([H:10])[H:11])[H:7]"
O        2.14829491      -0.16288517      -0.00612688
C        0.79331317      -0.09204776      -0.05565429
C       -0.02702567      -1.08603040      -0.47202503
N       -1.32533192      -0.63209212      -0.35276205
C       -1.43481016       0.66837207       0.03270655
C       -0.05779423       1.01385394       0.30355212
H        2.50666288       0.70610941       0.17855564
H        0.21486328      -2.06811385      -0.84648055
H       -2.12829707      -1.21318281      -0.51125116
H       -0.94916852       0.82920479       1.26670025
H        0.25929334       2.03681189       0.46278539
11
Frame=4 idx=004041 GeodesicLength=0.15572328793766202 rxn_smarts="[O:1]([c:2]1[c:3]([H:8])[n:4]([H:9])[c:5]([H:10])[c:6]1[H:11])[H:7]>>[O:1]([C:2]1=[C:3]([H:8])[N:4]([H:9])[C:5][C:6]1([H:10])[H:11])[H:7]"
O        2.14914624      -0.16299748      -0.01113248
C        0.79390762      -0.09505295      -0.05314935
C       -0.02497711      -1.08681922      -0.47654894
N       -1.32480357      -0.63304504      -0.35416963
C       -1.43115183       0.66477843       0.03384438
C       -0.05639989       1.01129440       0.31101648
H        2.50584653       0.70314017       0.18952783
H        0.21622581      -2.06539993      -0.86018769
H       -2.12790543      -1.21648368      -0.50356686
H       -0.96124827       0.84283883       1.27872145
H        0.26135990       2.03774647       0.44564482
11
Frame=5 idx=004041 GeodesicLength=0.1945911817916164 rxn_smarts="[O:1]([c:2]1[c:3]([H:8])[n:4]([H:9])[c:5]([H:10])[c:6]1[H:11])[H:7]>>[O:1]([C:2]1=[C:3]([H:8])[N:4]([H:9])[C:5][C:6]1([H:10])[H:11])[H:7]"
O        2.14999952      -0.16281159      -0.01644862
C        0.79453269      -0.09793417      -0.05085965
C       -0.02284172      -1.08695950      -0.48242429
N       -1.32421548      -0.63359182      -0.35639335
C       -1.42745138       0.66119960       0.03533833
C       -0.05498095       1.00858758       0.31906893
H        2.50510438       0.70045030       0.19893607
H        0.21750298      -2.06379643      -0.87071581
H       -2.12735057      -1.21925504      -0.49716264
H       -0.97366854       0.85621888       1.29082980
H        0.26336905       2.03789218       0.42983123
11
Frame=6 idx=004041 GeodesicLength=0.23350195620431852 rxn_smarts="[O:1]([c:2]1[c:3]([H:8])[n:4]([H:9])[c:5]([H:10])[c:6]1[H:11])[H:7]>>[O:1]([C:2]1=[C:3]([H:8])[N:4]([H:9])[C:5][C:6]1([H:10])[H:11])[H:7]"
O        2.15081037      -0.16258477      -0.02166033
C        0.79515676      -0.10080994      -0.04866926
C       -0.02066728      -1.08699760      -0.48854472
N       -1.32362090      -0.63429086      -0.35833382
C       -1.42377128       0.65746656       0.03711368
C       -0.05355865       1.00593357       0.32697766
H        2.50437995       0.69734727       0.20905259
H        0.21884648      -2.06177727      -0.88215989
H       -2.12663715      -1.22234438      -0.49007307
H       -0.98622045       0.87042940       1.30268780
H        0.26528215       2.03762802       0.41360936
11
Frame=7 idx=004041 GeodesicLength=0.2724050728662642 rxn_smarts="[O:1]([c:2]1[c:3]([H:8])[n:4]([H:9])[c:5]([H:10])[c:6]1[H:11])[H:7]>>[O:1]([C:2]1=[C:3]([H:8])[N:4]([H:9])[C:5][C:6]1([H:10])[H:11])[H:7]"
O        2.15160163      -0.16218878      -0.02692684
C        0.79580377      -0.10356882      -0.04674365
C       -0.01841977      -1.08645781      -0.49586657
N       -1.32297801      -0.63467538      -0.36092087
C       -1.42006715       0.65371581       0.03926128
C       -0.05211614       1.00317141       0.33532505
H        2.50372806       0.69447480       0.21778285
H        0.22013262      -2.06070904      -0.89105959
H       -2.12575696      -1.22506094      -0.48401241
H       -0.99905290       0.88459579       1.31458927
H        0.26712485       2.03670296       0.39857148
11
Frame=8 idx=004041 GeodesicLength=0.3113103122462666 rxn_smarts="[O:1]([c:2]1[c:3]([H:8])[n:4]([H:9])[c:5]([H:10])[c:6]1[H:11])[H:7]>>[O:1]([C:2]1=[C:3]([H:8])[N:4]([H:9])[C:5][C:6]1([H:10])[H:11])[H:7]"
O        2.15235896      -0.16177036      -0.03197771
C        0.79645931      -0.10628228      -0.04498944
C       -0.01611814      -1.08556527      -0.50389730
N       -1.32231055      -0.63499408      -0.36365123
C       -1.41636985       0.64985383       0.04174803
C       -0.05066208       1.00036852       0.34378408
H        2.50312664       0.69157118       0.22602406
H        0.22142266      -2.05987716      -0.89924636
H       -2.12470950      -1.22777153      -0.47812426
H       -1.01208278       0.89921342       1.32634935
H        0.26888533       2.03525373       0.38398077
11
Frame=9 idx=004041 GeodesicLength=0.35022972027139204 rxn_smarts="[O:1]([c:2]1[c:3]([H:8])[n:4]([H:9])[c:5]([H:10])[c:6]1[H:11])[H:7]>>[O:1]([C:2]1=[C:3]([H:8])[N:4]([H:9])[C:5][C:6]1([H:10])[H:11])[H:7]"
O        2.15306560      -0.16150917      -0.03642650
C        0.79710064      -0.10910531      -0.04309706
C       -0.01378688      -1.08468568      -0.51184293
N       -1.32164324      -0.63559018      -0.36586263
C       -1.41270266       0.64577888       0.04446248
C       -0.04920631       0.99761995       0.35197372
H        2.50252746       0.68824960       0.23484863
H        0.22284137      -2.05820774      -0.90938382
H       -2.12346520      -1.23098488      -0.47117533
H       -1.02529569       0.91503102       1.33765084
H        0.27056491       2.03340352       0.36885261
11
Frame=10 idx=004041 GeodesicLength=0.3891525210187113 rxn_smarts="[O:1]([c:2]1[c:3]([H:8])[n:4]([H:9])[c:5]([H:10])[c:6]1[H:11])[H:7]>>[O:1]([C:2]1=[C:3]([H:8])[N:4]([H:9])[C:5][C:6]1([H:10])[H:11])[H:7]"
O        2.15373760      -0.16141163      -0.04026422
C        0.79774310      -0.11193048      -0.04129129
C       -0.01140345      -1.08344601      -0.52048203
N       -1.32094819      -0.63612201      -0.36824675
C       -1.40903991       0.64158007       0.04750887
C       -0.04773790       0.99481001       0.36029873
H        2.50197776       0.68505807       0.24271033
H        0.22426605      -2.05672176      -0.91890294
H       -2.12202128      -1.23421380      -0.46441418
H       -1.03875759       0.93137703       1.34873666
H        0.27218380       2.03102052       0.35434682
11
Frame=11 idx=004041 GeodesicLength=0.42808673108937517 rxn_smarts="[O:1]([c:2]1[c:3]([H:8])[n:4]([H:9])[c:5]([H:10])[c:6]1[H:11])[H:7]>>[O:1]([C:2]1=[C:3]([H:8])[N:4]([H:9])[C:5][C:6]1([H:10])[H:11])[H:7]"
O        2.15436415      -0.16136341      -0.04386985
C        0.79836824      -0.11479874      -0.03956499
C       -0.00900585      -1.08213899      -0.52921922
N       -1.32026616      -0.63695575      -0.37009354
C       -1.40543712       0.63711873       0.05087223
C       -0.04627132       0.99208304       0.36825058
H        2.50140396       0.68126570       0.25173938
H        0.22578576      -2.05443732      -0.93025359
H       -2.12033752      -1.23803068      -0.45645383
H       -1.05228282       0.94898002       1.35929633
H        0.27367869       2.02827739       0.33929649
11
Frame=12 idx=004041 GeodesicLength=0.4670302648346582 rxn_smarts="[O:1]([c:2]1[c:3]([H:8])[n:4]([H:9])[c:5]([H:10])[c:6]1[H:11])[H:7]>>[O:1]([C:2]1=[C:3]([H:8])[N:4]([H:9])[C:5][C:6]1([H:10])[H:11])[H:7]"
O        2.15496694      -0.16155245      -0.04680600
C        0.79899024      -0.11771694      -0.03784802
C       -0.00656585      -1.08052228      -0.53849655
N       -1.31955521      -0.63775179      -0.37207633
C       -1.40183670       0.63250068       0.05459807
C       -0.04478532       0.98926984       0.37635639
H        2.50086917       0.67767409       0.25966280
H        0.22731053      -2.05226194      -0.94113153
H       -2.11843355      -1.24187560      -0.44875379
H       -1.06608327       0.96722615       1.36956551
H        0.27512303       2.02501024       0.32492945
11
Frame=13 idx=004041 GeodesicLength=0.5059787160730638 rxn_smarts="[O:1]([c:2]1[c:3]([H:8])[n:4]([H:9])[c:5]([H:10])[c:6]1[H:11])[H:7]>>[O:1]([C:2]1=[C:3]([H:8])[N:4]([H:9])[C:5][C:6]1([H:10])[H:11])[H:7]"
O        2.15553541      -0.16207399      -0.04891466
C        0.79959516      -0.12077888      -0.03596579
C       -0.00409682      -1.07877535      -0.54794410
N       -1.31883099      -0.63872179      -0.37379399
C       -1.39826139       0.62765310       0.05867571
C       -0.04328947       0.98643330       0.38440561
H        2.50034301       0.67404258       0.26719168
H        0.22891001      -2.04958837      -0.95304726
H       -2.11628108      -1.24605597      -0.44059653
H       -1.08012849       0.98657670       1.37933042
H        0.27650466       2.02128867       0.31065891
11
Frame=14 idx=004041 GeodesicLength=0.5449537890861318 rxn_smarts="[O:1]([c:2]1[c:3]([H:8])[n:4]([H:9])[c:5]([H:10])[c:6]1[H:11])[H:7]>>[O:1]([C:2]1=[C:3]([H:8])[N:4]([H:9])[C:5][C:6]1([H:10])[H:11])[H:7]"
O        2.15606132      -0.16285601      -0.05044800
C        0.80016853      -0.12399454      -0.03393461
C       -0.00162503      -1.07696637      -0.55738994
N       -1.31811526      -0.64004277      -0.37492593
C       -1.39474158       0.62248377       0.06312557
C       -0.04179143       0.98363862       0.39216286
H        2.49978753       0.66995221       0.27546344
H        0.23061638      -2.04589748      -0.96712646
H       -2.11381433      -1.25089093      -0.43122954
H       -1.09432696       1.00740881       1.38839091
H        0.27778083       2.01716469       0.29591168
11
Frame=15 idx=004041 GeodesicLength=0.5839420535043616 rxn_smarts="[O:1]([c:2]1[c:3]([H:8])[n:4]([H:9])[c:5]([H:10])[c:6]1[H:11])[H:7]>>[O:1]([C:2]1=[C:3]([H:8])[N:4]([H:9])[C:5][C:6]1([H:10])[H:11])[H:7]"
O        2.15655669      -0.16393120      -0.05136545
C        0.80071889      -0.12734621      -0.03180641
C        0.00085681      -1.07501607      -0.56700355
N       -1.31739449      -0.64158786      -0.37572703
C       -1.39126362       0.61702423       0.06801835
C       -0.04028210       0.98083264       0.39981280
H        2.49922069       0.66566963       0.28376379
H        0.23238291      -2.04157271      -0.98243947
H       -2.11103742      -1.25616710      -0.42122737
H       -1.10871755       1.02949033       1.39680759
H        0.27895920       2.01260433       0.28116675
11
Frame=16 idx=004041 GeodesicLength=0.6229391121999417 rxn_smarts="[O:1]([c:2]1[c:3]([H:8])[n:4]([H:9])[c:5]([H:10])[c:6]1[H:11])[H:7]>>[O:1]([C:2]1=[C:3]([H:8])[N:4]([H:9])[C:5][C:6]1([H:10])[H:11])[H:7]"
O        2.15703261      -0.16526823      -0.05179344
C        0.80125492      -0.13081206      -0.02963448
C        0.00334562      -1.07289444      -0.57680885
N       -1.31666024      -0.64328307      -0.37634004
C       -1.38781513       0.61126590       0.07342848
C       -0.03875006       0.97797003       0.40747271
H        2.49865576       0.66132750       0.29176719
H        0.23417265      -2.03684286      -0.99837962
H       -2.10796733      -1.26173915      -0.41101882
H       -1.12330301       1.05268453       1.40461299
H        0.28003422       2.00759184       0.26669389
