12
Frame=0 idx=001954 GeodesicLength=0.0 rxn_smarts="[C:1]([n:2]1[c:3]([H:10])[c:4]([H:11])[n:5][c:6]1[H:12])([H:7])([H:8])[H:9]>>[C:1](/[N:2]=[C:6](/[N:5]1[C:3]([H:10])=[C:4]1[H:11])[H:12])([H:7])([H:8])[H:9]"
C       -1.99554709      -0.06869497       0.26139639
N       -0.61897775      -0.15028518      -0.17535357
C        1.62682702      -1.07633931      -0.59994315
C        2.34320660      -0.20226481      -0.02411659
N        1.46982380       0.88396601      -0.20999496
C        0.14705983       0.85356671       0.02395499
H       -2.66331811      -0.32447575      -0.56467273
H       -2.17711088      -0.79329021       1.05941318
H       -2.27584662       0.92317988       0.63829704
H        1.05943069      -1.75719400      -1.19050703
H        3.32555227      -0.10784251       0.41738937
H       -0.24109978       1.81967414       0.36413702
12
Frame=1 idx=001954 GeodesicLength=0.06848926850190976 rxn_smarts="[C:1]([n:2]1[c:3]([H:10])[c:4]([H:11])[n:5][c:6]1[H:12])([H:7])([H:8])[H:9]>>[C:1](/[N:2]=[C:6](/[N:5]1[C:3]([H:10])=[C:4]1[H:11])[H:12])([H:7])([H:8])[H:9]"
C       -1.98423088      -0.07532028       0.26097063
N       -0.60495565      -0.14474337      -0.16790563
C        1.58721638      -1.06907505      -0.58107595
C        2.32561307      -0.20668599      -0.00987458
N        1.47242864       0.88994038      -0.23274483
C        0.15019333       0.87329726       0.01118803
H       -2.64527640      -0.34217914      -0.56692380
H       -2.16143847      -0.79716272       1.06231204
H       -2.27458560       0.91621472       0.63035113
H        1.05639122      -1.75146285      -1.20387349
H        3.31373253      -0.12265760       0.41951572
H       -0.23508816       1.82983464       0.37806075
12
Frame=2 idx=001954 GeodesicLength=0.13696632455877847 rxn_smarts="[C:1]([n:2]1[c:3]([H:10])[c:4]([H:11])[n:5][c:6]1[H:12])([H:7])([H:8])[H:9]>>[C:1](/[N:2]=[C:6](/[N:5]1[C:3]([H:10])=[C:4]1[H:11])[H:12])([H:7])([H:8])[H:9]"
C       -1.97324053      -0.08172691       0.26031759
N       -0.59144313      -0.13879995      -0.16083276
C        1.54927905      -1.05985387      -0.56602331
C        2.30835953      -0.21003396       0.00264985
N        1.47466399       0.89534340      -0.25478788
C        0.15333457       0.89208340       0.00016267
H       -2.62757817      -0.35745638      -0.56990365
H       -2.14660136      -0.80232068       1.06346781
H       -2.27295825       0.90877213       0.62419455
H        1.05347546      -1.74813059      -1.21166205
H        3.30147789      -0.13733535       0.42127593
H       -0.22876905       1.83945874       0.39114126
12
Frame=3 idx=001954 GeodesicLength=0.20539691023392073 rxn_smarts="[C:1]([n:2]1[c:3]([H:10])[c:4]([H:11])[n:5][c:6]1[H:12])([H:7])([H:8])[H:9]>>[C:1](/[N:2]=[C:6](/[N:5]1[C:3]([H:10])=[C:4]1[H:11])[H:12])([H:7])([H:8])[H:9]"
C       -1.96252480      -0.08799104       0.25964234
N       -0.57832072      -0.13270172      -0.15366647
C        1.51299709      -1.04908172      -0.55434806
C        2.29156297      -0.21256158       0.01361612
N        1.47661594       0.90021914      -0.27592488
C        0.15658397       0.90990939      -0.00896913
H       -2.61005773      -0.37101258      -0.57336728
H       -2.13256723      -0.80835964       1.06355258
H       -2.27108061       0.90104149       0.61933023
H        1.05046693      -1.74638043      -1.21570934
H        3.28875715      -0.15204967       0.42325441
H       -0.22243296       1.84896836       0.40258946
12
Frame=4 idx=001954 GeodesicLength=0.27387433788864196 rxn_smarts="[C:1]([n:2]1[c:3]([H:10])[c:4]([H:11])[n:5][c:6]1[H:12])([H:7])([H:8])[H:9]>>[C:1](/[N:2]=[C:6](/[N:5]1[C:3]([H:10])=[C:4]1[H:11])[H:12])([H:7])([H:8])[H:9]"
C       -1.95173031      -0.09424990       0.25929265
N       -0.56580761      -0.12601274      -0.14805069
C        1.47813586      -1.03711643      -0.54549899
C        2.27478069      -0.21466032       0.02394567
N        1.47846414       0.90459710      -0.29622665
C        0.15985236       0.92720771      -0.01768683
H       -2.59353063      -0.38222678      -0.57636274
H       -2.11771161      -0.81626564       1.06242228
H       -2.26824957       0.89250381       0.61755680
H        1.04752116      -1.74564784      -1.21729210
H        3.27473913      -0.16725918       0.42738365
H       -0.21646361       1.85913021       0.41051695
12
Frame=5 idx=001954 GeodesicLength=0.3422596589089092 rxn_smarts="[C:1]([n:2]1[c:3]([H:10])[c:4]([H:11])[n:5][c:6]1[H:12])([H:7])([H:8])[H:9]>>[C:1](/[N:2]=[C:6](/[N:5]1[C:3]([H:10])=[C:4]1[H:11])[H:12])([H:7])([H:8])[H:9]"
C       -1.94126084      -0.10036531       0.25885807
N       -0.55353737      -0.11948934      -0.14171674
C        1.44479601      -1.02419599      -0.53915112
C        2.25859141      -0.21616504       0.03279034
N        1.48005518       0.90853868      -0.31570877
C        0.16330148       0.94357117      -0.02451169
H       -2.57688497      -0.39266212      -0.57992383
H       -2.10393116      -0.82424641       1.06083370
H       -2.26551684       0.88405576       0.61585432
H        1.04427164      -1.74595636      -1.21637785
H        3.26064803      -0.18221092       0.43121894
H       -0.21053258       1.86912588       0.41783463
12
Frame=6 idx=001954 GeodesicLength=0.4106165764620022 rxn_smarts="[C:1]([n:2]1[c:3]([H:10])[c:4]([H:11])[n:5][c:6]1[H:12])([H:7])([H:8])[H:9]>>[C:1](/[N:2]=[C:6](/[N:5]1[C:3]([H:10])=[C:4]1[H:11])[H:12])([H:7])([H:8])[H:9]"
C       -1.93089736      -0.10641303       0.25851124
N       -0.54164879      -0.11282946      -0.13574930
C        1.41278322      -1.01051543      -0.53497673
C        2.24268150      -0.21730506       0.04072414
N        1.48149502       0.91209536      -0.33447910
C        0.16685085       0.95932402      -0.03048938
H       -2.56063614      -0.40194541      -0.58348222
H       -2.09019446      -0.83289127       1.05866197
H       -2.26245257       0.87537684       0.61528777
H        1.04084728      -1.74702066      -1.21357515
H        3.24596048      -0.19717150       0.43587545
H       -0.20478902       1.87929561       0.42369133
12
Frame=7 idx=001954 GeodesicLength=0.4789219328946417 rxn_smarts="[C:1]([n:2]1[c:3]([H:10])[c:4]([H:11])[n:5][c:6]1[H:12])([H:7])([H:8])[H:9]>>[C:1](/[N:2]=[C:6](/[N:5]1[C:3]([H:10])=[C:4]1[H:11])[H:12])([H:7])([H:8])[H:9]"
C       -1.92070649      -0.11237547       0.25816231
N       -0.53004472      -0.10619261      -0.12966682
C        1.38203696      -0.99621398      -0.53273753
C        2.22714632      -0.21811155       0.04765032
N        1.48275791       0.91532102      -0.35257186
C        0.17052563       0.97444598      -0.03544009
H       -2.54451709      -0.41055253      -0.58721666
H       -2.07684714      -0.84174250       1.05615180
H       -2.25930821       0.86667444       0.61509014
H        1.03715379      -1.74871250      -1.20904693
H        3.23095587      -0.21199463       0.44079478
H       -0.19915283       1.88945431       0.42883055
12
Frame=8 idx=001954 GeodesicLength=0.5471788472571146 rxn_smarts="[C:1]([n:2]1[c:3]([H:10])[c:4]([H:11])[n:5][c:6]1[H:12])([H:7])([H:8])[H:9]>>[C:1](/[N:2]=[C:6](/[N:5]1[C:3]([H:10])=[C:4]1[H:11])[H:12])([H:7])([H:8])[H:9]"
C       -1.91067545      -0.11826131       0.25778746
N       -0.51869967      -0.09958267      -0.12346266
C        1.35246004      -0.98139952      -0.53222962
C        2.21196629      -0.21863741       0.05363460
N        1.48385337       0.91828210      -0.37005031
C        0.17432379       0.98901800      -0.03949255
H       -2.52849437      -0.41862686      -0.59112821
H       -2.06385491      -0.85072064       1.05336973
H       -2.25612085       0.85797678       0.61511092
H        1.03315730      -1.75095429      -1.20292387
H        3.21567942      -0.22665290       0.44587952
H       -0.19359497       1.89955871       0.43350499
12
Frame=9 idx=001954 GeodesicLength=0.6154177027729696 rxn_smarts="[C:1]([n:2]1[c:3]([H:10])[c:4]([H:11])[n:5][c:6]1[H:12])([H:7])([H:8])[H:9]>>[C:1](/[N:2]=[C:6](/[N:5]1[C:3]([H:10])=[C:4]1[H:11])[H:12])([H:7])([H:8])[H:9]"
C       -1.90074241      -0.12409234       0.25743417
N       -0.50764741      -0.09295474      -0.11741270
C        1.32394021      -0.96618005      -0.53321215
C        2.19701266      -0.21901380       0.05893570
N        1.48481495       0.92094840      -0.38690888
C        0.17821028       1.00309914      -0.04295902
H       -2.51270248      -0.42611205      -0.59503636
H       -2.05092867      -0.85992267       1.05031023
H       -2.25278543       0.84920614       0.61557527
H        1.02897767      -1.75342717      -1.19547570
H        3.20003380      -0.24125134       0.45129115
H       -0.18818317       1.90970049       0.43745828
12
Frame=10 idx=001954 GeodesicLength=0.6836131989519564 rxn_smarts="[C:1]([n:2]1[c:3]([H:10])[c:4]([H:11])[n:5][c:6]1[H:12])([H:7])([H:8])[H:9]>>[C:1](/[N:2]=[C:6](/[N:5]1[C:3]([H:10])=[C:4]1[H:11])[H:12])([H:7])([H:8])[H:9]"
C       -1.89096622      -0.12986028       0.25700691
N       -0.49678443      -0.08641521      -0.11105526
C        1.29642361      -0.95060906      -0.53557766
C        2.18241313      -0.21919531       0.06335161
N        1.48560493       0.92342886      -0.40323474
C        0.18222417       1.01669919      -0.04559091
H       -2.49685749      -0.43335498      -0.59917923
H       -2.03843584      -0.86904537       1.04711381
H       -2.24952100       0.84051480       0.61587344
H        1.02444233      -1.75621772      -1.18660102
H        3.18426160      -0.25565139       0.45654007
H       -0.18280478       1.91970649       0.44135299
12
Frame=11 idx=001954 GeodesicLength=0.751788977584828 rxn_smarts="[C:1]([n:2]1[c:3]([H:10])[c:4]([H:11])[n:5][c:6]1[H:12])([H:7])([H:8])[H:9]>>[C:1](/[N:2]=[C:6](/[N:5]1[C:3]([H:10])=[C:4]1[H:11])[H:12])([H:7])([H:8])[H:9]"
C       -1.88129558      -0.13558342       0.25652775
N       -0.48612521      -0.07991596      -0.10459730
C        1.26981557      -0.93474918      -0.53917183
C        2.16808759      -0.21924437       0.06701578
N        1.48624361       0.92573440      -0.41908092
C        0.18634696       1.02988425      -0.04761487
H       -2.48105168      -0.44025939      -0.60346199
H       -2.02617110      -0.87821745       1.04371925
H       -2.24623351       0.83182452       0.61622364
H        1.01959226      -1.75918294      -1.17638254
H        3.16827287      -0.26990704       0.46177159
H       -0.17748179       1.92961658       0.44505144
12
Frame=12 idx=001954 GeodesicLength=0.8199624832805551 rxn_smarts="[C:1]([n:2]1[c:3]([H:10])[c:4]([H:11])[n:5][c:6]1[H:12])([H:7])([H:8])[H:9]>>[C:1](/[N:2]=[C:6](/[N:5]1[C:3]([H:10])=[C:4]1[H:11])[H:12])([H:7])([H:8])[H:9]"
C       -1.87169264      -0.14127957       0.25601967
N       -0.47567785      -0.07343629      -0.09818763
C        1.24403388      -0.91866956      -0.54384652
C        2.15397268      -0.21921427       0.07004707
N        1.48675634       0.92786921      -0.43449488
C        0.19056810       1.04270123      -0.04921394
H       -2.46536046      -0.44677019      -0.60780892
H       -2.01398328      -0.88752892       1.04010120
H       -2.24284863       0.82308398       0.61678506
H        1.01446271      -1.76216239      -1.16494518
H        3.15199599      -0.28405937       0.46711163
H       -0.17222685       1.93946615       0.44843244
12
Frame=13 idx=001954 GeodesicLength=0.8881310897975863 rxn_smarts="[C:1]([n:2]1[c:3]([H:10])[c:4]([H:11])[n:5][c:6]1[H:12])([H:7])([H:8])[H:9]>>[C:1](/[N:2]=[C:6](/[N:5]1[C:3]([H:10])=[C:4]1[H:11])[H:12])([H:7])([H:8])[H:9]"
C       -1.86219643      -0.14694655       0.25543639
N       -0.46537746      -0.06706719      -0.09148904
C        1.21901402      -0.90245292      -0.54938832
C        2.14013997      -0.21911004       0.07238756
N        1.48710054       0.92982959      -0.44953024
C        0.19490522       1.05511394      -0.05023294
H       -2.44957980      -0.45312364      -0.61234815
H       -2.00212600      -0.89676532       1.03637389
H       -2.23951493       0.81439123       0.61714620
H        1.00898659      -1.76499689      -1.15233686
H        3.13563043      -0.29804097       0.47218029
H       -0.16698216       1.94916876       0.45180123
12
Frame=14 idx=001954 GeodesicLength=0.9563131411321082 rxn_smarts="[C:1]([n:2]1[c:3]([H:10])[c:4]([H:11])[n:5][c:6]1[H:12])([H:7])([H:8])[H:9]>>[C:1](/[N:2]=[C:6](/[N:5]1[C:3]([H:10])=[C:4]1[H:11])[H:12])([H:7])([H:8])[H:9]"
C       -1.85277742      -0.15259954       0.25480876
N       -0.45523179      -0.06079920      -0.08460818
C        1.19467941      -0.88618783      -0.55560156
C        2.12654322      -0.21897480       0.07416040
N        1.48729228       0.93158563      -0.46424700
C        0.19935146       1.06714687      -0.05083297
H       -2.43377019      -0.45927823      -0.61700332
H       -1.99048353      -0.90599664       1.03253238
H       -2.23616842       0.80570690       0.61744233
H        1.00319469      -1.76748018      -1.13877385
H        3.11912251      -0.31187606       0.47711722
H       -0.16175222       1.95875308       0.45500581
12
Frame=15 idx=001954 GeodesicLength=1.0245217328870297 rxn_smarts="[C:1]([n:2]1[c:3]([H:10])[c:4]([H:11])[n:5][c:6]1[H:12])([H:7])([H:8])[H:9]>>[C:1](/[N:2]=[C:6](/[N:5]1[C:3]([H:10])=[C:4]1[H:11])[H:12])([H:7])([H:8])[H:9]"
C       -1.84343520      -0.15824514       0.25415025
N       -0.44522994      -0.05466152      -0.07749416
C        1.17096053      -0.86998030      -0.56223682
C        2.11318141      -0.21883485       0.07545341
N        1.48732375       0.93308828      -0.47870437
C        0.20390900       1.07879091      -0.05106486
H       -2.41790787      -0.46528623      -0.62175758
H       -1.97907620      -0.91519001       1.02862602
H       -2.23281857       0.79704568       0.61762655
H        0.99709833      -1.76939917      -1.12450715
H        3.10251876      -0.32554597       0.48189988
H       -0.15652401       1.96821834       0.45800881
12
Frame=16 idx=001954 GeodesicLength=1.0927695163133504 rxn_smarts="[C:1]([n:2]1[c:3]([H:10])[c:4]([H:11])[n:5][c:6]1[H:12])([H:7])([H:8])[H:9]>>[C:1](/[N:2]=[C:6](/[N:5]1[C:3]([H:10])=[C:4]1[H:11])[H:12])([H:7])([H:8])[H:9]"
C       -1.83418237      -0.16388494       0.25346510
N       -0.43535095      -0.04869494      -0.07001090
C        1.14778938      -0.85393512      -0.56902783
C        2.10008125      -0.21870116       0.07632448
N        1.48716880       0.93428281      -0.49296379
C        0.20858444       1.09002506      -0.05091938
H       -2.40191604      -0.47125123      -0.62662492
H       -1.96799354      -0.92426054       1.02473159
H       -2.22951514       0.78844892       0.61755424
H        0.99068899      -1.77056897      -1.10980398
H        3.08591508      -0.33900724       0.48643619
H       -0.15126989       1.97754736       0.46083920
