10
Frame=0 idx=002222 GeodesicLength=0.0 rxn_smarts="[C:1](#[C:2][C@@:3]1([H:7])[C:4]([H:8])([H:9])[N:5]1[H:10])[H:6]>>[C:1](/[C:2](=[C:3]1/[C:4]([H:8])([H:9])[N:5]1[H:10])[H:7])[H:6]"
C        2.45223319      -0.42916302       0.14651010
C        1.17124236      -0.25595417       0.29550683
C       -0.10956682       0.01564481      -0.10569755
C       -1.35503134       0.75758783      -0.01396079
N       -1.13220830      -0.43334758      -0.87257831
H        2.95838993      -1.04578088       0.88945516
H        0.49840804      -0.59262897       1.22363324
H       -1.36669134       1.74521159      -0.46582242
H       -2.07078108       0.59312751       0.78263363
H       -1.04599464      -0.35469713      -1.87967988
10
Frame=1 idx=002222 GeodesicLength=0.05287918670627596 rxn_smarts="[C:1](#[C:2][C@@:3]1([H:7])[C:4]([H:8])([H:9])[N:5]1[H:10])[H:6]>>[C:1](/[C:2](=[C:3]1/[C:4]([H:8])([H:9])[N:5]1[H:10])[H:7])[H:6]"
C        2.43633271      -0.45318949       0.11381175
C        1.16958262      -0.23899417       0.31495114
C       -0.12169017       0.00178424      -0.07362834
C       -1.36250401       0.75541104      -0.01631434
N       -1.12695797      -0.43388501      -0.87224550
H        2.97601582      -1.03742989       0.85921690
H        0.48779701      -0.58442355       1.25064602
H       -1.35109329       1.74511540      -0.46393279
H       -2.09804444       0.59544485       0.76323656
H       -1.00943828      -0.34983340      -1.87574142
10
Frame=2 idx=002222 GeodesicLength=0.10529153744673234 rxn_smarts="[C:1](#[C:2][C@@:3]1([H:7])[C:4]([H:8])([H:9])[N:5]1[H:10])[H:6]>>[C:1](/[C:2](=[C:3]1/[C:4]([H:8])([H:9])[N:5]1[H:10])[H:7])[H:6]"
C        2.41908031      -0.46731766       0.08758295
C        1.16666357      -0.22449212       0.33442354
C       -0.13439005      -0.01370152      -0.04108566
C       -1.36845103       0.75301749      -0.01928342
N       -1.12147520      -0.43491910      -0.87130880
H        2.99180055      -1.03341728       0.82123871
H        0.47628875      -0.57586442       1.27879369
H       -1.33287354       1.74392610      -0.46229051
H       -2.12395375       0.59899610       0.74185552
H       -0.97268961      -0.34622759      -1.86992602
10
Frame=3 idx=002222 GeodesicLength=0.15811313061098461 rxn_smarts="[C:1](#[C:2][C@@:3]1([H:7])[C:4]([H:8])([H:9])[N:5]1[H:10])[H:6]>>[C:1](/[C:2](=[C:3]1/[C:4]([H:8])([H:9])[N:5]1[H:10])[H:7])[H:6]"
C        2.39951821      -0.48479614       0.06084246
C        1.16213681      -0.21712925       0.35028987
C       -0.14794886      -0.03199599      -0.01054935
C       -1.37221466       0.75143368      -0.02169544
N       -1.11802253      -0.43536861      -0.87114285
H        3.01054607      -1.01631961       0.78926202
H        0.46289497      -0.57257763       1.30462695
H       -1.31071397       1.74371271      -0.45874257
H       -2.14698893       0.60494259       0.72139033
H       -0.93920712      -0.34190176      -1.86428142
10
Frame=4 idx=002222 GeodesicLength=0.2110606974129154 rxn_smarts="[C:1](#[C:2][C@@:3]1([H:7])[C:4]([H:8])([H:9])[N:5]1[H:10])[H:6]>>[C:1](/[C:2](=[C:3]1/[C:4]([H:8])([H:9])[N:5]1[H:10])[H:7])[H:6]"
C        2.37982972      -0.49537733       0.03832898
C        1.15676597      -0.21076022       0.36644390
C       -0.16172686      -0.05073758       0.01996373
C       -1.37485159       0.74979283      -0.02441338
N       -1.11389202      -0.43632883      -0.87041374
H        3.02711876      -1.00260630       0.75180231
H        0.44828058      -0.56943391       1.33101242
H       -1.28735245       1.74271158      -0.45525859
H       -2.16883323       0.61174351       0.69968896
H       -0.90533887      -0.33900375      -1.85715458
10
Frame=5 idx=002222 GeodesicLength=0.26410656500293134 rxn_smarts="[C:1](#[C:2][C@@:3]1([H:7])[C:4]([H:8])([H:9])[N:5]1[H:10])[H:6]>>[C:1](/[C:2](=[C:3]1/[C:4]([H:8])([H:9])[N:5]1[H:10])[H:7])[H:6]"
C        2.35854347      -0.50929580       0.01619389
C        1.15029513      -0.20897622       0.38051117
C       -0.17583323      -0.07061566       0.04863617
C       -1.37577265       0.74874462      -0.02676989
N       -1.11077360      -0.43683371      -0.87002209
H        3.04538644      -0.97940815       0.71756302
H        0.43174266      -0.56984353       1.35561428
H       -1.26172906       1.74198564      -0.45051689
H       -2.18798138       0.62026656       0.67864597
H       -0.87387778      -0.33602377      -1.84985561
10
Frame=6 idx=002222 GeodesicLength=0.3174294956700643 rxn_smarts="[C:1](#[C:2][C@@:3]1([H:7])[C:4]([H:8])([H:9])[N:5]1[H:10])[H:6]>>[C:1](/[C:2](=[C:3]1/[C:4]([H:8])([H:9])[N:5]1[H:10])[H:7])[H:6]"
C        2.33791401      -0.51670199      -0.00262098
C        1.14347583      -0.20685631       0.39522358
C       -0.18961974      -0.08976434       0.07694830
C       -1.37586023       0.74754067      -0.02933437
N       -1.10647803      -0.43791205      -0.86893416
H        3.06054816      -0.96098978       0.67864871
H        0.41394254      -0.57011173       1.38044927
H       -1.23620437       1.74042510      -0.44601052
H       -2.20584730       0.62894317       0.65683204
H       -0.84187087      -0.33457274      -1.84120187
10
Frame=7 idx=002222 GeodesicLength=0.37071101009456564 rxn_smarts="[C:1](#[C:2][C@@:3]1([H:7])[C:4]([H:8])([H:9])[N:5]1[H:10])[H:6]>>[C:1](/[C:2](=[C:3]1/[C:4]([H:8])([H:9])[N:5]1[H:10])[H:7])[H:6]"
C        2.31782593      -0.52129781      -0.01942396
C        1.13667638      -0.20493303       0.40955897
C       -0.20272343      -0.10783312       0.10394973
C       -1.37516100       0.74631266      -0.03187009
N       -1.10145863      -0.43923399      -0.86747330
H        3.07345995      -0.94414277       0.63873925
H        0.39509553      -0.57077221       1.40447342
H       -1.21135056       1.73838585      -0.44145531
H       -2.22178102       0.63755997       0.63533451
H       -0.81058314      -0.33404556      -1.83183324
10
Frame=8 idx=002222 GeodesicLength=0.4240028938720844 rxn_smarts="[C:1](#[C:2][C@@:3]1([H:7])[C:4]([H:8])([H:9])[N:5]1[H:10])[H:6]>>[C:1](/[C:2](=[C:3]1/[C:4]([H:8])([H:9])[N:5]1[H:10])[H:7])[H:6]"
C        2.29715413      -0.52771911      -0.03516088
C        1.12937672      -0.20569677       0.42312881
C       -0.21566953      -0.12578509       0.12947488
C       -1.37324824       0.74549234      -0.03426026
N       -1.09680099      -0.44036545      -0.86591089
H        3.08670664      -0.92179155       0.59965732
H        0.37439445      -0.57369924       1.42724654
H       -1.18548526       1.73625075      -0.43642589
H       -2.23547683       0.64730473       0.61428685
H       -0.78095109      -0.33399060      -1.82203648
10
Frame=9 idx=002222 GeodesicLength=0.47742217776552875 rxn_smarts="[C:1](#[C:2][C@@:3]1([H:7])[C:4]([H:8])([H:9])[N:5]1[H:10])[H:6]>>[C:1](/[C:2](=[C:3]1/[C:4]([H:8])([H:9])[N:5]1[H:10])[H:7])[H:6]"
C        2.27654502      -0.53379080      -0.04960521
C        1.12189363      -0.20782602       0.43649572
C       -0.22825208      -0.14314263       0.15386595
C       -1.37048857       0.74491487      -0.03658164
N       -1.09195931      -0.44159628      -0.86415303
H        3.09919389      -0.89751569       0.56015332
H        0.35217917      -0.57796733       1.44935491
H       -1.15946615       1.73398378      -0.43126022
H       -2.24740055       0.65762536       0.59359733
H       -0.75224505      -0.33468526      -1.81186712
10
Frame=10 idx=002222 GeodesicLength=0.5309207927445662 rxn_smarts="[C:1](#[C:2][C@@:3]1([H:7])[C:4]([H:8])([H:9])[N:5]1[H:10])[H:6]>>[C:1](/[C:2](=[C:3]1/[C:4]([H:8])([H:9])[N:5]1[H:10])[H:7])[H:6]"
C        2.25677910      -0.53646134      -0.06243293
C        1.11465327      -0.20954869       0.45012921
C       -0.24013256      -0.15925532       0.17741991
C       -1.36723562       0.74416303      -0.03895340
N       -1.08626988      -0.44310767      -0.86196097
H        3.10915614      -0.87614970       0.51898688
H        0.32899240      -0.58214018       1.47103823
H       -1.13426845       1.73117324      -0.42616437
H       -2.25798871       0.66748802       0.57289799
H       -0.72368570      -0.33616140      -1.80096055
10
Frame=11 idx=002222 GeodesicLength=0.5844613653025443 rxn_smarts="[C:1](#[C:2][C@@:3]1([H:7])[C:4]([H:8])([H:9])[N:5]1[H:10])[H:6]>>[C:1](/[C:2](=[C:3]1/[C:4]([H:8])([H:9])[N:5]1[H:10])[H:7])[H:6]"
C        2.23727209      -0.53863324      -0.07418044
C        1.10745931      -0.21217438       0.46366239
C       -0.25156297      -0.17465703       0.19998597
C       -1.36331633       0.74354070      -0.04129001
N       -1.08034300      -0.44469961      -0.85954530
H        3.11797169      -0.85368800       0.47742766
H        0.30457484      -0.58719843       1.49209028
H       -1.10915960       1.72814730      -0.42102057
H       -2.26701191       0.67763404       0.55253539
H       -0.69588412      -0.33827135      -1.78966538
10
Frame=12 idx=002222 GeodesicLength=0.6381367907201333 rxn_smarts="[C:1](#[C:2][C@@:3]1([H:7])[C:4]([H:8])([H:9])[N:5]1[H:10])[H:6]>>[C:1](/[C:2](=[C:3]1/[C:4]([H:8])([H:9])[N:5]1[H:10])[H:7])[H:6]"
C        2.21782669      -0.54105210      -0.08497580
C        1.10018487      -0.21625090       0.47720468
C       -0.26274731      -0.18964488       0.22172131
C       -1.35862544       0.74314755      -0.04358987
N       -1.07439892      -0.44635515      -0.85693454
H        3.12604418      -0.82873056       0.43533429
H        0.27868256      -0.59344213       1.51262516
H       -1.08358154       1.72496493      -0.41576435
H       -2.27453315       0.68842645       0.53237946
H       -0.66885194      -0.34106321      -1.77800034
10
Frame=13 idx=002222 GeodesicLength=0.6918936970497425 rxn_smarts="[C:1](#[C:2][C@@:3]1([H:7])[C:4]([H:8])([H:9])[N:5]1[H:10])[H:6]>>[C:1](/[C:2](=[C:3]1/[C:4]([H:8])([H:9])[N:5]1[H:10])[H:7])[H:6]"
C        2.19769650      -0.54699192      -0.09490657
C        1.09241577      -0.22373057       0.49076275
C       -0.27417338      -0.20496098       0.24268231
C       -1.35275477       0.74338625      -0.04583981
N       -1.06913883      -0.44790181      -0.85427766
H        3.13479113      -0.79598169       0.39285774
H        0.25061964      -0.60204913       1.53269295
H       -1.05609486       1.72178171      -0.41023730
H       -2.28022567       0.70114743       0.51241916
H       -0.64313553      -0.34469928      -1.76615356
10
Frame=14 idx=002222 GeodesicLength=0.7461266375517869 rxn_smarts="[C:1](#[C:2][C@@:3]1([H:7])[C:4]([H:8])([H:9])[N:5]1[H:10])[H:6]>>[C:1](/[C:2](=[C:3]1/[C:4]([H:8])([H:9])[N:5]1[H:10])[H:7])[H:6]"
C        2.17839956      -0.54868100      -0.10375496
C        1.08491929      -0.23047607       0.50484599
C       -0.28497353      -0.21924574       0.26323414
C       -1.34638099       0.74326325      -0.04811738
N       -1.06283198      -0.44974201      -0.85114832
H        3.14004370      -0.76681356       0.34839482
H        0.22159882      -0.61041407       1.55251259
H       -1.02911560       1.71796900      -0.40475820
H       -2.28480031       0.71308976       0.49228008
H       -0.61685895      -0.34894956      -1.75348876
10
Frame=15 idx=002222 GeodesicLength=0.8003890927577101 rxn_smarts="[C:1](#[C:2][C@@:3]1([H:7])[C:4]([H:8])([H:9])[N:5]1[H:10])[H:6]>>[C:1](/[C:2](=[C:3]1/[C:4]([H:8])([H:9])[N:5]1[H:10])[H:7])[H:6]"
C        2.15963680      -0.54947452      -0.11171225
C        1.07762150      -0.23817855       0.51923735
C       -0.29549977      -0.23310691       0.28325167
C       -1.33949035       0.74327928      -0.05039327
N       -1.05637914      -0.45176548      -0.84793745
H        3.14394306      -0.73683718       0.30299808
H        0.19144659      -0.61942592       1.57211453
H       -1.00199155       1.71399362      -0.39914294
H       -2.28826749       0.72546253       0.47217705
H       -0.59101966      -0.35394687      -1.74059279
10
Frame=16 idx=002222 GeodesicLength=0.8549146264841077 rxn_smarts="[C:1](#[C:2][C@@:3]1([H:7])[C:4]([H:8])([H:9])[N:5]1[H:10])[H:6]>>[C:1](/[C:2](=[C:3]1/[C:4]([H:8])([H:9])[N:5]1[H:10])[H:7])[H:6]"
C        2.14053820      -0.55239599      -0.11871474
C        1.07001004      -0.24836679       0.53363677
C       -0.30607996      -0.24708738       0.30268026
C       -1.33134742       0.74358450      -0.05263408
N       -1.05015174      -0.45378798      -0.84448171
H        3.14646867      -0.70108339       0.25668929
H        0.15937285      -0.62980519       1.59122430
H       -0.97309503       1.70961687      -0.39339924
H       -2.28975706       0.73911093       0.45228025
H       -0.56595855      -0.35978559      -1.72728110
