14
Frame=0 idx=002331 GeodesicLength=0.0 rxn_smarts="[O:1]=[C:2]([C:3]([C:4]1([H:10])[C:5]([H:11])([H:12])[C:6]1([H:13])[H:14])([H:8])[H:9])[H:7]>>[C:3](=[C:4]1[C:5]([H:11])([H:12])[C:6]1([H:13])[H:14])([H:8])[H:9].[O:1]=[C:2]([H:7])[H:10]"
O        1.81686426       1.42655012      -0.97839707
C        1.53434748       0.28179551      -0.62253103
C        0.92726976       0.08961733       1.05554759
C       -0.17356530      -0.08642461       0.22393824
C       -1.34121449      -0.94099509      -0.04654686
C       -1.40855743       0.57835035      -0.18061468
H        2.18344783      -0.60430113      -0.59855684
H        1.33532441      -0.76651830       1.57884646
H        1.11498877       1.06271921       1.48776525
H        0.59004656      -0.24583398      -1.16310537
H       -1.38396424      -1.51728922      -0.96146049
H       -1.79958496      -1.41693401       0.81261434
H       -1.46704181       0.98539592      -1.18230524
H       -1.92836086       1.15386796       0.57480568
14
Frame=1 idx=002331 GeodesicLength=0.10171206117752693 rxn_smarts="[O:1]=[C:2]([C:3]([C:4]1([H:10])[C:5]([H:11])([H:12])[C:6]1([H:13])[H:14])([H:8])[H:9])[H:7]>>[C:3](=[C:4]1[C:5]([H:11])([H:12])[C:6]1([H:13])[H:14])([H:8])[H:9].[O:1]=[C:2]([H:7])[H:10]"
O        1.80880164       1.43151983      -1.00330020
C        1.55852097       0.28670437      -0.63101230
C        0.92142050       0.08250781       1.05297510
C       -0.17644551      -0.09742688       0.21720903
C       -1.35459832      -0.93992909      -0.04219135
C       -1.40988605       0.57906330      -0.17755699
H        2.24063713      -0.57426970      -0.59110962
H        1.32760085      -0.77505823       1.57630948
H        1.09422369       1.05241285       1.49915456
H        0.60129401      -0.26717628      -1.16653713
H       -1.40685589      -1.51557241      -0.95716820
H       -1.81253829      -1.40939471       0.82071339
H       -1.47056237       0.98841491      -1.17816344
H       -1.92161238       1.15820424       0.58067766
14
Frame=2 idx=002331 GeodesicLength=0.20336067925180898 rxn_smarts="[O:1]=[C:2]([C:3]([C:4]1([H:10])[C:5]([H:11])([H:12])[C:6]1([H:13])[H:14])([H:8])[H:9])[H:7]>>[C:3](=[C:4]1[C:5]([H:11])([H:12])[C:6]1([H:13])[H:14])([H:8])[H:9].[O:1]=[C:2]([H:7])[H:10]"
O        1.80016185       1.43532619      -1.02968282
C        1.58302949       0.29187660      -0.63952177
C        0.91553091       0.07490367       1.05009149
C       -0.17967346      -0.10863306       0.21049147
C       -1.36835965      -0.93865860      -0.03772543
C       -1.41122183       0.57987169      -0.17450482
H        2.29874131      -0.54102212      -0.58201467
H        1.32001473      -0.78433256       1.57292896
H        1.07345378       1.04098790       1.51060477
H        0.61291631      -0.28946607      -1.16935910
H       -1.43018085      -1.51359145      -0.95269829
H       -1.82582706      -1.40152346       0.82894396
H       -1.47389770       0.99152810      -1.17402578
H       -1.91468783       1.16273318       0.58647204
14
Frame=3 idx=002331 GeodesicLength=0.3049556816622088 rxn_smarts="[O:1]=[C:2]([C:3]([C:4]1([H:10])[C:5]([H:11])([H:12])[C:6]1([H:13])[H:14])([H:8])[H:9])[H:7]>>[C:3](=[C:4]1[C:5]([H:11])([H:12])[C:6]1([H:13])[H:14])([H:8])[H:9].[O:1]=[C:2]([H:7])[H:10]"
O        1.79111753       1.43773033      -1.05761876
C        1.60790936       0.29725968      -0.64808297
C        0.90960432       0.06680403       1.04687830
C       -0.18326265      -0.12003317       0.20377246
C       -1.38249257      -0.93717833      -0.03316017
C       -1.41258447       0.58077954      -0.17143775
H        2.35759057      -0.50430730      -0.57114986
H        1.31257521      -0.79434528       1.56868409
H        1.05270933       1.02842004       1.52209766
H        0.62488733      -0.31265607      -1.17156856
H       -1.45393562      -1.51132166      -0.94807544
H       -1.83941926      -1.39334202       0.83729573
H       -1.47709862       0.99475812      -1.16986772
H       -1.90760046       1.16743208       0.59223299
14
Frame=4 idx=002331 GeodesicLength=0.4065918077488253 rxn_smarts="[O:1]=[C:2]([C:3]([C:4]1([H:10])[C:5]([H:11])([H:12])[C:6]1([H:13])[H:14])([H:8])[H:9])[H:7]>>[C:3](=[C:4]1[C:5]([H:11])([H:12])[C:6]1([H:13])[H:14])([H:8])[H:9].[O:1]=[C:2]([H:7])[H:10]"
O        1.78188654       1.43848297      -1.08722431
C        1.63322245       0.30278099      -0.65674245
C        0.90364506       0.05821322       1.04333723
C       -0.18722128      -0.13161614       0.19703484
C       -1.39697810      -0.93549248      -0.02850994
C       -1.41401021       0.58180868      -0.16832767
H        2.41699003      -0.46390226      -0.55839805
H        1.30530004      -0.80510863       1.56359994
H        1.03198693       1.01470764       1.53364887
H        0.63718172      -0.33669033      -1.17320501
H       -1.47810568      -1.50874495      -0.94335420
H       -1.85325857      -1.38490116       0.84577424
H       -1.48024840       0.99816582      -1.16567363
H       -1.90039053       1.17229662       0.59804013
14
Frame=5 idx=002331 GeodesicLength=0.5079383193103104 rxn_smarts="[O:1]=[C:2]([C:3]([C:4]1([H:10])[C:5]([H:11])([H:12])[C:6]1([H:13])[H:14])([H:8])[H:9])[H:7]>>[C:3](=[C:4]1[C:5]([H:11])([H:12])[C:6]1([H:13])[H:14])([H:8])[H:9].[O:1]=[C:2]([H:7])[H:10]"
O        1.77258068       1.43732238      -1.11837982
C        1.65896374       0.30841290      -0.66543738
C        0.89766364       0.04911128       1.03936440
C       -0.19155894      -0.14339105       0.19025477
C       -1.41184449      -0.93356504      -0.02376765
C       -1.41542424       0.58289047      -0.16517779
H        2.47662884      -0.41932776      -0.54364054
H        1.29817142      -0.81658362       1.55748055
H        1.01140835       0.99973187       1.54513778
H        0.64972572      -0.36154347      -1.17415918
H       -1.50276454      -1.50581841      -0.93843849
H       -1.86738084      -1.37610436       0.85432163
H       -1.48326655       1.00162165      -1.16137338
H       -1.89290280       1.17724315       0.60381511
14
Frame=6 idx=002331 GeodesicLength=0.609328141951216 rxn_smarts="[O:1]=[C:2]([C:3]([C:4]1([H:10])[C:5]([H:11])([H:12])[C:6]1([H:13])[H:14])([H:8])[H:9])[H:7]>>[C:3](=[C:4]1[C:5]([H:11])([H:12])[C:6]1([H:13])[H:14])([H:8])[H:9].[O:1]=[C:2]([H:7])[H:10]"
O        1.76360155       1.43397122      -1.15129488
C        1.68527340       0.31402641      -0.67426954
C        0.89165780       0.03952726       1.03501828
C       -0.19627854      -0.15532159       0.18341105
C       -1.42703541      -0.93142304      -0.01895451
C       -1.41693248       0.58409904      -0.16193332
H        2.53622995      -0.37049299      -0.52680071
H        1.29121652      -0.82879457       1.55048182
H        0.99090975       0.98357002       1.55663438
H        0.66249892      -0.38711350      -1.17458893
H       -1.52782812      -1.50253703      -0.93345986
H       -1.88165409      -1.36710547       0.86298617
H       -1.48634596       1.00530081      -1.15696980
H       -1.88531329       1.18229343       0.60973985
14
Frame=7 idx=002331 GeodesicLength=0.7106450892040976 rxn_smarts="[O:1]=[C:2]([C:3]([C:4]1([H:10])[C:5]([H:11])([H:12])[C:6]1([H:13])[H:14])([H:8])[H:9])[H:7]>>[C:3](=[C:4]1[C:5]([H:11])([H:12])[C:6]1([H:13])[H:14])([H:8])[H:9].[O:1]=[C:2]([H:7])[H:10]"
O        1.75518569       1.42814530      -1.18594482
C        1.71221959       0.31954973      -0.68322290
C        0.88563724       0.02945271       1.03024226
C       -0.20137943      -0.16741015       0.17647115
C       -1.44255274      -0.92905071      -0.01406854
C       -1.41850614       0.58540936      -0.15857843
H        2.59540455      -0.31698378      -0.50778428
H        1.28443489      -0.84172532       1.54251173
H        0.97054698       0.96615611       1.56807992
H        0.67544602      -0.41336885      -1.17447787
H       -1.55334145      -1.49886546      -0.92838686
H       -1.89606341      -1.35788118       0.87174924
H       -1.48948369       1.00917255      -1.15241006
H       -1.87754811       1.18739968       0.61581946
14
Frame=8 idx=002331 GeodesicLength=0.8119728243789549 rxn_smarts="[O:1]=[C:2]([C:3]([C:4]1([H:10])[C:5]([H:11])([H:12])[C:6]1([H:13])[H:14])([H:8])[H:9])[H:7]>>[C:3](=[C:4]1[C:5]([H:11])([H:12])[C:6]1([H:13])[H:14])([H:8])[H:9].[O:1]=[C:2]([H:7])[H:10]"
O        1.74768566       1.41957087      -1.22238331
C        1.73993756       0.32490356      -0.69231088
C        0.87960971       0.01889376       1.02502738
C       -0.20685587      -0.17964303       0.16940766
C       -1.45837516      -0.92644758      -0.00910699
C       -1.42016143       0.58682880      -0.15508688
H        2.65370063      -0.25850881      -0.48658254
H        1.27783893      -0.85537594       1.53357593
H        0.95031040       0.94746268       1.57948379
H        0.68853286      -0.44024747      -1.17386591
H       -1.57930330      -1.49477737      -0.92323026
H       -1.91055773      -1.34847032       0.88062547
H       -1.49273953       1.01327454      -1.14766445
H       -1.86962272       1.19253629       0.62211100
14
Frame=9 idx=002331 GeodesicLength=0.9129958711497685 rxn_smarts="[O:1]=[C:2]([C:3]([C:4]1([H:10])[C:5]([H:11])([H:12])[C:6]1([H:13])[H:14])([H:8])[H:9])[H:7]>>[C:3](=[C:4]1[C:5]([H:11])([H:12])[C:6]1([H:13])[H:14])([H:8])[H:9].[O:1]=[C:2]([H:7])[H:10]"
O        1.74119316       1.40797755      -1.26038830
C        1.76842976       0.33003258      -0.70143183
C        0.87359235       0.00781755       1.01932718
C       -0.21269157      -0.19204625       0.16220619
C       -1.47448332      -0.92358507      -0.00406469
C       -1.42177521       0.58832756      -0.15148333
H        2.71047083      -0.19456421      -0.46327005
H        1.27143308      -0.86973945       1.52353503
H        0.93031016       0.92738137       1.59081551
H        0.70168799      -0.46779465      -1.17271281
H       -1.60574374      -1.49027912      -0.91792819
H       -1.92512202      -1.33875431       0.88958952
H       -1.49597620       1.01750708      -1.14272860
H       -1.86132527       1.19771936       0.62853437
14
Frame=10 idx=002331 GeodesicLength=1.0140605539202343 rxn_smarts="[O:1]=[C:2]([C:3]([C:4]1([H:10])[C:5]([H:11])([H:12])[C:6]1([H:13])[H:14])([H:8])[H:9])[H:7]>>[C:3](=[C:4]1[C:5]([H:11])([H:12])[C:6]1([H:13])[H:14])([H:8])[H:9].[O:1]=[C:2]([H:7])[H:10]"
O        1.73634920       1.39311503      -1.30006997
C        1.79796314       0.33486143      -0.71061123
C        0.86758870      -0.00371949       1.01318644
C       -0.21887359      -0.20455830       0.15483834
C       -1.49082509      -0.92048473       0.00106110
C       -1.42345598       0.58994596      -0.14771346
H        2.76510836      -0.12514893      -0.43802299
H        1.26523174      -0.88479136       1.51253386
H        0.91046413       0.90596660       1.60212472
H        0.71491383      -0.49586044      -1.17113384
H       -1.63258588      -1.48534040      -0.91253995
H       -1.93964628      -1.32889108       0.89868797
H       -1.49938258       1.02200457      -1.13757135
H       -1.85284970       1.20290114       0.63523036
14
Frame=11 idx=002331 GeodesicLength=1.1150698716894711 rxn_smarts="[O:1]=[C:2]([C:3]([C:4]1([H:10])[C:5]([H:11])([H:12])[C:6]1([H:13])[H:14])([H:8])[H:9])[H:7]>>[C:3](=[C:4]1[C:5]([H:11])([H:12])[C:6]1([H:13])[H:14])([H:8])[H:9].[O:1]=[C:2]([H:7])[H:10]"
O        1.73346994       1.37472265      -1.34126872
C        1.82865639       0.33935655      -0.71975210
C        0.86160191      -0.01571547       1.00659787
C       -0.22537613      -0.21717375       0.14728625
C       -1.50735748      -0.91712680       0.00627926
C       -1.42514232       0.59167336      -0.14377454
H        2.81683254      -0.04998175      -0.41109468
H        1.25922711      -0.90050635       1.50053534
H        0.89078850       0.88315060       1.61341467
H        0.72819993      -0.52443139      -1.16912561
H       -1.65980757      -1.47993555      -0.90703522
H       -1.95408417      -1.31884348       0.90792122
H       -1.50289993       1.02674576      -1.13217318
H       -1.84410873       1.20806563       0.64218943
14
Frame=12 idx=002331 GeodesicLength=1.2160509395822874 rxn_smarts="[O:1]=[C:2]([C:3]([C:4]1([H:10])[C:5]([H:11])([H:12])[C:6]1([H:13])[H:14])([H:8])[H:9])[H:7]>>[C:3](=[C:4]1[C:5]([H:11])([H:12])[C:6]1([H:13])[H:14])([H:8])[H:9].[O:1]=[C:2]([H:7])[H:10]"
O        1.73306173       1.35257308      -1.38385558
C        1.86069353       0.34354767      -0.72872094
C        0.85563479      -0.02810840       0.99955786
C       -0.23217492      -0.22984893       0.13952856
C       -1.52403533      -0.91351766       0.01158835
C       -1.42680700       0.59349558      -0.13964120
H        2.86479366       0.03098265      -0.38285442
H        1.25338804      -0.91680642       1.48754580
H        0.87127324       0.85892460       1.62467687
H        0.74152155      -0.55342613      -1.16665390
H       -1.68739625      -1.47403495      -0.90139328
H       -1.96836526      -1.30867075       0.91725693
H       -1.50652679       1.03174570      -1.12646434
H       -1.83506099       1.21314395       0.64942929
14
Frame=13 idx=002331 GeodesicLength=1.3168711482028013 rxn_smarts="[O:1]=[C:2]([C:3]([C:4]1([H:10])[C:5]([H:11])([H:12])[C:6]1([H:13])[H:14])([H:8])[H:9])[H:7]>>[C:3](=[C:4]1[C:5]([H:11])([H:12])[C:6]1([H:13])[H:14])([H:8])[H:9].[O:1]=[C:2]([H:7])[H:10]"
O        1.73536532       1.32649491      -1.42747116
C        1.89414128       0.34746843      -0.73732981
C        0.84968312      -0.04086479       0.99215262
C       -0.23922544      -0.24256204       0.13158634
C       -1.54074345      -0.90963062       0.01696638
C       -1.42838871       0.59543276      -0.13532294
H        2.90807449       0.11762832      -0.35397814
H        1.24772551      -0.93363303       1.47364021
H        0.85189499       0.83328241       1.63602692
H        0.75489847      -0.58283697      -1.16375133
H       -1.71518003      -1.46764846      -0.89566684
H       -1.98237893      -1.29830839       0.92667925
H       -1.51018761       1.03699151      -1.12048240
H       -1.82567902       1.21818595       0.65695091
14
Frame=14 idx=002331 GeodesicLength=1.4178023975872835 rxn_smarts="[O:1]=[C:2]([C:3]([C:4]1([H:10])[C:5]([H:11])([H:12])[C:6]1([H:13])[H:14])([H:8])[H:9])[H:7]>>[C:3](=[C:4]1[C:5]([H:11])([H:12])[C:6]1([H:13])[H:14])([H:8])[H:9].[O:1]=[C:2]([H:7])[H:10]"
O        1.74106199       1.29634541      -1.47199001
C        1.92926743       0.35125232      -0.74541475
C        0.84374621      -0.05389406       0.98441592
C       -0.24651006      -0.25523834       0.12344182
C       -1.55745786      -0.90549327       0.02242001
C       -1.42994750       0.59748810      -0.13078191
H        2.94592593       0.20969294      -0.32505929
H        1.24220947      -0.95090257       1.45891193
H        0.83260381       0.80624333       1.64747046
H        0.76836635      -0.61252637      -1.16039839
H       -1.74314610      -1.46073718      -0.88985124
H       -1.99608338      -1.28790168       0.93618603
H       -1.51397674       1.04256762      -1.11416240
H       -1.81605957       1.22310376       0.66481183
14
Frame=15 idx=002331 GeodesicLength=1.5188156073037509 rxn_smarts="[O:1]=[C:2]([C:3]([C:4]1([H:10])[C:5]([H:11])([H:12])[C:6]1([H:13])[H:14])([H:8])[H:9])[H:7]>>[C:3](=[C:4]1[C:5]([H:11])([H:12])[C:6]1([H:13])[H:14])([H:8])[H:9].[O:1]=[C:2]([H:7])[H:10]"
O        1.75058649       1.26195595      -1.51705474
C        1.96618798       0.35503311      -0.75273911
C        0.83780018      -0.06711365       0.97640135
C       -0.25399767      -0.26781765       0.11509716
C       -1.57409179      -0.90109564       0.02792078
C       -1.43146085       0.59966702      -0.12598544
H        2.97753251       0.30686109      -0.29687070
H        1.23679396      -0.96850499       1.44342190
H        0.81335520       0.77783082       1.65903671
H        0.78193999      -0.64242962      -1.15657331
H       -1.77117822      -1.45326584      -0.88399040
H       -2.00938432      -1.27748231       0.94572111
H       -1.51787225       1.04850419      -1.10744469
H       -1.80621122       1.22785750       0.67305939
14
Frame=16 idx=002331 GeodesicLength=1.6199603750760936 rxn_smarts="[O:1]=[C:2]([C:3]([C:4]1([H:10])[C:5]([H:11])([H:12])[C:6]1([H:13])[H:14])([H:8])[H:9])[H:7]>>[C:3](=[C:4]1[C:5]([H:11])([H:12])[C:6]1([H:13])[H:14])([H:8])[H:9].[O:1]=[C:2]([H:7])[H:10]"
O        1.76442385       1.22318515      -1.56227802
C        2.00503181       0.35899448      -0.75904893
C        0.83181952      -0.08043287       0.96816808
C       -0.26166546      -0.28022783       0.10655659
C       -1.59057427      -0.89643867       0.03343755
C       -1.43293576       0.60198289      -0.12089145
H        3.00218827       0.40871058      -0.27027018
H        1.23143078      -0.98633417       1.42724782
H        0.79409996       0.74808243       1.67074451
H        0.79563008      -0.67246438      -1.15225294
H       -1.79917028      -1.44519965      -0.87813770
H       -2.02220814      -1.26711976       0.95522500
H       -1.52188436       1.05486096      -1.10025794
H       -1.79618599       1.23240084       0.68175762
