13
Frame=0 idx=004534 GeodesicLength=0.0 rxn_smarts="[C:1]([C@@:2]1([H:10])[C:3]([H:11])([H:12])[N:4]=[C:5]([H:13])[O:6]1)([H:7])([H:8])[H:9]>>[C:1]([C@@:2]1([H:10])[C:3]([H:11])([H:12])[O:6]1)([H:7])([H:8])[H:9].[N:4]#[C:5][H:13]"
C        1.33582030       0.63625028       0.21745918
C        0.48026432      -0.23427842      -0.66530557
C       -0.20333118      -1.38117944      -0.10932585
N       -1.75031102      -0.03652340       1.31174452
C       -1.68303854       0.69371265       0.37006996
O       -0.86443115       0.21407016      -0.93901370
H        1.47634828       1.61178709      -0.24902188
H        0.88550480       0.77308928       1.19924580
H        2.31562362       0.17038820       0.33737180
H        0.94840753      -0.41729380      -1.63357762
H       -0.64090527      -2.08551658      -0.80274884
H       -0.24920942      -1.59932859       0.94425258
H       -2.05074225       1.65482260       0.01884965
13
Frame=1 idx=004534 GeodesicLength=0.056153242783638764 rxn_smarts="[C:1]([C@@:2]1([H:10])[C:3]([H:11])([H:12])[N:4]=[C:5]([H:13])[O:6]1)([H:7])([H:8])[H:9]>>[C:1]([C@@:2]1([H:10])[C:3]([H:11])([H:12])[O:6]1)([H:7])([H:8])[H:9].[N:4]#[C:5][H:13]"
C        1.34613998       0.63256293       0.21600974
C        0.48306037      -0.23063236      -0.66614294
C       -0.21895579      -1.36906540      -0.10824060
N       -1.76849578      -0.04122557       1.31658311
C       -1.69220931       0.70265145       0.38583660
O       -0.85806704       0.22760901      -0.93416547
H        1.49175256       1.60861730      -0.24791083
H        0.89668177       0.77051785       1.19827711
H        2.32260178       0.15962818       0.33519056
H        0.94763339      -0.41746636      -1.63533218
H       -0.63765409      -2.08484221      -0.80218767
H       -0.23171524      -1.59827033       0.94444092
H       -2.08077260       1.63991550      -0.00235836
13
Frame=2 idx=004534 GeodesicLength=0.1120920933979763 rxn_smarts="[C:1]([C@@:2]1([H:10])[C:3]([H:11])([H:12])[N:4]=[C:5]([H:13])[O:6]1)([H:7])([H:8])[H:9]>>[C:1]([C@@:2]1([H:10])[C:3]([H:11])([H:12])[O:6]1)([H:7])([H:8])[H:9].[N:4]#[C:5][H:13]"
C        1.35640641       0.62890517       0.21445887
C        0.48576932      -0.22694126      -0.66690989
C       -0.23458133      -1.35657840      -0.10689318
N       -1.78744011      -0.04613362       1.32075970
C       -1.70168532       0.71192038       0.40181999
O       -0.85169120       0.24125215      -0.92911738
H        1.50718014       1.60535119      -0.24699346
H        0.90780419       0.76808898       1.19715055
H        2.32945176       0.14890733       0.33292917
H        0.94662324      -0.41758107      -1.63701848
H       -0.63408262      -2.08390136      -0.80078288
H       -0.21450383      -1.59705242       0.94371527
H       -2.10925066       1.62376291      -0.02311827
13
Frame=3 idx=004534 GeodesicLength=0.16799017678240635 rxn_smarts="[C:1]([C@@:2]1([H:10])[C:3]([H:11])([H:12])[N:4]=[C:5]([H:13])[O:6]1)([H:7])([H:8])[H:9]>>[C:1]([C@@:2]1([H:10])[C:3]([H:11])([H:12])[O:6]1)([H:7])([H:8])[H:9].[N:4]#[C:5][H:13]"
C        1.36656283       0.62532934       0.21283991
C        0.48840866      -0.22325567      -0.66767274
C       -0.25013016      -1.34385669      -0.10531088
N       -1.80699060      -0.05115009       1.32439795
C       -1.71157839       0.72146238       0.41790336
O       -0.84528468       0.25496293      -0.92402092
H        1.52256077       1.60209355      -0.24630689
H        0.91879540       0.76592170       1.19596191
H        2.33612356       0.13825142       0.33069587
H        0.94542319      -0.41773062      -1.63876195
H       -0.63023338      -2.08280169      -0.79862192
H       -0.19760466      -1.59583866       0.94213534
H       -2.13605254       1.60661209      -0.04323904
13
Frame=4 idx=004534 GeodesicLength=0.2235866691033967 rxn_smarts="[C:1]([C@@:2]1([H:10])[C:3]([H:11])([H:12])[N:4]=[C:5]([H:13])[O:6]1)([H:7])([H:8])[H:9]>>[C:1]([C@@:2]1([H:10])[C:3]([H:11])([H:12])[O:6]1)([H:7])([H:8])[H:9].[N:4]#[C:5][H:13]"
C        1.37634764       0.62193005       0.21103818
C        0.49094925      -0.21964565      -0.66841333
C       -0.26547628      -1.33097520      -0.10347246
N       -1.82746005      -0.05668110       1.32717167
C       -1.72228522       0.73060471       0.43380690
O       -0.83894252       0.26834738      -0.91890655
H        1.53750986       1.59883743      -0.24598202
H        0.92926595       0.76406625       1.19444367
H        2.34244058       0.12802811       0.32845631
H        0.94411943      -0.41791935      -1.64040232
H       -0.62606724      -2.08157610      -0.79545450
H       -0.18095917      -1.59453779       0.93969172
H       -2.15944224       1.58952127      -0.06197726
13
Frame=5 idx=004534 GeodesicLength=0.2790993376263155 rxn_smarts="[C:1]([C@@:2]1([H:10])[C:3]([H:11])([H:12])[N:4]=[C:5]([H:13])[O:6]1)([H:7])([H:8])[H:9]>>[C:1]([C@@:2]1([H:10])[C:3]([H:11])([H:12])[O:6]1)([H:7])([H:8])[H:9].[N:4]#[C:5][H:13]"
C        1.38569199       0.61878714       0.20908704
C        0.49339430      -0.21619444      -0.66920618
C       -0.28051839      -1.31815263      -0.10139336
N       -1.84879244      -0.06278715       1.32917998
C       -1.73393457       0.73921522       0.44941916
O       -0.83270222       0.28130717      -0.91394067
H        1.55188917       1.59574476      -0.24606618
H        0.93912949       0.76265598       1.19270720
H        2.34837479       0.11831015       0.32631704
H        0.94273905      -0.41827653      -1.64208870
H       -0.62159082      -2.08045164      -0.79138551
H       -0.16450705      -1.59334041       0.93650119
H       -2.17917330       1.57318239      -0.07913101
13
Frame=6 idx=004534 GeodesicLength=0.33453795068714914 rxn_smarts="[C:1]([C@@:2]1([H:10])[C:3]([H:11])([H:12])[N:4]=[C:5]([H:13])[O:6]1)([H:7])([H:8])[H:9]>>[C:1]([C@@:2]1([H:10])[C:3]([H:11])([H:12])[O:6]1)([H:7])([H:8])[H:9].[N:4]#[C:5][H:13]"
C        1.39475194       0.61588428       0.20701763
C        0.49577077      -0.21287062      -0.67002252
C       -0.29528157      -1.30537467      -0.09906347
N       -1.87084679      -0.06947011       1.33048073
C       -1.74642060       0.74731110       0.46475870
O       -0.82653564       0.29390325      -0.90909320
H        1.56589529       1.59281258      -0.24651157
H        0.94860527       0.76165339       1.19078422
H        2.35407027       0.10905613       0.32429352
H        0.94125772      -0.41876546      -1.64378159
H       -0.61704544      -2.07932237      -0.78645242
H       -0.14826851      -1.59226591       0.93257680
H       -2.19595271       1.55744842      -0.09498682
13
Frame=7 idx=004534 GeodesicLength=0.38973825640607546 rxn_smarts="[C:1]([C@@:2]1([H:10])[C:3]([H:11])([H:12])[N:4]=[C:5]([H:13])[O:6]1)([H:7])([H:8])[H:9]>>[C:1]([C@@:2]1([H:10])[C:3]([H:11])([H:12])[O:6]1)([H:7])([H:8])[H:9].[N:4]#[C:5][H:13]"
C        1.40342628       0.61312352       0.20475802
C        0.49815066      -0.20970595      -0.67083897
C       -0.30958271      -1.29257165      -0.09648207
N       -1.89371796      -0.07671703       1.33091197
C       -1.75977263       0.75469786       0.47986199
O       -0.82034687       0.30603527      -0.90424034
H        1.57937229       1.58983611      -0.24732876
H        0.95751367       0.76096671       1.18852902
H        2.35942417       0.10022364       0.32225604
H        0.93982081      -0.41941833      -1.64539556
H       -0.61238874      -2.07789435      -0.78056547
H       -0.13217198      -1.59108157       0.92790436
H       -2.20972700       1.54250577      -0.10937022
13
Frame=8 idx=004534 GeodesicLength=0.44491251898790846 rxn_smarts="[C:1]([C@@:2]1([H:10])[C:3]([H:11])([H:12])[N:4]=[C:5]([H:13])[O:6]1)([H:7])([H:8])[H:9]>>[C:1]([C@@:2]1([H:10])[C:3]([H:11])([H:12])[O:6]1)([H:7])([H:8])[H:9].[N:4]#[C:5][H:13]"
C        1.41183777       0.61061574       0.20235908
C        0.50052110      -0.20670378      -0.67169177
C       -0.32346352      -1.27990774      -0.09362502
N       -1.91739934      -0.08471066       1.33055346
C       -1.77400747       0.76133786       0.49467055
O       -0.81420900       0.31770207      -0.89950608
H        1.59245339       1.58703941      -0.24854082
H        0.96603042       0.76069936       1.18606433
H        2.36459247       0.09190486       0.32031221
H        0.93836265      -0.42024276      -1.64703082
H       -0.60786816      -2.07639773      -0.77382237
H       -0.11622674      -1.59000022       0.92264041
H       -2.22062357       1.52866360      -0.12238314
13
Frame=9 idx=004534 GeodesicLength=0.5000253126644384 rxn_smarts="[C:1]([C@@:2]1([H:10])[C:3]([H:11])([H:12])[N:4]=[C:5]([H:13])[O:6]1)([H:7])([H:8])[H:9]>>[C:1]([C@@:2]1([H:10])[C:3]([H:11])([H:12])[O:6]1)([H:7])([H:8])[H:9].[N:4]#[C:5][H:13]"
C        1.41998712       0.60833973       0.19979772
C        0.50290941      -0.20387853      -0.67256594
C       -0.33685502      -1.26737385      -0.09046757
N       -1.94195702      -0.09352072       1.32929495
C       -1.78910643       0.76716888       0.50920221
O       -0.80809919       0.32886219      -0.89484689
H        1.60511352       1.58436998      -0.25016348
H        0.97414820       0.76084109       1.18334419
H        2.36958085       0.08409620       0.31842281
H        0.93691710      -0.42127024      -1.64865036
H       -0.60352211      -2.07475725      -0.76623475
H       -0.10039918      -1.58894387       0.91683289
H       -2.22871723       1.51606639      -0.13396580
13
Frame=10 idx=004534 GeodesicLength=0.555075187631173 rxn_smarts="[C:1]([C@@:2]1([H:10])[C:3]([H:11])([H:12])[N:4]=[C:5]([H:13])[O:6]1)([H:7])([H:8])[H:9]>>[C:1]([C@@:2]1([H:10])[C:3]([H:11])([H:12])[O:6]1)([H:7])([H:8])[H:9].[N:4]#[C:5][H:13]"
C        1.42791695       0.60628917       0.19707310
C        0.50534103      -0.20123988      -0.67345856
C       -0.34973086      -1.25499154      -0.08698403
N       -1.96739689      -0.10315890       1.32707484
C       -1.80502339       0.77218001       0.52347976
O       -0.80199826       0.33950768      -0.89025296
H        1.61737111       1.58183670      -0.25219023
H        0.98192963       0.76137478       1.18038211
H        2.37444130       0.07679550       0.31656743
H        0.93550375      -0.42252327      -1.65025561
H       -0.59944230      -2.07292936      -0.75785247
H       -0.08468844      -1.58788857       0.91055489
H       -2.23422363       1.50474767      -0.14413828
13
Frame=11 idx=004534 GeodesicLength=0.6100734176915831 rxn_smarts="[C:1]([C@@:2]1([H:10])[C:3]([H:11])([H:12])[N:4]=[C:5]([H:13])[O:6]1)([H:7])([H:8])[H:9]>>[C:1]([C@@:2]1([H:10])[C:3]([H:11])([H:12])[O:6]1)([H:7])([H:8])[H:9].[N:4]#[C:5][H:13]"
C        1.43570179       0.60442279       0.19419278
C        0.50785253      -0.19876400      -0.67435141
C       -0.36209130      -1.24269109      -0.08317714
N       -1.99362659      -0.11355119       1.32391775
C       -1.82167365       0.77646037       0.53755480
O       -0.79585154       0.34972294      -0.88568407
H        1.62931151       1.57939387      -0.25458215
H        0.98947723       0.76225225       1.17718814
H        2.37923688       0.06992958       0.31471751
H        0.93414832      -0.42399035      -1.65181819
H       -0.59575999      -2.07077671      -0.74872319
H       -0.06912009      -1.58680306       0.90383871
H       -2.23760509       1.49439460      -0.15307356
13
Frame=12 idx=004534 GeodesicLength=0.6650240920612825 rxn_smarts="[C:1]([C@@:2]1([H:10])[C:3]([H:11])([H:12])[N:4]=[C:5]([H:13])[O:6]1)([H:7])([H:8])[H:9]>>[C:1]([C@@:2]1([H:10])[C:3]([H:11])([H:12])[O:6]1)([H:7])([H:8])[H:9].[N:4]#[C:5][H:13]"
C        1.44334238       0.60277533       0.19113948
C        0.51044200      -0.19647823      -0.67524911
C       -0.37390143      -1.23053921      -0.07898738
N       -2.02078220      -0.12483448       1.31964778
C       -1.83909376       0.77990140       0.55140774
O       -0.78968661       0.35942808      -0.88115292
H        1.64092443       1.57707715      -0.25740152
H        0.99678775       0.76353537       1.17374443
H        2.38398002       0.06355228       0.31288213
H        0.93284187      -0.42572148      -1.65334771
H       -0.59249624      -2.06837310      -0.73890101
H       -0.05365721      -1.58565963       0.89679563
H       -2.23870101       1.48533652      -0.16057754
13
Frame=13 idx=004534 GeodesicLength=0.7199595119430309 rxn_smarts="[C:1]([C@@:2]1([H:10])[C:3]([H:11])([H:12])[N:4]=[C:5]([H:13])[O:6]1)([H:7])([H:8])[H:9]>>[C:1]([C@@:2]1([H:10])[C:3]([H:11])([H:12])[O:6]1)([H:7])([H:8])[H:9].[N:4]#[C:5][H:13]"
C        1.45088703       0.60133040       0.18791038
C        0.51312758      -0.19437033      -0.67614680
C       -0.38516499      -1.21850147      -0.07440239
N       -2.04886422      -0.13699709       1.31421538
C       -1.85725432       0.78253643       0.56506899
O       -0.78348110       0.36867196      -0.87664344
H        1.65227432       1.57486746      -0.26065030
H        1.00392364       0.76521861       1.17005322
H        2.38871219       0.05762006       0.31104820
H        0.93159198      -0.42771963      -1.65484058
H       -0.58970335      -2.06567521      -0.72842106
H       -0.03831068      -1.58443367       0.88948632
H       -2.23773809       1.47745247      -0.16667791
13
Frame=14 idx=004534 GeodesicLength=0.7748803337725706 rxn_smarts="[C:1]([C@@:2]1([H:10])[C:3]([H:11])([H:12])[N:4]=[C:5]([H:13])[O:6]1)([H:7])([H:8])[H:9]>>[C:1]([C@@:2]1([H:10])[C:3]([H:11])([H:12])[O:6]1)([H:7])([H:8])[H:9].[N:4]#[C:5][H:13]"
C        1.45837324       0.60007830       0.18449447
C        0.51591946      -0.19243416      -0.67703655
C       -0.39588505      -1.20655096      -0.06939772
N       -2.07791808      -0.15004516       1.30749125
C       -1.87613173       0.78436677       0.57856027
O       -0.77722416       0.37747668      -0.87213713
H        1.66340512       1.57274818      -0.26434228
H        1.01093733       0.76730166       1.16610206
H        2.39346789       0.05211205       0.30919719
H        0.93039616      -0.42999377      -1.65628398
H       -0.58741771      -2.06265114      -0.71730278
H       -0.02308569      -1.58308100       0.88197676
H       -2.23483678       1.47067255      -0.17132156
13
Frame=15 idx=004534 GeodesicLength=0.8297979689986595 rxn_smarts="[C:1]([C@@:2]1([H:10])[C:3]([H:11])([H:12])[N:4]=[C:5]([H:13])[O:6]1)([H:7])([H:8])[H:9]>>[C:1]([C@@:2]1([H:10])[C:3]([H:11])([H:12])[O:6]1)([H:7])([H:8])[H:9].[N:4]#[C:5][H:13]"
C        1.46581691       0.59902939       0.18087806
C        0.51881477      -0.19067279      -0.67791339
C       -0.40606025      -1.19468097      -0.06393716
N       -2.10799917      -0.16405801       1.29933119
C       -1.89574075       0.78535360       0.59188315
O       -0.77091515       0.38584048      -0.86762857
H        1.67436543       1.57070788      -0.26852915
H        1.01784685       0.76984749       1.16186413
H        2.39824554       0.04702084       0.30734125
H        0.92923572      -0.43257430      -1.65766869
H       -0.58564206      -2.05932114      -0.70557743
H       -0.00798403      -1.58156815       0.87433745
H       -2.22998381       1.46507568      -0.17438085
13
Frame=16 idx=004534 GeodesicLength=0.8847476965761649 rxn_smarts="[C:1]([C@@:2]1([H:10])[C:3]([H:11])([H:12])[N:4]=[C:5]([H:13])[O:6]1)([H:7])([H:8])[H:9]>>[C:1]([C@@:2]1([H:10])[C:3]([H:11])([H:12])[O:6]1)([H:7])([H:8])[H:9].[N:4]#[C:5][H:13]"
C        1.47324190       0.59818289       0.17704149
C        0.52181915      -0.18908706      -0.67877841
C       -0.41569370      -1.18287390      -0.05799241
N       -2.13920070      -0.17907209       1.28955020
C       -1.91608593       0.78548331       0.60506131
O       -0.76455543       0.39377977      -0.86311720
H        1.68517867       1.56874085      -0.27325009
H        1.02468357       0.77287357       1.15732385
H        2.40307328       0.04233612       0.30546213
H        0.92811058      -0.43548330      -1.65899665
H       -0.58437224      -2.05569050      -0.69323758
H        0.00699103      -1.57986412       0.86665171
H       -2.22319019       1.46067447      -0.17571835
