17
Frame=0 idx=007041 GeodesicLength=0.0 rxn_smarts="[C:1]([C@:2]12[C:3]([H:11])([H:12])[C:4]([H:13])([H:14])[C@@:5]1([H:15])[C:6]([H:16])([H:17])[O:7]2)([H:8])([H:9])[H:10]>>[C:1]([C@:2]1([O:7][H:17])[C:3]([H:11])([H:12])[C:4]([H:13])([H:14])[C@:5]1([C:6][H:16])[H:15])([H:8])([H:9])[H:10]"
C        1.76804947       0.45750185      -0.65696861
C        0.49897468       0.18729784       0.09913973
C        0.17112246      -1.24916223       0.52893728
C       -1.22777453      -1.13381810      -0.12747983
C       -0.91406900       0.32392952      -0.53111501
C       -1.30640541       1.44494334       0.38125717
O        0.35402245       1.08648404       1.23334880
H        2.62732284       0.32258046       0.00405646
H        1.86752929      -0.22719261      -1.50114118
H        1.78040441       1.48094022      -1.03674642
H        0.82309527      -2.00089985       0.08310722
H        0.17567864      -1.37327110       1.61130596
H       -2.07599498      -1.24985900       0.54846862
H       -1.36978860      -1.80434227      -0.97556479
H       -1.02310534       0.57341747      -1.58785654
H       -2.05188491       1.18865305       1.14039647
H       -0.09717671       1.97279732       0.78685470
17
Frame=1 idx=007041 GeodesicLength=0.04860264576770607 rxn_smarts="[C:1]([C@:2]12[C:3]([H:11])([H:12])[C:4]([H:13])([H:14])[C@@:5]1([H:15])[C:6]([H:16])([H:17])[O:7]2)([H:8])([H:9])[H:10]>>[C:1]([C@:2]1([O:7][H:17])[C:3]([H:11])([H:12])[C:4]([H:13])([H:14])[C@:5]1([C:6][H:16])[H:15])([H:8])([H:9])[H:10]"
C        1.76740946       0.45946566      -0.65487631
C        0.49911981       0.18605698       0.10145605
C        0.17118786      -1.25180102       0.52655336
C       -1.22956623      -1.13484761      -0.12465358
C       -0.91580094       0.32118225      -0.53260632
C       -1.30387895       1.44426091       0.37623296
O        0.35014314       1.08311927       1.23420193
H        2.62665935       0.32267175       0.00582076
H        1.86627306      -0.22220947      -1.50150553
H        1.78007944       1.48397467      -1.03164323
H        0.82063608      -2.00118853       0.07308665
H        0.18127332      -1.38073531       1.60832325
H       -2.07412869      -1.24684579       0.55651251
H       -1.37830381      -1.80732570      -0.96995910
H       -1.01362011       0.56537231      -1.59142566
H       -2.05161292       1.19115435       1.13455570
H       -0.09586987       1.98769527       0.78992656
17
Frame=2 idx=007041 GeodesicLength=0.09721605861582244 rxn_smarts="[C:1]([C@:2]12[C:3]([H:11])([H:12])[C:4]([H:13])([H:14])[C@@:5]1([H:15])[C:6]([H:16])([H:17])[O:7]2)([H:8])([H:9])[H:10]>>[C:1]([C@:2]1([O:7][H:17])[C:3]([H:11])([H:12])[C:4]([H:13])([H:14])[C@:5]1([C:6][H:16])[H:15])([H:8])([H:9])[H:10]"
C        1.76677841       0.46144367      -0.65276464
C        0.49927443       0.18477729       0.10375546
C        0.17126234      -1.25447394       0.52411347
C       -1.23137077      -1.13587427      -0.12178654
C       -0.91752277       0.31839971      -0.53414960
C       -1.30126277       1.44358938       0.37112497
O        0.34625416       1.07971254       1.23503263
H        2.62600064       0.32276771       0.00760243
H        1.86505188      -0.21718001      -1.50185484
H        1.77973645       1.48702919      -1.02647809
H        0.81812203      -2.00144732       0.06296850
H        0.18693635      -1.38825962       1.60523054
H       -2.07219220      -1.24375367       0.56462824
H       -1.38691036      -1.81031133      -0.96422670
H       -1.00413275       0.55717698      -1.59492787
H       -2.05133588       1.19374598       1.12855409
H       -0.09468918       2.00265772       0.79317794
17
Frame=3 idx=007041 GeodesicLength=0.1458407971263587 rxn_smarts="[C:1]([C@:2]12[C:3]([H:11])([H:12])[C:4]([H:13])([H:14])[C@@:5]1([H:15])[C:6]([H:16])([H:17])[O:7]2)([H:8])([H:9])[H:10]>>[C:1]([C@:2]1([O:7][H:17])[C:3]([H:11])([H:12])[C:4]([H:13])([H:14])[C@:5]1([C:6][H:16])[H:15])([H:8])([H:9])[H:10]"
C        1.76615639       0.46343366      -0.65063440
C        0.49943923       0.18345832       0.10603862
C        0.17134464      -1.25718052       0.52161951
C       -1.23318637      -1.13689771      -0.11888124
C       -0.91923444       0.31558306      -0.53574336
C       -1.29855707       1.44292572       0.36593837
O        0.34235771       1.07626468       1.23584055
H        2.62534732       0.32286714       0.00940024
H        1.86386488      -0.21210881      -1.50218796
H        1.77937364       1.49010012      -1.02125535
H        0.81555252      -2.00167516       0.05275841
H        0.19266165      -1.39584210       1.60202878
H       -2.07018479      -1.24058454       0.57280852
H       -1.39560133      -1.81329566      -0.95837084
H       -0.99464501       0.54883703      -1.59835981
H       -2.05104891       1.19642063       1.12239867
H       -0.09364007       2.01769413       0.79660127
17
Frame=4 idx=007041 GeodesicLength=0.19447670574748052 rxn_smarts="[C:1]([C@:2]12[C:3]([H:11])([H:12])[C:4]([H:13])([H:14])[C@@:5]1([H:15])[C:6]([H:16])([H:17])[O:7]2)([H:8])([H:9])[H:10]>>[C:1]([C@:2]1([O:7][H:17])[C:3]([H:11])([H:12])[C:4]([H:13])([H:14])[C@:5]1([C:6][H:16])[H:15])([H:8])([H:9])[H:10]"
C        1.76554327       0.46543348      -0.64848607
C        0.49961485       0.18209960       0.10830623
C        0.17143359      -1.25992019       0.51907308
C       -1.23501125      -1.13791749      -0.11593998
C       -0.92093577       0.31273319      -0.53738606
C       -1.29576173       1.44226675       0.36067804
O        0.33845606       1.07277628       1.23662542
H        2.62469970       0.32296872       0.01121308
H        1.86271070      -0.20699986      -1.50250370
H        1.77898915       1.49318397      -1.01597837
H        0.81292670      -2.00187085       0.04246149
H        0.19844350      -1.40348079       1.59871850
H       -2.06810549      -1.23733995       0.58104636
H       -1.40437022      -1.81627532      -0.95239438
H       -0.98515817       0.54035755      -1.60171808
H       -2.05074689       1.19917119       1.11609593
H       -0.09272798       2.03281372       0.80018853
17
Frame=5 idx=007041 GeodesicLength=0.24312361105471436 rxn_smarts="[C:1]([C@:2]12[C:3]([H:11])([H:12])[C:4]([H:13])([H:14])[C@@:5]1([H:15])[C:6]([H:16])([H:17])[O:7]2)([H:8])([H:9])[H:10]>>[C:1]([C@:2]1([O:7][H:17])[C:3]([H:11])([H:12])[C:4]([H:13])([H:14])[C@:5]1([C:6][H:16])[H:15])([H:8])([H:9])[H:10]"
C        1.76493892       0.46744110      -0.64632022
C        0.49980200       0.18070064       0.11055901
C        0.17152811      -1.26269258       0.51647551
C       -1.23684378      -1.13893336      -0.11296506
C       -0.92262657       0.30985103      -0.53907615
C       -1.29287666       1.44160977       0.35534838
O        0.33455118       1.06924762       1.23738725
H        2.62405820       0.32307098       0.01303975
H        1.86158801      -0.20185657      -1.50280144
H        1.77858246       1.49627789      -1.01064906
H        0.81024358      -2.00203373       0.03208248
H        0.20427717      -1.41117429       1.59530004
H       -2.06595328      -1.23402147       0.58933536
H       -1.41321120      -1.81924739      -0.94630006
H       -0.97567427       0.53174243      -1.60499970
H       -2.05042489       1.20199210       1.10965227
H       -0.09195898       2.04802583       0.80393164
17
Frame=6 idx=007041 GeodesicLength=0.29178156706725833 rxn_smarts="[C:1]([C@:2]12[C:3]([H:11])([H:12])[C:4]([H:13])([H:14])[C@@:5]1([H:15])[C:6]([H:16])([H:17])[O:7]2)([H:8])([H:9])[H:10]>>[C:1]([C@:2]1([O:7][H:17])[C:3]([H:11])([H:12])[C:4]([H:13])([H:14])[C@:5]1([C:6][H:16])[H:15])([H:8])([H:9])[H:10]"
C        1.76434331       0.46945455      -0.64413718
C        0.50000139       0.17926087       0.11279776
C        0.17162729      -1.26549752       0.51382792
C       -1.23868242      -1.13994498      -0.10995843
C       -0.92430661       0.30693739      -0.54081210
C       -1.28990175       1.44095213       0.34995354
O        0.33064484       1.06567872       1.23812623
H        2.62342324       0.32317222       0.01487930
H        1.86049558      -0.19668187      -1.50308065
H        1.77815324       1.49937930      -1.00526867
H        0.80750218      -2.00216323       0.02162542
H        0.21015851      -1.41892170       1.59177356
H       -2.06372696      -1.23063056       0.59766987
H       -1.42211907      -1.82220897      -0.94009021
H       -0.96619515       0.52299548      -1.60820175
H       -2.05007823       1.20487816       1.10307365
H       -0.09133938       2.06334002       0.80782174
17
Frame=7 idx=007041 GeodesicLength=0.34045058022628893 rxn_smarts="[C:1]([C@:2]12[C:3]([H:11])([H:12])[C:4]([H:13])([H:14])[C@@:5]1([H:15])[C:6]([H:16])([H:17])[O:7]2)([H:8])([H:9])[H:10]>>[C:1]([C@:2]1([O:7][H:17])[C:3]([H:11])([H:12])[C:4]([H:13])([H:14])[C@:5]1([C:6][H:16])[H:15])([H:8])([H:9])[H:10]"
C        1.76375638       0.47147177      -0.64193735
C        0.50021375       0.17777972       0.11502334
C        0.17173016      -1.26833481       0.51113157
C       -1.24052559      -1.14095207      -0.10692227
C       -0.92597564       0.30399323      -0.54259222
C       -1.28683694       1.44029120       0.34449806
O        0.32673905       1.06206963       1.23884266
H        2.62279532       0.32327043       0.01673055
H        1.85943189      -0.19147874      -1.50334095
H        1.77770133       1.50248555      -0.99983842
H        0.80470165      -2.00225884       0.01109472
H        0.21608307      -1.42672203       1.58813942
H       -2.06142557      -1.22716896       0.60604383
H       -1.43108823      -1.82515715      -0.93376762
H       -0.95672272       0.51412087      -1.61132123
H       -2.04970217       1.20782401       1.09636660
H       -0.09087574       2.07876621       0.81184929
17
Frame=8 idx=007041 GeodesicLength=0.38913078646522603 rxn_smarts="[C:1]([C@:2]12[C:3]([H:11])([H:12])[C:4]([H:13])([H:14])[C@@:5]1([H:15])[C:6]([H:16])([H:17])[O:7]2)([H:8])([H:9])[H:10]>>[C:1]([C@:2]1([O:7][H:17])[C:3]([H:11])([H:12])[C:4]([H:13])([H:14])[C@:5]1([C:6][H:16])[H:15])([H:8])([H:9])[H:10]"
C        1.76317814       0.47349076      -0.63972095
C        0.50043990       0.17625655       0.11723675
C        0.17183589      -1.27120442       0.50838754
C       -1.24237179      -1.14195431      -0.10385846
C       -0.92763334       0.30101940      -0.54441475
C       -1.28368216       1.43962425       0.33898638
O        0.32283563       1.05842014       1.23953704
H        2.62217497       0.32336361       0.01859251
H        1.85839553      -0.18624984      -1.50358199
H        1.77722666       1.50559412      -0.99435914
H        0.80184114      -2.00232017       0.00049420
H        0.22204684      -1.43457479       1.58439782
H       -2.05904803      -1.22363824       0.61445175
H       -1.44011367      -1.82808892      -0.92733478
H       -0.94725856       0.50512286      -1.61435505
H       -2.04929229       1.21082446       1.08953730
H       -0.09057486       2.09431455       0.81600382
17
Frame=9 idx=007041 GeodesicLength=0.43781473793881764 rxn_smarts="[C:1]([C@:2]12[C:3]([H:11])([H:12])[C:4]([H:13])([H:14])[C@@:5]1([H:15])[C:6]([H:16])([H:17])[O:7]2)([H:8])([H:9])[H:10]>>[C:1]([C@:2]1([O:7][H:17])[C:3]([H:11])([H:12])[C:4]([H:13])([H:14])[C@:5]1([C:6][H:16])[H:15])([H:8])([H:9])[H:10]"
C        1.76260541       0.47550033      -0.63749947
C        0.50068113       0.17469480       0.11943891
C        0.17193723      -1.27409635       0.50561336
C       -1.24421139      -1.14295243      -0.10078854
C       -0.92928141       0.29802594      -0.54627103
C       -1.28044380       1.43894156       0.33344960
O        0.31895151       1.05474264       1.24020522
H        2.62156372       0.32344619       0.02044876
H        1.85737517      -0.18102116      -1.50380482
H        1.77672710       1.50868798      -0.98885829
H        0.79892748      -2.00234481      -0.01012709
H        0.22801239      -1.44245255       1.58056964
H       -2.05660521      -1.22005922       0.62284403
H       -1.44914883      -1.83099433      -0.92082937
H       -0.93781567       0.49603431      -1.61728976
H       -2.04883147       1.21384563       1.08263198
H       -0.09044337       2.11000147       0.82026688
17
Frame=10 idx=007041 GeodesicLength=0.4865028422999628 rxn_smarts="[C:1]([C@:2]12[C:3]([H:11])([H:12])[C:4]([H:13])([H:14])[C@@:5]1([H:15])[C:6]([H:16])([H:17])[O:7]2)([H:8])([H:9])[H:10]>>[C:1]([C@:2]1([O:7][H:17])[C:3]([H:11])([H:12])[C:4]([H:13])([H:14])[C@:5]1([C:6][H:16])[H:15])([H:8])([H:9])[H:10]"
C        1.76203839       0.47749861      -0.63527302
C        0.50093835       0.17309378       0.12163098
C        0.17203363      -1.27701097       0.50281021
C       -1.24604321      -1.14394637      -0.09771445
C       -0.93091947       0.29501394      -0.54815910
C       -1.27712212       1.43824098       0.32789252
O        0.31508879       1.05103661       1.24084853
H        2.62096234       0.32351585       0.02229841
H        1.85636939      -0.17579499      -1.50400958
H        1.77620317       1.51176517      -0.98333617
H        0.79596061      -2.00233344      -0.02076574
H        0.23397624      -1.45035553       1.57665602
H       -2.05409710      -1.21643423       0.63121579
H       -1.45818937      -1.83387111      -0.91425504
H       -0.92839562       0.48686028      -1.62012291
H       -2.04831589       1.21688301       1.07565779
H       -0.09048812       2.12583839       0.82462576
17
Frame=11 idx=007041 GeodesicLength=0.53519478152232 rxn_smarts="[C:1]([C@:2]12[C:3]([H:11])([H:12])[C:4]([H:13])([H:14])[C@@:5]1([H:15])[C:6]([H:16])([H:17])[O:7]2)([H:8])([H:9])[H:10]>>[C:1]([C@:2]1([O:7][H:17])[C:3]([H:11])([H:12])[C:4]([H:13])([H:14])[C@:5]1([C:6][H:16])[H:15])([H:8])([H:9])[H:10]"
C        1.76147736       0.47948377      -0.63304144
C        0.50121246       0.17145268       0.12381419
C        0.17212453      -1.27994847       0.49997890
C       -1.24786619      -1.14493582      -0.09463772
C       -0.93254700       0.29198426      -0.55007672
C       -1.27371729       1.43751987       0.32231985
O        0.31124931       1.04730092       1.24146816
H        2.62037153       0.32357015       0.02414063
H        1.85537687      -0.17057294      -1.50419618
H        1.77565574       1.51482362      -0.97779229
H        0.79294033      -2.00228621      -0.03141910
H        0.23993522      -1.45828411       1.57265742
H       -2.05152365      -1.21276529       0.63956280
H       -1.46723152      -1.83671653      -0.90761475
H       -0.91899966       0.47760562      -1.62285157
H       -2.04774195       1.21993191       1.06862149
H       -0.09071610       2.14183658       0.82906632
17
Frame=12 idx=007041 GeodesicLength=0.5838986416734525 rxn_smarts="[C:1]([C@:2]12[C:3]([H:11])([H:12])[C:4]([H:13])([H:14])[C@@:5]1([H:15])[C:6]([H:16])([H:17])[O:7]2)([H:8])([H:9])[H:10]>>[C:1]([C@:2]1([O:7][H:17])[C:3]([H:11])([H:12])[C:4]([H:13])([H:14])[C@:5]1([C:6][H:16])[H:15])([H:8])([H:9])[H:10]"
C        1.76092579       0.48146362      -0.63079296
C        0.50150443       0.16976522       0.12599065
C        0.17221554      -1.28292103       0.49710244
C       -1.24968804      -1.14591965      -0.09154041
C       -0.93416118       0.28892888      -0.55202804
C       -1.27022112       1.43678391       0.31671033
O        0.30742011       1.04351996       1.24207193
H        2.61979059       0.32361860       0.02599329
H        1.85441021      -0.16533716      -1.50435949
H        1.77508177       1.51787479      -0.97220472
H        0.78985689      -2.00220615      -0.04213319
H        0.24591818      -1.46626841       1.56855205
H       -2.04887142      -1.20903507       0.64792644
H       -1.47631284      -1.83953522      -0.90087645
H       -0.90961798       0.46824652      -1.62548290
H       -2.04711879       1.22301988       1.06148887
H       -0.09113216       2.15800132       0.83358215
17
Frame=13 idx=007041 GeodesicLength=0.6326217196566292 rxn_smarts="[C:1]([C@:2]12[C:3]([H:11])([H:12])[C:4]([H:13])([H:14])[C@@:5]1([H:15])[C:6]([H:16])([H:17])[O:7]2)([H:8])([H:9])[H:10]>>[C:1]([C@:2]1([O:7][H:17])[C:3]([H:11])([H:12])[C:4]([H:13])([H:14])[C@:5]1([C:6][H:16])[H:15])([H:8])([H:9])[H:10]"
C        1.76038617       0.48344401      -0.62851666
C        0.50181459       0.16802603       0.12816258
C        0.17231194      -1.28593896       0.49416560
C       -1.25151476      -1.14689674      -0.08840585
C       -0.93575954       0.28584019      -0.55401656
C       -1.26662649       1.43603706       0.31104464
O        0.30358914       1.03968077       1.24266556
H        2.61921795       0.32366551       0.02787212
H        1.85347723      -0.16007069      -1.50449582
H        1.77448049       1.52092850      -0.96655002
H        0.78669942      -2.00209554      -0.05294950
H        0.25195491      -1.47433415       1.56431886
H       -2.04612796      -1.20522815       0.65634189
H       -1.48546558      -1.84232985      -0.89401028
H       -0.90023982       0.45876100      -1.62802227
H       -2.04645287       1.22617115       1.05422982
H       -0.09174483       2.17433986       0.83816587
17
Frame=14 idx=007041 GeodesicLength=0.6813575885204496 rxn_smarts="[C:1]([C@:2]12[C:3]([H:11])([H:12])[C:4]([H:13])([H:14])[C@@:5]1([H:15])[C:6]([H:16])([H:17])[O:7]2)([H:8])([H:9])[H:10]>>[C:1]([C@:2]1([O:7][H:17])[C:3]([H:11])([H:12])[C:4]([H:13])([H:14])[C@:5]1([C:6][H:16])[H:15])([H:8])([H:9])[H:10]"
C        1.75985576       0.48541436      -0.62622337
C        0.50214410       0.16623906       0.13033011
C        0.17240770      -1.28899255       0.49118475
C       -1.25333679      -1.14786780      -0.08525359
C       -0.93734378       0.28272781      -0.55603460
C       -1.26294003       1.43527012       0.30535224
O        0.29977215       1.03579332       1.24324633
H        2.61865631       0.32369784       0.02975832
H        1.85256437      -0.15479386      -1.50460982
H        1.77385638       1.52397087      -0.96084706
H        0.78347873      -2.00195161      -0.06381931
H        0.25801184      -1.48245583       1.55997792
H       -2.04330468      -1.20136312       0.66476240
H       -1.49464929      -1.84509125      -0.88705074
H       -0.89087925       0.44917925      -1.63045819
H       -2.04572990       1.22935208       1.04688713
H       -0.09256361       2.19087129       0.84279748
17
Frame=15 idx=007041 GeodesicLength=0.7301144682668299 rxn_smarts="[C:1]([C@:2]12[C:3]([H:11])([H:12])[C:4]([H:13])([H:14])[C@@:5]1([H:15])[C:6]([H:16])([H:17])[O:7]2)([H:8])([H:9])[H:10]>>[C:1]([C@:2]1([O:7][H:17])[C:3]([H:11])([H:12])[C:4]([H:13])([H:14])[C@:5]1([C:6][H:16])[H:15])([H:8])([H:9])[H:10]"
C        1.75933888       0.48738155      -0.62390042
C        0.50249316       0.16439977       0.13249448
C        0.17250784      -1.29209105       0.48814431
C       -1.25516073      -1.14883133      -0.08206646
C       -0.93891189       0.27958383      -0.55808721
C       -1.25915638       1.43448612       0.29961269
O        0.29595571       1.03184565       1.24381884
H        2.61810646       0.32370905       0.03166603
H        1.85167839      -0.14948106      -1.50470172
H        1.77321619       1.52701439      -0.95506446
H        0.78018517      -2.00177404      -0.07478377
H        0.26411696      -1.49066033       1.55550744
H       -2.04038679      -1.19742398       0.67322696
H       -1.50390038      -1.84782370      -0.87996422
H       -0.88152711       0.43947736      -1.63279793
H       -2.04495587       1.23258274       1.03943132
H       -0.09359960       2.20760504       0.84746411
17
Frame=16 idx=007041 GeodesicLength=0.7788855158234472 rxn_smarts="[C:1]([C@:2]12[C:3]([H:11])([H:12])[C:4]([H:13])([H:14])[C@@:5]1([H:15])[C:6]([H:16])([H:17])[O:7]2)([H:8])([H:9])[H:10]>>[C:1]([C@:2]1([O:7][H:17])[C:3]([H:11])([H:12])[C:4]([H:13])([H:14])[C@:5]1([C:6][H:16])[H:15])([H:8])([H:9])[H:10]"
C        1.75883266       0.48933498      -0.62155797
C        0.50286334       0.16251099       0.13465755
C        0.17260595      -1.29522603       0.48506080
C       -1.25697777      -1.14978848      -0.07886494
C       -0.94046519       0.27641819      -0.56016498
C       -1.25528206       1.43367599       0.29385756
O        0.29215640       1.02784772       1.24438156
H        2.61757026       0.32369245       0.03357973
H        1.85080775      -0.14415560      -1.50477318
H        1.77255914       1.53004364      -0.94922598
H        0.77682626      -2.00156215      -0.08579759
H        0.27023551      -1.49892390       1.55092802
H       -2.03738597      -1.19343218       0.68168920
H       -1.51317563      -1.85051802      -0.87278863
H       -0.87219529       0.42968929      -1.63502835
H       -2.04411541       1.23583116       1.03190915
H       -0.09485994       2.22456195       0.85213804
