17
Frame=0 idx=007095 GeodesicLength=0.0 rxn_smarts="[C:1]([C@@:2]([O:3][H:12])([C:4]([C:5]([C:6](=[O:7])[H:17])([H:15])[H:16])([H:13])[H:14])[H:11])([H:8])([H:9])[H:10]>>[C:1]1([H:8])([H:10])[C@:2]([O:3][H:12])([H:11])[C:4]([H:13])([H:14])[C:5]([H:15])([H:16])[C@@:6]1([O:7][H:9])[H:17]"
C       -1.18605401       0.53168958      -0.18413706
C       -0.70517056      -0.86784120      -0.56999784
O       -0.41298512      -0.96015264      -1.95071864
C        0.49859871      -1.24334411       0.32680818
C        1.00656911       0.02833503       1.00313613
C        0.56702330       1.21801326       0.18323186
O        0.44278694       2.41582238       0.73228107
H       -1.79874124       0.48856655       0.72385264
H       -0.62351931       1.69272203       0.30430813
H       -1.73753319       0.99645037      -1.00174278
H       -1.52248814      -1.57548538      -0.42773034
H        0.36588132      -0.43588691      -2.14914502
H        0.21006614      -1.98778180       1.06903006
H        1.25789084      -1.71358021      -0.30014036
H        2.09469915       0.06780079       1.09049506
H        0.59761351       0.15560324       2.00700795
H        0.94536255       1.18906905      -0.85653908
17
Frame=1 idx=007095 GeodesicLength=0.13374341932070835 rxn_smarts="[C:1]([C@@:2]([O:3][H:12])([C:4]([C:5]([C:6](=[O:7])[H:17])([H:15])[H:16])([H:13])[H:14])[H:11])([H:8])([H:9])[H:10]>>[C:1]1([H:8])([H:10])[C@:2]([O:3][H:12])([H:11])[C:4]([H:13])([H:14])[C:5]([H:15])([H:16])[C@@:6]1([O:7][H:9])[H:17]"
C       -1.19982089       0.52306669      -0.18862558
C       -0.70176800      -0.86903483      -0.57624061
O       -0.38629101      -0.95574804      -1.95148286
C        0.48366136      -1.24285429       0.34185311
C        1.02708749       0.02649039       0.99164659
C        0.57528254       1.21967820       0.18534978
O        0.43382219       2.41009890       0.74282107
H       -1.81771415       0.46726842       0.71509107
H       -0.65172478       1.70379564       0.30147061
H       -1.75867268       0.97944723      -1.00623021
H       -1.51533620      -1.58538466      -0.45318145
H        0.35971175      -0.38869203      -2.15576415
H        0.17233648      -1.95579992       1.10599606
H        1.23468868      -1.75555894      -0.26102430
H        2.11779350       0.05118250       1.04671628
H        0.65366768       0.15871598       2.00888692
H        0.97327604       1.21332875      -0.84728233
17
Frame=2 idx=007095 GeodesicLength=0.2674553320587256 rxn_smarts="[C:1]([C@@:2]([O:3][H:12])([C:4]([C:5]([C:6](=[O:7])[H:17])([H:15])[H:16])([H:13])[H:14])[H:11])([H:8])([H:9])[H:10]>>[C:1]1([H:8])([H:10])[C@:2]([O:3][H:12])([H:11])[C:4]([H:13])([H:14])[C:5]([H:15])([H:16])[C@@:6]1([O:7][H:9])[H:17]"
C       -1.21363087       0.51424598      -0.19346012
C       -0.69785916      -0.87019848      -0.58232195
O       -0.35782573      -0.95084801      -1.95139503
C        0.46858494      -1.24177631       0.35743468
C        1.04805073       0.02404978       0.97963706
C        0.58444925       1.22110797       0.18755929
O        0.42396065       2.40316285       0.75424233
H       -1.83725857       0.44554406       0.70537162
H       -0.68105893       1.71493901       0.29867870
H       -1.77946558       0.96174765      -1.01145625
H       -1.50691435      -1.59549366      -0.47885372
H        0.35096969      -0.34105260      -2.16249751
H        0.13439921      -1.92098150       1.14286656
H        1.20936736      -1.79719203      -0.21945669
H        2.14019671       0.03313482       1.00124194
H        0.71182200       0.16110238       2.00937215
H        1.00221266       1.23850810      -0.83696306
17
Frame=3 idx=007095 GeodesicLength=0.4011376071065704 rxn_smarts="[C:1]([C@@:2]([O:3][H:12])([C:4]([C:5]([C:6](=[O:7])[H:17])([H:15])[H:16])([H:13])[H:14])[H:11])([H:8])([H:9])[H:10]>>[C:1]1([H:8])([H:10])[C@:2]([O:3][H:12])([H:11])[C:4]([H:13])([H:14])[C:5]([H:15])([H:16])[C@@:6]1([O:7][H:9])[H:17]"
C       -1.22747637       0.50523877      -0.19864436
C       -0.69340755      -0.87130558      -0.58821221
O       -0.32749012      -0.94525619      -1.95035004
C        0.45338442      -1.24004781       0.37356669
C        1.06946145       0.02096329       0.96712119
C        0.59463513       1.22228392       0.18986718
O        0.41319177       2.39487749       0.76649426
H       -1.85739636       0.42336533       0.69463665
H       -0.71160146       1.72615872       0.29598099
H       -1.79987993       0.94336115      -1.01743690
H       -1.49710757      -1.60581465      -0.50474596
H        0.33941625      -0.29322793      -2.16938893
H        0.09641390      -1.88318876       1.17953718
H        1.18184088      -1.83818123      -0.17537463
H        2.16177100       0.01354196       0.95411331
H        0.77203523       0.16264304       2.00832742
H        1.03220931       1.26458849      -0.82549184
17
Frame=4 idx=007095 GeodesicLength=0.5347874801572675 rxn_smarts="[C:1]([C@@:2]([O:3][H:12])([C:4]([C:5]([C:6](=[O:7])[H:17])([H:15])[H:16])([H:13])[H:14])[H:11])([H:8])([H:9])[H:10]>>[C:1]1([H:8])([H:10])[C@:2]([O:3][H:12])([H:11])[C:4]([H:13])([H:14])[C:5]([H:15])([H:16])[C@@:6]1([O:7][H:9])[H:17]"
C       -1.24135593       0.49606729      -0.20416600
C       -0.68839220      -0.87231516      -0.59387400
O       -0.29525922      -0.93870909      -1.94824403
C        0.43808064      -1.23759379       0.39023758
C        1.09130588       0.01718110       0.95411971
C        0.60596003       1.22318751       0.19227665
O        0.40151328       2.38510148       0.77948154
H       -1.87814432       0.40070276       0.68284601
H       -0.74344466       1.73746924       0.29345762
H       -1.81989186       0.92431817      -1.02416355
H       -1.48580492      -1.61633487      -0.53083803
H        0.32492183      -0.24563976      -2.17644493
H        0.05860123      -1.84231861       1.21586121
H        1.15205071      -1.87815337      -0.12879837
H        2.18235198      -0.00770143       0.90541139
H        0.83419312       0.16321040       2.00561468
H        1.06331443       1.29152812      -0.81277749
17
Frame=5 idx=007095 GeodesicLength=0.6684526808411955 rxn_smarts="[C:1]([C@@:2]([O:3][H:12])([C:4]([C:5]([C:6](=[O:7])[H:17])([H:15])[H:16])([H:13])[H:14])[H:11])([H:8])([H:9])[H:10]>>[C:1]1([H:8])([H:10])[C@:2]([O:3][H:12])([H:11])[C:4]([H:13])([H:14])[C:5]([H:15])([H:16])[C@@:6]1([O:7][H:9])[H:17]"
C       -1.25527844       0.48676075      -0.21000574
C       -0.68280828      -0.87317862      -0.59926921
O       -0.26118838      -0.93092327      -1.94497440
C        0.42271021      -1.23433629       0.40741125
C        1.11356867       0.01265753       0.94066417
C        0.61856018       1.22381545       0.19478079
O        0.38894646       2.37371189       0.79305256
H       -1.89951817       0.37751933       0.66996243
H       -0.77671313       1.74886745       0.29121919
H       -1.83949578       0.90466354      -1.03161135
H       -1.47291038      -1.62702601      -0.55709056
H        0.30744033      -0.19877942      -2.18363125
H        0.02121588      -1.79830302       1.25166117
H        1.11997298      -1.91670605      -0.07982650
H        2.20177688      -0.03068359       0.85528102
H        0.89812143       0.16266686       2.00111056
H        1.09559955       1.31927347      -0.79873414
17
Frame=6 idx=007095 GeodesicLength=0.802143952689109 rxn_smarts="[C:1]([C@@:2]([O:3][H:12])([C:4]([C:5]([C:6](=[O:7])[H:17])([H:15])[H:16])([H:13])[H:14])[H:11])([H:8])([H:9])[H:10]>>[C:1]1([H:8])([H:10])[C@:2]([O:3][H:12])([H:11])[C:4]([H:13])([H:14])[C:5]([H:15])([H:16])[C@@:6]1([O:7][H:9])[H:17]"
C       -1.26926133       0.47736795      -0.21611885
C       -0.67668932      -0.87383244      -0.60434408
O       -0.22552171      -0.92157543      -1.94047163
C        0.40732607      -1.23018651       0.42499667
C        1.13619702       0.00735485       0.92679761
C        0.63257073       1.22416200       0.19736564
O        0.37551659       2.36059739       0.80697185
H       -1.92151872       0.35378877       0.65598548
H       -0.81154307       1.76037940       0.28943109
H       -1.85869228       0.88447839      -1.03972192
H       -1.45836020      -1.63783873      -0.58339207
H        0.28717038      -0.15333543      -2.19086246
H       -0.01537849      -1.75116873       1.28669514
H        1.08565792      -1.95334880      -0.02871816
H        2.21984666      -0.05545491       0.80394434
H        0.96350679       0.16088257       1.99470603
H        1.12917296       1.34772964      -0.78326469
17
Frame=7 idx=007095 GeodesicLength=0.9359062354961208 rxn_smarts="[C:1]([C@@:2]([O:3][H:12])([C:4]([C:5]([C:6](=[O:7])[H:17])([H:15])[H:16])([H:13])[H:14])[H:11])([H:8])([H:9])[H:10]>>[C:1]1([H:8])([H:10])[C@:2]([O:3][H:12])([H:11])[C:4]([H:13])([H:14])[C:5]([H:15])([H:16])[C@@:6]1([O:7][H:9])[H:17]"
C       -1.28333229       0.46794140      -0.22245015
C       -0.67009352      -0.87420912      -0.60904587
O       -0.18863948      -0.91039041      -1.93469876
C        0.39200521      -1.22506023       0.44286564
C        1.15912843       0.00124779       0.91257665
C        0.64813848       1.22423357       0.19999635
O        0.36127708       2.34568493       0.82090000
H       -1.94413462       0.32947780       0.64092758
H       -0.84811265       1.77199967       0.28830686
H       -1.87749782       0.86385568      -1.04841481
H       -1.44213104      -1.64870068      -0.60958167
H        0.26443419      -0.10996226      -2.19801994
H       -0.05079092      -1.70100879       1.32069571
H        1.04922683      -1.98759979       0.02416658
H        2.23637961      -0.08202221       0.75171558
H        1.02994322       0.15774145       1.98633316
H        1.16419928       1.37677120      -0.76627291
17
Frame=8 idx=007095 GeodesicLength=1.0697919955234252 rxn_smarts="[C:1]([C@@:2]([O:3][H:12])([C:4]([C:5]([C:6](=[O:7])[H:17])([H:15])[H:16])([H:13])[H:14])[H:11])([H:8])([H:9])[H:10]>>[C:1]1([H:8])([H:10])[C@:2]([O:3][H:12])([H:11])[C:4]([H:13])([H:14])[C:5]([H:15])([H:16])[C@@:6]1([O:7][H:9])[H:17]"
C       -1.29753235       0.45853863      -0.22892695
C       -0.66311866      -0.87424227      -0.61332094
O       -0.15110752      -0.89714940      -1.92768732
C        0.37684538      -1.21888605       0.46084806
C        1.18227768      -0.00567222       0.89807883
C        0.66541413       1.22404085       0.20261667
O        0.34630406       2.32896003       0.83435932
H       -1.96733503       0.30454460       0.62483633
H       -0.88663306       1.78373096       0.28812927
H       -1.89594663       0.84291083      -1.05758950
H       -1.42426208      -1.65953223      -0.63543303
H        0.23973830      -0.06928499      -2.20497407
H       -0.08458214      -1.64803622       1.35337033
H        1.01089841      -2.01898132       0.07834833
H        2.25121180      -0.11033444       0.69901005
H        1.09690871       0.15316495       1.97598526
H        1.20091899       1.40622831      -0.74765065
17
Frame=9 idx=007095 GeodesicLength=1.2038405252272493 rxn_smarts="[C:1]([C@@:2]([O:3][H:12])([C:4]([C:5]([C:6](=[O:7])[H:17])([H:15])[H:16])([H:13])[H:14])[H:11])([H:8])([H:9])[H:10]>>[C:1]1([H:8])([H:10])[C@:2]([O:3][H:12])([H:11])[C:4]([H:13])([H:14])[C:5]([H:15])([H:16])[C@@:6]1([O:7][H:9])[H:17]"
C       -1.31190910       0.44920431      -0.23546367
C       -0.65586939      -0.87386531      -0.61713056
O       -0.11355198      -0.88172756      -1.91952447
C        0.36195967      -1.21160761       0.47875595
C        1.20555220      -0.01339735       0.88339506
C        0.68455845       1.22359403       0.20513433
O        0.33071003       2.31046566       0.84671660
H       -1.99106382       0.27892656       0.60778228
H       -0.92735844       1.79550470       0.28924840
H       -1.91408786       0.82175096      -1.06711544
H       -1.40482838      -1.67023343      -0.66070365
H        0.21359955      -0.03170953      -2.21160881
H       -0.11634976      -1.59251282       1.38443866
H        0.97095247      -2.04709919       0.13331560
H        2.26423068      -0.14029087       0.64632873
H        1.16380530       0.14712228       1.96372502
H        1.23965039       1.43587517      -0.72729404
17
Frame=10 idx=007095 GeodesicLength=1.338094514237471 rxn_smarts="[C:1]([C@@:2]([O:3][H:12])([C:4]([C:5]([C:6](=[O:7])[H:17])([H:15])[H:16])([H:13])[H:14])[H:11])([H:8])([H:9])[H:10]>>[C:1]1([H:8])([H:10])[C@:2]([O:3][H:12])([H:11])[C:4]([H:13])([H:14])[C:5]([H:15])([H:16])[C@@:6]1([O:7][H:9])[H:17]"
C       -1.32651946       0.43996607      -0.24195857
C       -0.64845501      -0.87301779      -0.62045805
O       -0.07662413      -0.86407091      -1.91036619
C        0.34746407      -1.20319217       0.49639543
C        1.22885136      -0.02190348       0.86863960
C        0.70574704       1.22289822       0.20741701
O        0.31463766       2.29033863       0.85714458
H       -2.01523760       0.25252771       0.58986938
H       -0.97058632       1.80720808       0.29210893
H       -1.93199375       0.80047835      -1.07683687
H       -1.38393513      -1.68071007      -0.68516481
H        0.18649703       0.00259329      -2.21784336
H       -0.14574348      -1.53477328       1.41363844
H        0.92972375      -2.07164787       0.18855620
H        2.27538702      -0.17176097       0.59425371
H        1.22998112       0.13965177       1.94970467
H        1.28080583       1.46541442      -0.70510010
17
Frame=11 idx=007095 GeodesicLength=1.472592375141006 rxn_smarts="[C:1]([C@@:2]([O:3][H:12])([C:4]([C:5]([C:6](=[O:7])[H:17])([H:15])[H:16])([H:13])[H:14])[H:11])([H:8])([H:9])[H:10]>>[C:1]1([H:8])([H:10])[C@:2]([O:3][H:12])([H:11])[C:4]([H:13])([H:14])[C:5]([H:15])([H:16])[C@@:6]1([O:7][H:9])[H:17]"
C       -1.34142991       0.43082502      -0.24829918
C       -0.64096948      -0.87164052      -0.62331687
O       -0.04090152      -0.84416905      -1.90041399
C        0.33346475      -1.19362698       0.51358862
C        1.25207856      -0.03115282       0.85394519
C        0.72917334       1.22195161       0.20929296
O        0.29826733       2.26880586       0.86462610
H       -2.03975344       0.22520919       0.57122346
H       -1.01665422       1.81864253       0.29726820
H       -1.94975815       0.77917680      -1.08657719
H       -1.36168905      -1.69086961      -0.70865271
H        0.15877346       0.03371016      -2.22365348
H       -0.17251399      -1.47516874       1.44074952
H        0.88755057      -2.09243494       0.24361434
H        2.28471052      -0.20460290       0.54341534
H        1.29478350       0.13085958       1.93416555
H        1.32486773       1.49448481      -0.68097588
17
Frame=12 idx=007095 GeodesicLength=1.607375649105818 rxn_smarts="[C:1]([C@@:2]([O:3][H:12])([C:4]([C:5]([C:6](=[O:7])[H:17])([H:15])[H:16])([H:13])[H:14])[H:11])([H:8])([H:9])[H:10]>>[C:1]1([H:8])([H:10])[C@:2]([O:3][H:12])([H:11])[C:4]([H:13])([H:14])[C:5]([H:15])([H:16])[C@@:6]1([O:7][H:9])[H:17]"
C       -1.35672580       0.42175662      -0.25437163
C       -0.63348806      -0.86967194      -0.62575233
O       -0.00684675      -0.82200963      -1.88989618
C        0.32004644      -1.18291644       0.53018675
C        1.27515390      -0.04109988       0.83945762
C        0.75505204       1.22074638       0.21055849
O        0.28179657       2.24618678       0.86795594
H       -2.06450817       0.19678609       0.55197640
H       -1.06592520       1.82950321       0.30541489
H       -1.96750516       0.75791917      -1.09615604
H       -1.33818399      -1.70062421      -0.73109283
H        0.13062472       0.06193868      -2.22905182
H       -0.19652751      -1.41403893       1.46560361
H        0.84473793      -2.10937773       0.29812534
H        2.29231787      -0.23868733       0.49444995
H        1.35761385       0.12090759       1.91742842
H        1.37236734       1.52268156      -0.65483658
17
Frame=13 idx=007095 GeodesicLength=1.7424085673280678 rxn_smarts="[C:1]([C@@:2]([O:3][H:12])([C:4]([C:5]([C:6](=[O:7])[H:17])([H:15])[H:16])([H:13])[H:14])[H:11])([H:8])([H:9])[H:10]>>[C:1]1([H:8])([H:10])[C@:2]([O:3][H:12])([H:11])[C:4]([H:13])([H:14])[C:5]([H:15])([H:16])[C@@:6]1([O:7][H:9])[H:17]"
C       -1.37251224       0.41271428      -0.26007600
C       -0.62607559      -0.86704950      -0.62783512
O        0.02517254      -0.79756747      -1.87904500
C        0.30725520      -1.17106831       0.54606678
C        1.29801454      -0.05169634       0.82530111
C        0.78359646       1.21927062       0.21100401
O        0.26538660       2.22286405       0.86577638
H       -2.08940224       0.16703752       0.53224390
H       -1.11870574       1.83935317       0.31738563
H       -1.98537871       0.73677268      -1.10541503
H       -1.31349411      -1.70989330      -0.75248910
H        0.10221895       0.08770290      -2.23400978
H       -0.21775293      -1.35165411       1.48808221
H        0.80150219      -2.12248468       0.35183248
H        2.29838129      -0.27390233       0.44790655
H        1.41797717       0.10999180       1.89984014
H        1.42381661       1.54960902      -0.62656916
17
Frame=14 idx=007095 GeodesicLength=1.8777665842723805 rxn_smarts="[C:1]([C@@:2]([O:3][H:12])([C:4]([C:5]([C:6](=[O:7])[H:17])([H:15])[H:16])([H:13])[H:14])[H:11])([H:8])([H:9])[H:10]>>[C:1]1([H:8])([H:10])[C@:2]([O:3][H:12])([H:11])[C:4]([H:13])([H:14])[C:5]([H:15])([H:16])[C@@:6]1([O:7][H:9])[H:17]"
C       -1.38890921       0.40362430      -0.26529776
C       -0.61875203      -0.86368397      -0.62965649
O        0.05496545      -0.77074448      -1.86805804
C        0.29511982      -1.15807391       0.56113149
C        1.32059723      -0.06288356       0.81163721
C        0.81506594       1.21749857       0.21039006
O        0.24922232       2.19925412       0.85649290
H       -2.11433492       0.13573480       0.51214586
H       -1.17530884       1.84757592       0.33413469
H       -2.00354065       0.71577255      -1.11415113
H       -1.28762063      -1.71856244      -0.77294859
H        0.07346063       0.11156207      -2.23856541
H       -0.23627438      -1.28823379       1.50807548
H        0.75800931      -2.13178207       0.40453448
H        2.30312715      -0.31020280       0.40439081
H        1.47540860       0.09835414       1.88182488
H        1.47976421       1.57479055      -0.59608045
17
Frame=15 idx=007095 GeodesicLength=2.01349242549004 rxn_smarts="[C:1]([C@@:2]([O:3][H:12])([C:4]([C:5]([C:6](=[O:7])[H:17])([H:15])[H:16])([H:13])[H:14])[H:11])([H:8])([H:9])[H:10]>>[C:1]1([H:8])([H:10])[C@:2]([O:3][H:12])([H:11])[C:4]([H:13])([H:14])[C:5]([H:15])([H:16])[C@@:6]1([O:7][H:9])[H:17]"
C       -1.40607827       0.39439121      -0.26995547
C       -0.61154633      -0.85948635      -0.63131589
O        0.08239276      -0.74139405      -1.85710100
C        0.28362352      -1.14391147       0.57531150
C        1.34285159      -0.07460329       0.79859511
C        0.84969322       1.21540669       0.20853875
O        0.23340028       2.17575037       0.83835070
H       -2.13922360       0.10264573       0.49178125
H       -1.23579304       1.85342833       0.35668735
H       -2.02219709       0.69493387      -1.12221623
H       -1.26054034      -1.72652961      -0.79263108
H        0.04432174       0.13409869      -2.24266705
H       -0.25223635      -1.22390187       1.52551987
H        0.71431804      -2.13732545       0.45612304
H        2.30678034      -0.34756429       0.36435379
H        1.52958864       0.08622953       1.86378538
H        1.54064487       1.59783196      -0.56316002
17
Frame=16 idx=007095 GeodesicLength=2.1496970421287487 rxn_smarts="[C:1]([C@@:2]([O:3][H:12])([C:4]([C:5]([C:6](=[O:7])[H:17])([H:15])[H:16])([H:13])[H:14])[H:11])([H:8])([H:9])[H:10]>>[C:1]1([H:8])([H:10])[C@:2]([O:3][H:12])([H:11])[C:4]([H:13])([H:14])[C:5]([H:15])([H:16])[C@@:6]1([O:7][H:9])[H:17]"
C       -1.42423046       0.38488081      -0.27399327
C       -0.60448957      -0.85436528      -0.63291346
O        0.10738978      -0.70929234      -1.84627496
C        0.27271504      -1.12854141       0.58856556
C        1.36472372      -0.08679184       0.78630215
C        0.88767449       1.21298194       0.20537625
O        0.21796090       2.15264026       0.80941774
H       -2.16398780       0.06756614       0.47127362
H       -1.29979803       1.85607448       0.38595448
H       -2.04163614       0.67418811      -1.12948644
H       -1.23218358      -1.73369676      -0.81175285
H        0.01471477       0.15594296      -2.24621578
H       -0.26583896      -1.15870841       1.54037651
H        0.67040911      -2.13916002       0.50655060
H        2.30953707      -0.38596973       0.32814419
H        1.58030847       0.07382027       1.84611989
H        1.60673120       1.61843082      -0.52744421
