9
Frame=0 idx=002791 GeodesicLength=0.0 rxn_smarts="[O:1]=[C:2]1[C:3]([H:7])([H:8])[N:4]=[C:5]([H:9])[O:6]1>>[O:1]=[C:2]=[C:3](/[N:4]=[C:5](\[O:6][H:7])[H:9])[H:8]"
O       -2.20515998       1.53379365       0.21387892
C       -1.52804099       0.69381641      -0.12021213
C       -0.62583346      -0.29192383      -0.45383162
N        0.66040605       0.35500736      -0.74268917
C        1.44552024      -0.02766499       0.25062269
O        1.07981645      -0.75017186       1.21441263
H       -0.28146573      -0.80578972       0.60497245
H       -1.02746971      -1.02148939      -1.15852055
H        2.48222709       0.31442236       0.19136680
9
Frame=1 idx=002791 GeodesicLength=0.09587215775312911 rxn_smarts="[O:1]=[C:2]1[C:3]([H:7])([H:8])[N:4]=[C:5]([H:9])[O:6]1>>[O:1]=[C:2]=[C:3](/[N:4]=[C:5](\[O:6][H:7])[H:9])[H:8]"
O       -2.18272716       1.51484485       0.25831095
C       -1.48761678       0.68941482      -0.08217443
C       -0.62053893      -0.30676904      -0.48065711
N        0.67461363       0.31653201      -0.77633648
C        1.43926304      -0.01801330       0.24528023
O        1.02253595      -0.63166677       1.27029899
H       -0.27747162      -0.86216716       0.57515143
H       -1.05170254      -1.00119092      -1.20216336
H        2.48364439       0.29901550       0.19228979
9
Frame=2 idx=002791 GeodesicLength=0.19326733964350723 rxn_smarts="[O:1]=[C:2]1[C:3]([H:7])([H:8])[N:4]=[C:5]([H:9])[O:6]1>>[O:1]=[C:2]=[C:3](/[N:4]=[C:5](\[O:6][H:7])[H:9])[H:8]"
O       -2.16147466       1.49607551       0.29579001
C       -1.44696523       0.68629094      -0.04937909
C       -0.61612607      -0.32090391      -0.50230526
N        0.68839642       0.27649937      -0.80663674
C        1.43325064      -0.00967219       0.23985825
O        0.96863193      -0.53348658       1.30177280
H       -0.27180175      -0.90584520       0.55620111
H       -1.07554715      -0.98168669      -1.23668196
H        2.48163586       0.29272876       0.20138089
9
Frame=3 idx=002791 GeodesicLength=0.2914457848507472 rxn_smarts="[O:1]=[C:2]1[C:3]([H:7])([H:8])[N:4]=[C:5]([H:9])[O:6]1>>[O:1]=[C:2]=[C:3](/[N:4]=[C:5](\[O:6][H:7])[H:9])[H:8]"
O       -2.14195764       1.47655257       0.32913553
C       -1.40755947       0.68420948      -0.02228305
C       -0.61239328      -0.33398527      -0.52062073
N        0.70154701       0.23664860      -0.83308239
C        1.42704988       0.00000862       0.23525488
O        0.91892930      -0.45070632       1.31885016
H       -0.26661844      -0.94018401       0.54556774
H       -1.09743699      -0.96233198      -1.26572614
H        2.47843963       0.28978831       0.21290399
9
Frame=4 idx=002791 GeodesicLength=0.39189991801060625 rxn_smarts="[O:1]=[C:2]1[C:3]([H:7])([H:8])[N:4]=[C:5]([H:9])[O:6]1>>[O:1]=[C:2]=[C:3](/[N:4]=[C:5](\[O:6][H:7])[H:9])[H:8]"
O       -2.12574883       1.45521578       0.36002993
C       -1.37047814       0.68295152       0.00003910
C       -0.60974201      -0.34593021      -0.53713604
N        0.71455207       0.19891582      -0.85655266
C        1.42156390       0.01230686       0.23154353
O        0.87328314      -0.37783435       1.32879259
H       -0.26305045      -0.96797343       0.54181871
H       -1.11805333      -0.94308757      -1.29277714
H        2.47767365       0.28543558       0.22424198
9
Frame=5 idx=002791 GeodesicLength=0.49029321249647495 rxn_smarts="[O:1]=[C:2]1[C:3]([H:7])([H:8])[N:4]=[C:5]([H:9])[O:6]1>>[O:1]=[C:2]=[C:3](/[N:4]=[C:5](\[O:6][H:7])[H:9])[H:8]"
O       -2.10873212       1.43386302       0.38889427
C       -1.33460307       0.68213650       0.01838533
C       -0.60606819      -0.35682505      -0.55070492
N        0.72567096       0.16002491      -0.87518260
C        1.41391639       0.02409125       0.22678390
O        0.83012008      -0.31361303       1.32930730
H       -0.25845491      -0.99028802       0.54119666
H       -1.13321948      -0.92227390      -1.31475228
H        2.47137035       0.28288433       0.23607234
9
Frame=6 idx=002791 GeodesicLength=0.5892443200055013 rxn_smarts="[O:1]=[C:2]1[C:3]([H:7])([H:8])[N:4]=[C:5]([H:9])[O:6]1>>[O:1]=[C:2]=[C:3](/[N:4]=[C:5](\[O:6][H:7])[H:9])[H:8]"
O       -2.09513254       1.41066501       0.41626559
C       -1.30149543       0.68154813       0.03375186
C       -0.60356020      -0.36672164      -0.56353844
N        0.73665032       0.12418781      -0.89174063
C        1.40743865       0.03853158       0.22220550
O        0.79042809      -0.25413419       1.32766359
H       -0.25543391      -1.00876246       0.54526472
H       -1.14756729      -0.90165231      -1.33682180
H        2.46867231       0.27633808       0.24694961
9
Frame=7 idx=002791 GeodesicLength=0.6882623544592283 rxn_smarts="[O:1]=[C:2]1[C:3]([H:7])([H:8])[N:4]=[C:5]([H:9])[O:6]1>>[O:1]=[C:2]=[C:3](/[N:4]=[C:5](\[O:6][H:7])[H:9])[H:8]"
O       -2.08162076       1.38758935       0.44234144
C       -1.27028928       0.68114132       0.04671352
C       -0.60163382      -0.37616239      -0.57524771
N        0.74703823       0.08846148      -0.90608230
C        1.40125176       0.05294298       0.21677851
O        0.75362232      -0.20021231       1.32283952
H       -0.25315710      -1.02463414       0.55245839
H       -1.16050238      -0.88043745      -1.35800039
H        2.46529103       0.27131117       0.25819902
9
Frame=8 idx=002791 GeodesicLength=0.7875983929918455 rxn_smarts="[O:1]=[C:2]1[C:3]([H:7])([H:8])[N:4]=[C:5]([H:9])[O:6]1>>[O:1]=[C:2]=[C:3](/[N:4]=[C:5](\[O:6][H:7])[H:9])[H:8]"
O       -2.07056018       1.36290006       0.46684647
C       -1.24124674       0.68079205       0.05807279
C       -0.59969724      -0.38461600      -0.58585448
N        0.75639387       0.05524997      -0.91797712
C        1.39470820       0.06996131       0.21067074
O        0.71914408      -0.14896387       1.31549812
H       -0.25053666      -1.03756380       0.56215499
H       -1.17052024      -0.85871415      -1.37788459
H        2.46231491       0.26095443       0.26847308
9
Frame=9 idx=002791 GeodesicLength=0.8870624413671833 rxn_smarts="[O:1]=[C:2]1[C:3]([H:7])([H:8])[N:4]=[C:5]([H:9])[O:6]1>>[O:1]=[C:2]=[C:3](/[N:4]=[C:5](\[O:6][H:7])[H:9])[H:8]"
O       -2.05849414       1.33933529       0.49031230
C       -1.21359556       0.68041573       0.06795397
C       -0.59848860      -0.39299523      -0.59577187
N        0.76533052       0.02130808      -0.92822421
C        1.38869476       0.08577010       0.20350049
O        0.68714468      -0.10266558       1.30637150
H       -0.24884695      -1.04926290       0.57407010
H       -1.17985367      -0.83638573      -1.39757200
H        2.45810895       0.25448025       0.27935972
9
Frame=10 idx=002791 GeodesicLength=0.9866254259151497 rxn_smarts="[O:1]=[C:2]1[C:3]([H:7])([H:8])[N:4]=[C:5]([H:9])[O:6]1>>[O:1]=[C:2]=[C:3](/[N:4]=[C:5](\[O:6][H:7])[H:9])[H:8]"
O       -2.04758680       1.31509292       0.51245574
C       -1.18760869       0.68003977       0.07672452
C       -0.59741360      -0.40077798      -0.60488197
N        0.77344455      -0.01150217      -0.93654751
C        1.38257910       0.10267435       0.19535170
O        0.65722105      -0.05901622       1.29553061
H       -0.24693927      -1.05909645       0.58783917
H       -1.18709604      -0.81329675      -1.41630414
H        2.45339972       0.24588253       0.28983188
9
Frame=11 idx=002791 GeodesicLength=1.0863324364440627 rxn_smarts="[O:1]=[C:2]1[C:3]([H:7])([H:8])[N:4]=[C:5]([H:9])[O:6]1>>[O:1]=[C:2]=[C:3](/[N:4]=[C:5](\[O:6][H:7])[H:9])[H:8]"
O       -2.03580413       1.29200743       0.53361894
C       -1.16262368       0.67961505       0.08457159
C       -0.59691904      -0.40848005      -0.61350458
N        0.78112226      -0.04510377      -0.94326979
C        1.37679622       0.11813396       0.18626197
O        0.62927548      -0.01957155       1.28363139
H       -0.24589925      -1.06821523       0.60323062
H       -1.19343272      -0.78946278      -1.43489666
H        2.44748487       0.24107695       0.30035652
9
Frame=12 idx=002791 GeodesicLength=1.1861576693984668 rxn_smarts="[O:1]=[C:2]1[C:3]([H:7])([H:8])[N:4]=[C:5]([H:9])[O:6]1>>[O:1]=[C:2]=[C:3](/[N:4]=[C:5](\[O:6][H:7])[H:9])[H:8]"
O       -2.02376923       1.26959387       0.55376092
C       -1.13863464       0.67914224       0.09166424
C       -0.59684752      -0.41596629      -0.62167322
N        0.78827044      -0.07910005      -0.94833336
C        1.37116875       0.13265555       0.17631604
O        0.60310109       0.01642004       1.27088495
H       -0.24547895      -1.07654797       0.62006942
H       -1.19848066      -0.76478556      -1.45318815
H        2.44067072       0.23858816       0.31049916
9
Frame=13 idx=002791 GeodesicLength=1.2860757198508053 rxn_smarts="[O:1]=[C:2]1[C:3]([H:7])([H:8])[N:4]=[C:5]([H:9])[O:6]1>>[O:1]=[C:2]=[C:3](/[N:4]=[C:5](\[O:6][H:7])[H:9])[H:8]"
O       -2.01132297       1.24806978       0.57294877
C       -1.11549072       0.67858219       0.09815143
C       -0.59721907      -0.42326194      -0.62949433
N        0.79491919      -0.11372426      -0.95173915
C        1.36567613       0.14588509       0.16563030
O        0.57852643       0.04896238       1.25758730
H       -0.24583718      -1.08433924       0.63819735
H       -1.20225381      -0.73923176      -1.47130997
H        2.43300201       0.23905775       0.32002830
9
Frame=14 idx=002791 GeodesicLength=1.3860634811370387 rxn_smarts="[O:1]=[C:2]1[C:3]([H:7])([H:8])[N:4]=[C:5]([H:9])[O:6]1>>[O:1]=[C:2]=[C:3](/[N:4]=[C:5](\[O:6][H:7])[H:9])[H:8]"
O       -1.99856800       1.22739674       0.59123872
C       -1.09312991       0.67790565       0.10414891
C       -0.59800695      -0.43033527      -0.63705186
N        0.80106313      -0.14897533      -0.95347878
C        1.36027164       0.15780677       0.15429754
O        0.55540159       0.07829677       1.24396306
H       -0.24700493      -1.09167789       0.65750752
H       -1.20464858      -0.71278212      -1.48931587
H        2.42462201       0.24236470       0.32869076
9
Frame=15 idx=002791 GeodesicLength=1.486097771650456 rxn_smarts="[O:1]=[C:2]1[C:3]([H:7])([H:8])[N:4]=[C:5]([H:9])[O:6]1>>[O:1]=[C:2]=[C:3](/[N:4]=[C:5](\[O:6][H:7])[H:9])[H:8]"
O       -1.98563843       1.20748424       0.60869987
C       -1.07152518       0.67708645       0.10975123
C       -0.59917563      -0.43714120      -0.64442454
N        0.80668922      -0.18478267      -0.95355195
C        1.35491220       0.16848284       0.14238586
O        0.53359292       0.10470484       1.23018812
H       -0.24897470      -1.09859987       0.67792002
H       -1.20554726      -0.68545286      -1.50724351
H        2.41566685       0.24821822       0.33627490
9
Frame=16 idx=002791 GeodesicLength=1.5861579977595137 rxn_smarts="[O:1]=[C:2]1[C:3]([H:7])([H:8])[N:4]=[C:5]([H:9])[O:6]1>>[O:1]=[C:2]=[C:3](/[N:4]=[C:5](\[O:6][H:7])[H:9])[H:8]"
O       -1.97267049       1.18821537       0.62540843
C       -1.05066406       0.67610575       0.11503580
C       -0.60068413      -0.44362987      -0.65168682
N        0.81177852      -0.22103505      -0.95196961
C        1.34956155       0.17800010       0.12994069
O        0.51298205       0.12847576       1.21639470
H       -0.25171643      -1.10510895       0.69937443
H       -1.20483432      -0.65728501      -1.52511330
H        2.40624732       0.25626190       0.34261568
