14
Frame=0 idx=002713 GeodesicLength=0.0 rxn_smarts="[C:1]([C@@:2]([O:3][H:11])([C:4]([C:5](=[O:6])[H:14])([H:12])[H:13])[H:10])([H:7])([H:8])[H:9]>>[C:1](=[C:2]([C:4]([C:5](=[O:6])[H:14])([H:12])[H:13])[H:10])([H:8])[H:9].[O:3]([H:7])[H:11]"
C       -1.68451476      -0.45214221      -0.45059174
C       -0.29925900      -0.20771689      -0.54971130
O       -0.47456513       1.52023157       0.31503723
C        0.69713702      -0.81081564       0.38541389
C        1.89197118       0.10554407       0.54156264
O        2.74872864       0.19638945      -0.29324692
H       -1.51613180       0.79790394       0.07862118
H       -2.27503326      -0.39776542      -1.35732250
H       -2.02301133      -1.15643817       0.30109364
H        0.11455530       0.15800601      -1.48392527
H       -0.35767569       2.30050699      -0.23886420
H        1.03583165      -1.75257400      -0.05820739
H        0.22758767      -1.01658390       1.34839530
H        1.91437946       0.71545414       1.46174548
14
Frame=1 idx=002713 GeodesicLength=0.059489496634472595 rxn_smarts="[C:1]([C@@:2]([O:3][H:11])([C:4]([C:5](=[O:6])[H:14])([H:12])[H:13])[H:10])([H:7])([H:8])[H:9]>>[C:1](=[C:2]([C:4]([C:5](=[O:6])[H:14])([H:12])[H:13])[H:10])([H:8])[H:9].[O:3]([H:7])[H:11]"
C       -1.68153909      -0.44970718      -0.45316383
C       -0.29642491      -0.19899766      -0.54904652
O       -0.48161050       1.52823682       0.32767564
C        0.69979643      -0.81280675       0.38045447
C        1.89959963       0.09643910       0.53816642
O        2.77473527       0.15953400      -0.28012379
H       -1.53610643       0.81163980       0.08075057
H       -2.26243195      -0.42572632      -1.36755262
H       -2.02061397      -1.14221412       0.30957818
H        0.11609540       0.15939377      -1.48712955
H       -0.38202103       2.31441288      -0.22075397
H        1.03180623      -1.75573447      -0.06515480
H        0.23259882      -1.01675490       1.34520771
H        1.90611610       0.73228503       1.44109208
14
Frame=2 idx=002713 GeodesicLength=0.11862067882735144 rxn_smarts="[C:1]([C@@:2]([O:3][H:11])([C:4]([C:5](=[O:6])[H:14])([H:12])[H:13])[H:10])([H:7])([H:8])[H:9]>>[C:1](=[C:2]([C:4]([C:5](=[O:6])[H:14])([H:12])[H:13])[H:10])([H:8])[H:9].[O:3]([H:7])[H:11]"
C       -1.67853033      -0.44697685      -0.45577773
C       -0.29352446      -0.19020911      -0.54848497
O       -0.48899328       1.53617994       0.34037992
C        0.70242868      -0.81470061       0.37539320
C        1.90714021       0.08740581       0.53474530
O        2.80022595       0.12252438      -0.26577917
H       -1.55649524       0.82551737       0.08269375
H       -2.24931646      -0.45404687      -1.37695959
H       -2.01819327      -1.12777927       0.31761280
H        0.11764286       0.16059539      -1.49048687
H       -0.40618908       2.32801151      -0.20218099
H        1.02782335      -1.75872022      -0.07219965
H        0.23756647      -1.01683433       1.34189286
H        1.89841461       0.74903285       1.41915111
14
Frame=3 idx=002713 GeodesicLength=0.17740313760940485 rxn_smarts="[C:1]([C@@:2]([O:3][H:11])([C:4]([C:5](=[O:6])[H:14])([H:12])[H:13])[H:10])([H:7])([H:8])[H:9]>>[C:1](=[C:2]([C:4]([C:5](=[O:6])[H:14])([H:12])[H:13])[H:10])([H:8])[H:9].[O:3]([H:7])[H:11]"
C       -1.67549859      -0.44395237      -0.45844214
C       -0.29055304      -0.18137163      -0.54804478
O       -0.49667712       1.54405311       0.35312443
C        0.70503619      -0.81650168       0.37022542
C        1.91459693       0.07845780       0.53131502
O        2.82517082       0.08544409      -0.25016842
H       -1.57727638       0.83949696       0.08452619
H       -2.23575023      -0.48258538      -1.38546838
H       -2.01574632      -1.11320710       0.32516256
H        0.11920115       0.16157735      -1.49402260
H       -0.43016727       2.34128263      -0.18324175
H        1.02390558      -1.76152835      -0.07935264
H        0.24247687      -1.01683904       1.33844499
H        1.89128141       0.76567362       1.39594211
14
Frame=4 idx=002713 GeodesicLength=0.23586928735446722 rxn_smarts="[C:1]([C@@:2]([O:3][H:11])([C:4]([C:5](=[O:6])[H:14])([H:12])[H:13])[H:10])([H:7])([H:8])[H:9]>>[C:1](=[C:2]([C:4]([C:5](=[O:6])[H:14])([H:12])[H:13])[H:10])([H:8])[H:9].[O:3]([H:7])[H:11]"
C       -1.67243969      -0.44062393      -0.46116715
C       -0.28750133      -0.17249301      -0.54773961
O       -0.50464397       1.55184952       0.36589997
C        0.70763052      -0.81822470       0.36493886
C        1.92197589       0.06957783       0.52788789
O        2.84955316       0.04831490      -0.23322507
H       -1.59843795       0.85355935       0.08630021
H       -2.22175108      -0.51125933      -1.39303609
H       -2.01325891      -1.09849642       0.33223758
H        0.12077234       0.16232567      -1.49774769
H       -0.45400545       2.35422636      -0.16398412
H        1.02008030      -1.76416711      -0.08663869
H        0.24733707      -1.01679611       1.33484701
H        1.88468911       0.78220699       1.37142691
14
Frame=5 idx=002713 GeodesicLength=0.29403636786146736 rxn_smarts="[C:1]([C@@:2]([O:3][H:11])([C:4]([C:5](=[O:6])[H:14])([H:12])[H:13])[H:10])([H:7])([H:8])[H:9]>>[C:1](=[C:2]([C:4]([C:5](=[O:6])[H:14])([H:12])[H:13])[H:10])([H:8])[H:9].[O:3]([H:7])[H:11]"
C       -1.66934693      -0.43698680      -0.46396826
C       -0.28435901      -0.16357561      -0.54758125
O       -0.51288242       1.55955548       0.37870705
C        0.71021661      -0.81987156       0.35952666
C        1.92928158       0.06076235       0.52446118
O        2.87336449       0.01111923      -0.21487572
H       -1.61997427       0.86767375       0.08807097
H       -2.20733667      -0.53998326      -1.39962743
H       -2.01071283      -1.08367088       0.33882480
H        0.12236429       0.16284148      -1.50166402
H       -0.47775649       2.36683779      -0.14443147
H        1.01635813      -1.76663762      -0.09406435
H        0.25214591      -1.01670841       1.33108769
H        1.87863762       0.79864405       1.34553415
14
Frame=6 idx=002713 GeodesicLength=0.35192519906652203 rxn_smarts="[C:1]([C@@:2]([O:3][H:11])([C:4]([C:5](=[O:6])[H:14])([H:12])[H:13])[H:10])([H:7])([H:8])[H:9]>>[C:1](=[C:2]([C:4]([C:5](=[O:6])[H:14])([H:12])[H:13])[H:10])([H:8])[H:9].[O:3]([H:7])[H:11]"
C       -1.66622017      -0.43303912      -0.46685408
C       -0.28111819      -0.15463100      -0.54758397
O       -0.52136618       1.56715967       0.39153494
C        0.71280290      -0.82145355       0.35397755
C        1.93651868       0.05200410       0.52104900
O        2.89658116      -0.02610114      -0.19504130
H       -1.64187480       0.88181310       0.08989537
H       -2.19253958      -0.56866684      -1.40520993
H       -2.00810181      -1.06873728       0.34493549
H        0.12398077       0.16310825      -1.50578304
H       -0.50144403       2.37910748      -0.12462318
H        1.01276593      -1.76894133      -0.10165389
H        0.25690314      -1.01660103       1.32715086
H        1.87311215       0.81497870       1.31820619
14
Frame=7 idx=002713 GeodesicLength=0.4095502117834486 rxn_smarts="[C:1]([C@@:2]([O:3][H:11])([C:4]([C:5](=[O:6])[H:14])([H:12])[H:13])[H:10])([H:7])([H:8])[H:9]>>[C:1](=[C:2]([C:4]([C:5](=[O:6])[H:14])([H:12])[H:13])[H:10])([H:8])[H:9].[O:3]([H:7])[H:11]"
C       -1.66305576      -0.42877905      -0.46983325
C       -0.27777017      -0.14566959      -0.54776113
O       -0.53007069       1.57465117       0.40437346
C        0.71539717      -0.82297868       0.34828293
C        1.94368850       0.04330080       0.51766102
O        2.91917464      -0.06331631      -0.17363781
H       -1.66413056       0.89594751       0.09183554
H       -2.17739372      -0.59721167      -1.40975752
H       -2.00541290      -1.05371070       0.35057295
H        0.12562607       0.16311355      -1.51011220
H       -0.52510078       2.39102428      -0.10459464
H        1.00933034      -1.77107948      -0.10942378
H        0.26160789      -1.01649199       1.32302247
H        1.86810998       0.83120015       1.28937194
14
Frame=8 idx=002713 GeodesicLength=0.4669216522380979 rxn_smarts="[C:1]([C@@:2]([O:3][H:11])([C:4]([C:5](=[O:6])[H:14])([H:12])[H:13])[H:10])([H:7])([H:8])[H:9]>>[C:1](=[C:2]([C:4]([C:5](=[O:6])[H:14])([H:12])[H:13])[H:10])([H:8])[H:9].[O:3]([H:7])[H:11]"
C       -1.65985152      -0.42420634      -0.47291035
C       -0.27430718      -0.13670614      -0.54812759
O       -0.53896302       1.58201799       0.41720638
C        0.71800908      -0.82445740       0.34243247
C        1.95079056       0.03465080       0.51431584
O        2.94110890      -0.10047440      -0.15056784
H       -1.68673006       0.91004524       0.09395851
H       -2.16194977      -0.62550633      -1.41324691
H       -2.00263335      -1.03860444       0.35574666
H        0.12730164       0.16283662      -1.51466195
H       -0.54874874       2.40257128      -0.08438822
H        1.00608714      -1.77305012      -0.11739703
H        0.26626025      -1.01640752       1.31868484
H        1.86362608       0.84729077       1.25895519
14
Frame=9 idx=002713 GeodesicLength=0.524056779901992 rxn_smarts="[C:1]([C@@:2]([O:3][H:11])([C:4]([C:5](=[O:6])[H:14])([H:12])[H:13])[H:10])([H:7])([H:8])[H:9]>>[C:1](=[C:2]([C:4]([C:5](=[O:6])[H:14])([H:12])[H:13])[H:10])([H:8])[H:9].[O:3]([H:7])[H:11]"
C       -1.65660434      -0.41932401      -0.47608893
C       -0.27072105      -0.12775582      -0.54869991
O       -0.54800653       1.58925349       0.43001963
C        0.72064537      -0.82589912       0.33641686
C        1.95782137       0.02606183       0.51102699
O        2.96234361      -0.13752635      -0.12573014
H       -1.70966163       0.92407343       0.09633834
H       -2.14626119      -0.65344271      -1.41566596
H       -1.99975034      -1.02344225       0.36046514
H        0.12901153       0.16226044      -1.51944508
H       -0.57240975       2.41373829      -0.06404037
H        1.00306948      -1.77485556      -0.12559430
H        0.27085445      -1.01637175       1.31412437
H        1.85966901       0.86323008       1.22687337
14
Frame=10 idx=002713 GeodesicLength=0.5809530273154798 rxn_smarts="[C:1]([C@@:2]([O:3][H:11])([C:4]([C:5](=[O:6])[H:14])([H:12])[H:13])[H:10])([H:7])([H:8])[H:9]>>[C:1](=[C:2]([C:4]([C:5](=[O:6])[H:14])([H:12])[H:13])[H:10])([H:8])[H:9].[O:3]([H:7])[H:11]"
C       -1.65331700      -0.41413085      -0.47936198
C       -0.26700778      -0.11884386      -0.54949269
O       -0.55715491       1.59634299       0.44278333
C        0.72332197      -0.82732068       0.33022369
C        1.96477512       0.01753160       0.50783244
O        2.98281931      -0.17435505      -0.09902225
H       -1.73291085       0.93800429       0.09904256
H       -2.13040201      -0.68089275      -1.41700250
H       -1.99675399      -1.00821980       0.36475642
H        0.13074625       0.16134491      -1.52447306
H       -0.59607684       2.42449467      -0.04361040
H        1.00034041      -1.77648730      -0.13404955
H        0.27539537      -1.01642998       1.30931473
H        1.85622494       0.87896181       1.19305926
14
Frame=11 idx=002713 GeodesicLength=0.6376369023333492 rxn_smarts="[C:1]([C@@:2]([O:3][H:11])([C:4]([C:5](=[O:6])[H:14])([H:12])[H:13])[H:10])([H:7])([H:8])[H:9]>>[C:1](=[C:2]([C:4]([C:5](=[O:6])[H:14])([H:12])[H:13])[H:10])([H:8])[H:9].[O:3]([H:7])[H:11]"
C       -1.64999600      -0.40863362      -0.48272665
C       -0.26316216      -0.10999522      -0.55052496
O       -0.56635786       1.60328186       0.45547843
C        0.72604903      -0.82873466       0.32384342
C        1.97165022       0.00907448       0.50476145
O        3.00248489      -0.21085965      -0.07034473
H       -1.75646746       0.95180788       0.10214769
H       -2.11445497      -0.70774601      -1.41726424
H       -1.99364326      -0.99295367       0.36864046
H        0.13250545       0.16005771      -1.52976355
H       -0.61974690       2.43482579      -0.02313974
H        0.99795115      -1.77794561      -0.14279103
H        0.27987414      -1.01661608       1.30424007
H        1.85331372       0.89443680       1.15744336
14
Frame=12 idx=002713 GeodesicLength=0.6940927707082352 rxn_smarts="[C:1]([C@@:2]([O:3][H:11])([C:4]([C:5](=[O:6])[H:14])([H:12])[H:13])[H:10])([H:7])([H:8])[H:9]>>[C:1](=[C:2]([C:4]([C:5](=[O:6])[H:14])([H:12])[H:13])[H:10])([H:8])[H:9].[O:3]([H:7])[H:11]"
C       -1.64661567      -0.40284633      -0.48617358
C       -0.25916865      -0.10122179      -0.55181550
O       -0.57554776       1.61007763       0.46808994
C        0.72880836      -0.83014963       0.31726062
C        1.97840408       0.00072921       0.50180501
O        3.02123693      -0.24696471      -0.03959044
H       -1.78028738       0.96544949       0.10574088
H       -2.09844333      -0.73394427      -1.41644781
H       -1.99039182      -0.97769147       0.37213955
H        0.13430900       0.15840651      -1.53532724
H       -0.64341117       2.44474960      -0.00264250
H        0.99590728      -1.77923900      -0.15184071
H        0.28424840      -1.01696580       1.29887932
H        1.85095174       0.90961056       1.11992246
14
Frame=13 idx=002713 GeodesicLength=0.7502450069468787 rxn_smarts="[C:1]([C@@:2]([O:3][H:11])([C:4]([C:5](=[O:6])[H:14])([H:12])[H:13])[H:10])([H:7])([H:8])[H:9]>>[C:1](=[C:2]([C:4]([C:5](=[O:6])[H:14])([H:12])[H:13])[H:10])([H:8])[H:9].[O:3]([H:7])[H:11]"
C       -1.64320414      -0.39674775      -0.48967063
C       -0.25504103      -0.09258423      -0.55336946
O       -0.58465365       1.61667104       0.48052890
C        0.73165708      -0.83159500       0.31046577
C        1.98504127      -0.00754126       0.49909018
O        3.03899057      -0.28236302      -0.00668542
H       -1.80435738       0.97890315       0.10986912
H       -2.08254116      -0.75923767      -1.41456224
H       -1.98699063      -0.96234054       0.37530932
H        0.13608698       0.15625977      -1.54115913
H       -0.66702367       2.45414918       0.01775060
H        0.99437513      -1.78031204      -0.16124511
H        0.28857753      -1.01755996       1.29317357
H        1.84908309       0.92429834       1.08050452
14
Frame=14 idx=002713 GeodesicLength=0.8062329967903021 rxn_smarts="[C:1]([C@@:2]([O:3][H:11])([C:4]([C:5](=[O:6])[H:14])([H:12])[H:13])[H:10])([H:7])([H:8])[H:9]>>[C:1](=[C:2]([C:4]([C:5](=[O:6])[H:14])([H:12])[H:13])[H:10])([H:8])[H:9].[O:3]([H:7])[H:11]"
C       -1.63975786      -0.39033698      -0.49323909
C       -0.25077619      -0.08405540      -0.55522578
O       -0.59366079       1.62310373       0.49286048
C        0.73457681      -0.83305838       0.30343599
C        1.99154690      -0.01566859       0.49654197
O        3.05571405      -0.31720913       0.02860926
H       -1.82868787       0.99216202       0.11462400
H       -2.06672875      -0.78375115      -1.41164323
H       -1.98342165      -0.94695587       0.37815522
H        0.13785663       0.15372131      -1.54729666
H       -0.69065058       2.46309809       0.03813446
H        0.99333340      -1.78118974      -0.17104355
H        0.29282678      -1.01839578       1.28713180
H        1.84782911       0.93853588       1.03895512
14
Frame=15 idx=002713 GeodesicLength=0.8620676884370373 rxn_smarts="[C:1]([C@@:2]([O:3][H:11])([C:4]([C:5](=[O:6])[H:14])([H:12])[H:13])[H:10])([H:7])([H:8])[H:9]>>[C:1](=[C:2]([C:4]([C:5](=[O:6])[H:14])([H:12])[H:13])[H:10])([H:8])[H:9].[O:3]([H:7])[H:11]"
C       -1.63628450      -0.38363620      -0.49683415
C       -0.24636724      -0.07569924      -0.55740071
O       -0.60246458       1.62937644       0.50502774
C        0.73758046      -0.83459122       0.29615029
C        1.99788262      -0.02364139       0.49426060
O        3.07127919      -0.35116071       0.06635959
H       -1.85322983       1.00521505       0.12008242
H       -2.05113326      -0.80731900      -1.40770705
H       -1.97970133      -0.93152736       0.38075911
H        0.13961422       0.15069035      -1.55376382
H       -0.71417265       2.47158428       0.05842530
H        0.99290086      -1.78187474      -0.18130514
H        0.29696394      -1.01959938       1.28070389
H        1.84713211       0.95218314       0.99524194
14
Frame=16 idx=002713 GeodesicLength=0.917673682565453 rxn_smarts="[C:1]([C@@:2]([O:3][H:11])([C:4]([C:5](=[O:6])[H:14])([H:12])[H:13])[H:10])([H:7])([H:8])[H:9]>>[C:1](=[C:2]([C:4]([C:5](=[O:6])[H:14])([H:12])[H:13])[H:10])([H:8])[H:9].[O:3]([H:7])[H:11]"
C       -1.63279378      -0.37663365      -0.50044029
C       -0.24182342      -0.06753803      -0.55991736
O       -0.61096428       1.63546085       0.51697901
C        0.74067366      -0.83617990       0.28857636
C        2.00401918      -0.03140731       0.49225883
O        3.08556260      -0.38406762       0.10674918
H       -1.87793908       1.01800943       0.12634666
H       -2.03585423      -0.82987468      -1.40276103
H       -1.97580468      -0.91603347       0.38313451
H        0.14131774       0.14714061      -1.56055505
H       -0.73758208       2.47954196       0.07858843
H        0.99313811      -1.78230679      -0.19207510
H        0.30098630      -1.02118979       1.27381999
H        1.84706396       0.96507837       0.94929585
