9
Frame=0 idx=003178 GeodesicLength=0.0 rxn_smarts="[O:1]([c:2]1[c:3]([H:8])[o:4][c:5]([H:9])[n:6]1)[H:7]>>[C:5](#[N:6])[H:9].[O:1]([C:2](=[C+:3][H:8])[O-:4])[H:7]"
O        1.61785147      -0.43570768      -0.34946306
C        0.77998294       0.53704093      -0.30289857
C        0.17448957       1.64318509      -0.35578935
O       -0.67183959       0.79124763      -1.08843750
C       -1.15283340      -1.35125849       0.69371742
N       -0.45528770      -2.11475762       1.18651840
H        1.29543935      -1.17969051       0.19064864
H        0.11393501       2.69630376      -0.13925023
H       -1.70173762      -0.58636313       0.16495425
9
Frame=1 idx=003178 GeodesicLength=0.1249748809693765 rxn_smarts="[O:1]([c:2]1[c:3]([H:8])[o:4][c:5]([H:9])[n:6]1)[H:7]>>[C:5](#[N:6])[H:9].[O:1]([C:2](=[C+:3][H:8])[O-:4])[H:7]"
O        1.64801451      -0.41293302      -0.32787356
C        0.75830292       0.51500024      -0.27031463
C        0.19753466       1.64806251      -0.36910811
O       -0.70146452       0.77411098      -1.02937349
C       -1.17607117      -1.37637365       0.62977932
N       -0.41795022      -2.03006775       1.19487697
H        1.33478958      -1.19679851       0.15817417
H        0.15545795       2.70264734      -0.15707922
H       -1.79861370      -0.62364813       0.17091855
9
Frame=2 idx=003178 GeodesicLength=0.24901249579960955 rxn_smarts="[O:1]([c:2]1[c:3]([H:8])[o:4][c:5]([H:9])[n:6]1)[H:7]>>[C:5](#[N:6])[H:9].[O:1]([C:2](=[C+:3][H:8])[O-:4])[H:7]"
O        1.67183250      -0.39162117      -0.30749710
C        0.73837974       0.49544607      -0.24405112
C        0.22300568       1.65216571      -0.38803652
O       -0.73580880       0.76309454      -0.96102469
C       -1.19487349      -1.39472227       0.57948179
N       -0.38938692      -1.95038144       1.19059823
H        1.37232494      -1.20557483       0.13544883
H        0.20213728       2.70739174      -0.17598922
H       -1.88761092      -0.67579835       0.17106980
9
Frame=3 idx=003178 GeodesicLength=0.37200241454964506 rxn_smarts="[O:1]([c:2]1[c:3]([H:8])[o:4][c:5]([H:9])[n:6]1)[H:7]>>[C:5](#[N:6])[H:9].[O:1]([C:2](=[C+:3][H:8])[O-:4])[H:7]"
O        1.69217033      -0.37257948      -0.28898488
C        0.72138859       0.47774282      -0.22625612
C        0.25182969       1.65412004      -0.42119816
O       -0.77120965       0.75684185      -0.88802718
C       -1.21109914      -1.40728019       0.53584968
N       -0.36808013      -1.87511394       1.17740147
H        1.40906866      -1.20759321       0.12410559
H        0.24502264       2.70570371      -0.18534398
H       -1.96909098      -0.73184160       0.17245356
9
Frame=4 idx=003178 GeodesicLength=0.4936732190473712 rxn_smarts="[O:1]([c:2]1[c:3]([H:8])[o:4][c:5]([H:9])[n:6]1)[H:7]>>[C:5](#[N:6])[H:9].[O:1]([C:2](=[C+:3][H:8])[O-:4])[H:7]"
O        1.71119479      -0.35064683      -0.26563114
C        0.70561002       0.46273412      -0.20965399
C        0.27726727       1.65284989      -0.45550275
O       -0.80575505       0.75529832      -0.80759877
C       -1.22705956      -1.41750376       0.49280729
N       -0.35210416      -1.81410508       1.14755981
H        1.44541078      -1.20370121       0.12082698
H        0.29056361       2.70139721      -0.20684233
H       -2.04512771      -0.78632266       0.18403489
9
Frame=5 idx=003178 GeodesicLength=0.6143516455959516 rxn_smarts="[O:1]([c:2]1[c:3]([H:8])[o:4][c:5]([H:9])[n:6]1)[H:7]>>[C:5](#[N:6])[H:9].[O:1]([C:2](=[C+:3][H:8])[O-:4])[H:7]"
O        1.72595630      -0.33306520      -0.25106582
C        0.69108908       0.44817038      -0.20347422
C        0.29875198       1.64924813      -0.49228345
O       -0.84204109       0.76271807      -0.71590831
C       -1.24100573      -1.42166556       0.45487571
N       -0.33992502      -1.75305244       1.11846150
H        1.48152125      -1.19483866       0.12933770
H        0.33968768       2.69266203      -0.22485695
H       -2.11403444      -0.85017675       0.18491385
9
Frame=6 idx=003178 GeodesicLength=0.7342989654605998 rxn_smarts="[O:1]([c:2]1[c:3]([H:8])[o:4][c:5]([H:9])[n:6]1)[H:7]>>[C:5](#[N:6])[H:9].[O:1]([C:2](=[C+:3][H:8])[O-:4])[H:7]"
O        1.74549426      -0.30729178      -0.21849275
C        0.67822073       0.43437934      -0.19609643
C        0.31508226       1.64046352      -0.53157849
O       -0.87040021       0.76918718      -0.62650728
C       -1.25876468      -1.42225619       0.41164101
N       -0.33063646      -1.71348875       1.06470203
H        1.51799875      -1.18312274       0.13979892
H        0.38244261       2.68044325      -0.25496588
H       -2.17943726      -0.89831383       0.21149887
9
Frame=7 idx=003178 GeodesicLength=0.8532642864601422 rxn_smarts="[O:1]([c:2]1[c:3]([H:8])[o:4][c:5]([H:9])[n:6]1)[H:7]>>[C:5](#[N:6])[H:9].[O:1]([C:2](=[C+:3][H:8])[O-:4])[H:7]"
O        1.76034222      -0.28477418      -0.19322670
C        0.66514271       0.42048178      -0.19557141
C        0.32519891       1.62963716      -0.57196489
O       -0.89854139       0.78660597      -0.51429304
C       -1.27597729      -1.41800698       0.37095557
N       -0.32344141      -1.67649165       1.01029376
H        1.55355885      -1.16672062       0.16092275
H        0.43170819       2.66561850      -0.29192981
H       -2.23799078      -0.95634999       0.22481377
9
Frame=8 idx=003178 GeodesicLength=0.9717355986604496 rxn_smarts="[O:1]([c:2]1[c:3]([H:8])[o:4][c:5]([H:9])[n:6]1)[H:7]>>[C:5](#[N:6])[H:9].[O:1]([C:2](=[C+:3][H:8])[O-:4])[H:7]"
O        1.77965117      -0.25165618      -0.14225677
C        0.65390646       0.40717422      -0.19050514
C        0.32853173       1.61237969      -0.61599789
O       -0.91664474       0.80539417      -0.39342655
C       -1.29864666      -1.40784802       0.32380775
N       -0.31676410      -1.66133677       0.92814392
H        1.58908098      -1.14996498       0.17903148
H        0.47444228       2.64707537      -0.34759135
H       -2.29355712      -1.00121749       0.25879455
9
Frame=9 idx=003178 GeodesicLength=1.0902014272667366 rxn_smarts="[O:1]([c:2]1[c:3]([H:8])[o:4][c:5]([H:9])[n:6]1)[H:7]>>[C:5](#[N:6])[H:9].[O:1]([C:2](=[C+:3][H:8])[O-:4])[H:7]"
O        1.79804399      -0.21592058      -0.08193183
C        0.64539743       0.39394200      -0.18269205
C        0.32233394       1.58787953      -0.66157167
O       -0.92294165       0.82853674      -0.25399575
C       -1.32536815      -1.38764570       0.27254185
N       -0.31067973      -1.65909114       0.82141636
H        1.62603280      -1.12963335       0.20552313
H        0.51125773       2.62259360      -0.41950812
H       -2.34407636      -1.04066112       0.30021808
9
Frame=10 idx=003178 GeodesicLength=1.2102920263044155 rxn_smarts="[O:1]([c:2]1[c:3]([H:8])[o:4][c:5]([H:9])[n:6]1)[H:7]>>[C:5](#[N:6])[H:9].[O:1]([C:2](=[C+:3][H:8])[O-:4])[H:7]"
O        1.81464607      -0.18428418      -0.02391038
C        0.64206434       0.38182099      -0.16935127
C        0.30636477       1.55612342      -0.70401296
O       -0.91324061       0.85027721      -0.10984562
C       -1.35433918      -1.35313646       0.22347690
N       -0.30559199      -1.65878310       0.69456575
H        1.66186342      -1.10722334       0.24240127
H        0.53509906       2.59119423      -0.49734329
H       -2.38686588      -1.07598877       0.34401960
9
Frame=11 idx=003178 GeodesicLength=1.334136871059418 rxn_smarts="[O:1]([c:2]1[c:3]([H:8])[o:4][c:5]([H:9])[n:6]1)[H:7]>>[C:5](#[N:6])[H:9].[O:1]([C:2](=[C+:3][H:8])[O-:4])[H:7]"
O        1.83021649      -0.15591669       0.03761878
C        0.64378557       0.36978538      -0.15731246
C        0.28576946       1.52017651      -0.74275217
O       -0.89097883       0.86511511       0.01452981
C       -1.38516617      -1.30627087       0.17732893
N       -0.30267895      -1.65382266       0.54381090
H        1.69179124      -1.08543752       0.28959210
H        0.54508593       2.55454041      -0.56764514
H       -2.41782473      -1.10816966       0.40482925
9
Frame=12 idx=003178 GeodesicLength=1.4606621093653487 rxn_smarts="[O:1]([c:2]1[c:3]([H:8])[o:4][c:5]([H:9])[n:6]1)[H:7]>>[C:5](#[N:6])[H:9].[O:1]([C:2](=[C+:3][H:8])[O-:4])[H:7]"
O        1.84265447      -0.14170284       0.07231156
C        0.64845444       0.35994878      -0.14809493
C        0.26492591       1.48740423      -0.77416654
O       -0.86333060       0.87408795       0.11407130
C       -1.41125170      -1.25190648       0.14938519
N       -0.30226593      -1.62990464       0.40548101
H        1.70950237      -1.06554357       0.34667480
H        0.54917325       2.51909719      -0.61823076
H       -2.43786221      -1.15148062       0.45256837
9
Frame=13 idx=003178 GeodesicLength=1.5878189463717458 rxn_smarts="[O:1]([c:2]1[c:3]([H:8])[o:4][c:5]([H:9])[n:6]1)[H:7]>>[C:5](#[N:6])[H:9].[O:1]([C:2](=[C+:3][H:8])[O-:4])[H:7]"
O        1.85049364      -0.13350925       0.10554346
C        0.65343079       0.35220936      -0.14292809
C        0.24990227       1.46010268      -0.80297253
O       -0.83770006       0.87895318       0.18212286
C       -1.43441223      -1.19672552       0.13400470
N       -0.30551530      -1.59280633       0.27375606
H        1.71427387      -1.05108783       0.39914366
H        0.55347559       2.48793060      -0.65242810
H       -2.44394857      -1.20506691       0.50375797
9
Frame=14 idx=003178 GeodesicLength=1.7153345817144412 rxn_smarts="[O:1]([c:2]1[c:3]([H:8])[o:4][c:5]([H:9])[n:6]1)[H:7]>>[C:5](#[N:6])[H:9].[O:1]([C:2](=[C+:3][H:8])[O-:4])[H:7]"
O        1.85488451      -0.12956999       0.13514711
C        0.65782530       0.34700997      -0.13806206
C        0.23813326       1.43686099      -0.82929197
O       -0.81399835       0.88442177       0.23534442
C       -1.45259518      -1.14131048       0.13926931
N       -0.31179494      -1.54299985       0.16703895
H        1.71185833      -1.04435854       0.43508340
H        0.55959637       2.46013087      -0.67872854
H       -2.44390930      -1.27018472       0.53419938
9
Frame=15 idx=003178 GeodesicLength=1.8420037876115063 rxn_smarts="[O:1]([c:2]1[c:3]([H:8])[o:4][c:5]([H:9])[n:6]1)[H:7]>>[C:5](#[N:6])[H:9].[O:1]([C:2](=[C+:3][H:8])[O-:4])[H:7]"
O        1.85502417      -0.12838658       0.16344752
C        0.66050858       0.34313633      -0.13586910
C        0.23052253       1.41831250      -0.85484514
O       -0.79371888       0.89062115       0.27406440
C       -1.46718576      -1.08874339       0.16113448
N       -0.32178917      -1.48601683       0.07558596
H        1.70324191      -1.04274682       0.46123669
H        0.56894024       2.43603061      -0.69770629
H       -2.43554361      -1.34220698       0.55295148
9
Frame=16 idx=003178 GeodesicLength=1.967371238708475 rxn_smarts="[O:1]([c:2]1[c:3]([H:8])[o:4][c:5]([H:9])[n:6]1)[H:7]>>[C:5](#[N:6])[H:9].[O:1]([C:2](=[C+:3][H:8])[O-:4])[H:7]"
O        1.85158271      -0.12936747       0.18786791
C        0.66105982       0.33975327      -0.13687118
C        0.22537793       1.40387309      -0.87995526
O       -0.77614683       0.89771487       0.30359431
C       -1.47642753      -1.04080737       0.20463177
N       -0.33512271      -1.42484667       0.00132510
H        1.69098517      -1.04468683       0.47872341
H        0.58082651       2.41487656      -0.71141608
H       -2.42213508      -1.41650945       0.55210002
