14
Frame=0 idx=008277 GeodesicLength=0.0 rxn_smarts="[C:1]([C@@:2]1([H:11])[C:3]([H:12])([H:13])[N:4]([H:14])[C:5](=[O:6])[O:7]1)([H:8])([H:9])[H:10]>>[C:1]([C:2]1=[O+:7][C-:5]([O-:6])[N+:4]([H:11])([H:14])[C:3]1([H:12])[H:13])([H:8])([H:9])[H:10]"
C       -1.73922027      -1.00251670      -0.08163381
C       -0.43069517      -0.36330140      -0.41555410
C       -0.12551163       1.01531519       0.12462572
N        1.29759770       0.88421193      -0.30235249
C        1.71832591      -0.37153834       0.36377415
O        2.82858240      -0.57976489       0.74475292
O        0.65835269      -1.11391371       0.34116176
H       -1.94463347      -1.05418261       0.99640425
H       -1.78666111      -2.01479643      -0.48410744
H       -2.53972161      -0.42968503      -0.55513382
H        0.88503891       0.40130208      -1.26005019
H       -0.17575495       1.17279438       1.21084102
H       -0.61682841       1.81516912      -0.42538878
H        1.97112902       1.64090640      -0.25733918
14
Frame=1 idx=008277 GeodesicLength=0.07702730502178799 rxn_smarts="[C:1]([C@@:2]1([H:11])[C:3]([H:12])([H:13])[N:4]([H:14])[C:5](=[O:6])[O:7]1)([H:8])([H:9])[H:10]>>[C:1]([C:2]1=[O+:7][C-:5]([O-:6])[N+:4]([H:11])([H:14])[C:3]1([H:12])[H:13])([H:8])([H:9])[H:10]"
C       -1.73488827      -0.99997398      -0.08001595
C       -0.42704227      -0.36350437      -0.42357412
C       -0.12649246       1.01517283       0.12291084
N        1.29794008       0.88459631      -0.29590260
C        1.71809651      -0.37051743       0.37000418
O        2.82985015      -0.58323389       0.74392646
O        0.66149442      -1.11879418       0.32865652
H       -1.93260693      -1.04805961       0.99960351
H       -1.78674733      -2.01312057      -0.47973499
H       -2.53825478      -0.42740838      -0.54902954
H        0.87324136       0.39294508      -1.27159315
H       -0.19254183       1.17266175       1.20791650
H       -0.61113447       1.81678094      -0.43107793
H        1.96908582       1.64245550      -0.24208974
14
Frame=2 idx=008277 GeodesicLength=0.1540338600177773 rxn_smarts="[C:1]([C@@:2]1([H:11])[C:3]([H:12])([H:13])[N:4]([H:14])[C:5](=[O:6])[O:7]1)([H:8])([H:9])[H:10]>>[C:1]([C:2]1=[O+:7][C-:5]([O-:6])[N+:4]([H:11])([H:14])[C:3]1([H:12])[H:13])([H:8])([H:9])[H:10]"
C       -1.73050152      -0.99746904      -0.07831672
C       -0.42345787      -0.36363099      -0.43146894
C       -0.12744527       1.01511218       0.12108916
N        1.29835713       0.88508021      -0.28909161
C        1.71779005      -0.36968706       0.37610723
O        2.83099547      -0.58684750       0.74300579
O        0.66468134      -1.12353426       0.31607281
H       -1.92044669      -1.04209847       1.00282407
H       -1.78668875      -2.01143993      -0.47533237
H       -2.53675871      -0.42517111      -0.54273999
H        0.86114861       0.38448252      -1.28352498
H       -0.20948302       1.17277028       1.20462623
H       -0.60528050       1.81843272      -0.43693728
H        1.96708974       1.64400046      -0.22631339
14
Frame=3 idx=008277 GeodesicLength=0.23095575141875474 rxn_smarts="[C:1]([C@@:2]1([H:11])[C:3]([H:12])([H:13])[N:4]([H:14])[C:5](=[O:6])[O:7]1)([H:8])([H:9])[H:10]>>[C:1]([C:2]1=[O+:7][C-:5]([O-:6])[N+:4]([H:11])([H:14])[C:3]1([H:12])[H:13])([H:8])([H:9])[H:10]"
C       -1.72606295      -0.99500170      -0.07653871
C       -0.41994201      -0.36368226      -0.43923467
C       -0.12836479       1.01513046       0.11917309
N        1.29884458       0.88566329      -0.28191394
C        1.71742116      -0.36905812       0.38205719
O        2.83201783      -0.59058277       0.74202581
O        0.66791548      -1.12813579       0.30340747
H       -1.90817142      -1.03628105       1.00606135
H       -1.78648283      -2.00976164      -0.47088887
H       -2.53522798      -0.42298299      -0.53629229
H        0.84872948       0.37591559      -1.29586548
H       -0.22654983       1.17311683       1.20097580
H       -0.59926509       1.82012467      -0.44294116
H        1.96513837       1.64553549      -0.21002558
14
Frame=4 idx=008277 GeodesicLength=0.3076932301132074 rxn_smarts="[C:1]([C@@:2]1([H:11])[C:3]([H:12])([H:13])[N:4]([H:14])[C:5](=[O:6])[O:7]1)([H:8])([H:9])[H:10]>>[C:1]([C:2]1=[O+:7][C-:5]([O-:6])[N+:4]([H:11])([H:14])[C:3]1([H:12])[H:13])([H:8])([H:9])[H:10]"
C       -1.72157584      -0.99257213      -0.07468525
C       -0.41649440      -0.36365910      -0.44686777
C       -0.12924650       1.01522498       0.11717562
N        1.29939736       0.88634297      -0.27436936
C        1.71700239      -0.36863783       0.38783528
O        2.83291829      -0.59441845       0.74102198
O        0.67119878      -1.13260040       0.29065896
H       -1.89579890      -1.03059386       1.00931058
H       -1.78612839      -2.00809128      -0.46639868
H       -2.53365909      -0.42085227      -0.52971105
H        0.83595821       0.36724821      -1.30862956
H       -0.24371204       1.17369900       1.19697281
H       -0.59308901       1.82185695      -0.44906315
H        1.96322912       1.64705321      -0.19325040
14
Frame=5 idx=008277 GeodesicLength=0.384931541401658 rxn_smarts="[C:1]([C@@:2]1([H:11])[C:3]([H:12])([H:13])[N:4]([H:14])[C:5](=[O:6])[O:7]1)([H:8])([H:9])[H:10]>>[C:1]([C:2]1=[O+:7][C-:5]([O-:6])[N+:4]([H:11])([H:14])[C:3]1([H:12])[H:13])([H:8])([H:9])[H:10]"
C       -1.71702816      -0.99017584      -0.07274278
C       -0.41310786      -0.36355953      -0.45436344
C       -0.13007940       1.01540135       0.11507005
N        1.30003307       0.88715884      -0.26631698
C        1.71656704      -0.36842774       0.39338283
O        2.83371278      -0.59837435       0.73999043
O        0.67454281      -1.13692194       0.27779424
H       -1.88331347      -1.02501558       1.01258220
H       -1.78561615      -2.00642985      -0.46183806
H       -2.53203767      -0.41878205      -0.52298701
H        0.82267168       0.35840018      -1.32192988
H       -0.26101716       1.17452501       1.19257626
H       -0.58670745       1.82362301      -0.45536236
H        1.96137994       1.64857848      -0.17585551
14
Frame=6 idx=008277 GeodesicLength=0.46162935435518215 rxn_smarts="[C:1]([C@@:2]1([H:11])[C:3]([H:12])([H:13])[N:4]([H:14])[C:5](=[O:6])[O:7]1)([H:8])([H:9])[H:10]>>[C:1]([C:2]1=[O+:7][C-:5]([O-:6])[N+:4]([H:11])([H:14])[C:3]1([H:12])[H:13])([H:8])([H:9])[H:10]"
C       -1.71243312      -0.98781877      -0.07072558
C       -0.40978859      -0.36339002      -0.46173814
C       -0.13087718       1.01565193       0.11289012
N        1.30072171       0.88805963      -0.25790037
C        1.71608593      -0.36842919       0.39876991
O        2.83440229      -0.60241817       0.73894770
O        0.67793550      -1.14111091       0.26482988
H       -1.87073222      -1.01955093       1.01586584
H       -1.78495857      -2.00478444      -0.45722093
H       -2.53037778      -0.41677763      -0.51613869
H        0.80902323       0.34946975      -1.33565821
H       -0.27839711       1.17559878       1.18781939
H       -0.58016333       1.82542937      -0.46176863
H        1.95955925       1.65007060      -0.15797230
14
Frame=7 idx=008277 GeodesicLength=0.5385908983738092 rxn_smarts="[C:1]([C@@:2]1([H:11])[C:3]([H:12])([H:13])[N:4]([H:14])[C:5](=[O:6])[O:7]1)([H:8])([H:9])[H:10]>>[C:1]([C:2]1=[O+:7][C-:5]([O-:6])[N+:4]([H:11])([H:14])[C:3]1([H:12])[H:13])([H:8])([H:9])[H:10]"
C       -1.70777342      -0.98549382      -0.06861441
C       -0.40652815      -0.36314577      -0.46899084
C       -0.13162733       1.01598343       0.11059253
N        1.30148620       0.88909631      -0.24895291
C        1.71559283      -0.36864561       0.40394179
O        2.83500266      -0.60657918       0.73788315
O        0.68139354      -1.14516481       0.25171446
H       -1.85801801      -1.01418712       1.01917890
H       -1.78414736      -2.00315001      -0.45252465
H       -2.52866496      -0.41483145      -0.50913257
H        0.79481657       0.34035185      -1.34994492
H       -0.29591941       1.17693196       1.18263693
H       -0.57339740       1.82726483      -0.46836903
H        1.95778422       1.65156938      -0.13941842
14
Frame=8 idx=008277 GeodesicLength=0.615547256066085 rxn_smarts="[C:1]([C@@:2]1([H:11])[C:3]([H:12])([H:13])[N:4]([H:14])[C:5](=[O:6])[O:7]1)([H:8])([H:9])[H:10]>>[C:1]([C:2]1=[O+:7][C-:5]([O-:6])[N+:4]([H:11])([H:14])[C:3]1([H:12])[H:13])([H:8])([H:9])[H:10]"
C       -1.70305135      -0.98320408      -0.06641063
C       -0.40332673      -0.36282920      -0.47612935
C       -0.13233127       1.01639813       0.10818087
N        1.30231088       0.89025450      -0.23947847
C        1.71508769      -0.36907367       0.40892023
O        2.83552448      -0.61085387       0.73678968
O        0.68492077      -1.14908066       0.23844332
H       -1.84516895      -1.00892192       1.02252348
H       -1.78318669      -2.00153123      -0.44774928
H       -2.52690477      -0.41294940      -0.50196928
H        0.78006649       0.33106022      -1.36479253
H       -0.31357114       1.17854034       1.17702218
H       -0.56640304       1.82913436      -0.47515731
H        1.95603364       1.65305649      -0.12019292
14
Frame=9 idx=008277 GeodesicLength=0.692497594360406 rxn_smarts="[C:1]([C@@:2]1([H:11])[C:3]([H:12])([H:13])[N:4]([H:14])[C:5](=[O:6])[O:7]1)([H:8])([H:9])[H:10]>>[C:1]([C:2]1=[O+:7][C-:5]([O-:6])[N+:4]([H:11])([H:14])[C:3]1([H:12])[H:13])([H:8])([H:9])[H:10]"
C       -1.69825960      -0.98094850      -0.06410763
C       -0.40018181      -0.36243952      -0.48316199
C       -0.13298879       1.01689875       0.10564066
N        1.30319584       0.89153866      -0.22943566
C        1.71457285      -0.36971475       0.41370987
O        2.83597803      -0.61524972       0.73565664
O        0.68852215      -1.15285881       0.22498844
H       -1.83216315      -1.00375103       1.02590581
H       -1.78207452      -1.99992827      -0.44288647
H       -2.52509316      -0.41112988      -0.49463080
H        0.76471918       0.32157532      -1.38022867
H       -0.33137001       1.18043914       1.17094449
H       -0.55915933       1.83103537      -0.48216311
H        1.95430233       1.65453325      -0.10023158
14
Frame=10 idx=008277 GeodesicLength=0.769448011364498 rxn_smarts="[C:1]([C@@:2]1([H:11])[C:3]([H:12])([H:13])[N:4]([H:14])[C:5](=[O:6])[O:7]1)([H:8])([H:9])[H:10]>>[C:1]([C:2]1=[O+:7][C-:5]([O-:6])[N+:4]([H:11])([H:14])[C:3]1([H:12])[H:13])([H:8])([H:9])[H:10]"
C       -1.69339095      -0.97872676      -0.06169823
C       -0.39709195      -0.36197553      -0.49009827
C       -0.13360205       1.01749006       0.10295586
N        1.30414477       0.89295109      -0.21877773
C        1.71405425      -0.37056924       0.41831573
O        2.83637929      -0.61977487       0.73447145
O        0.69220333      -1.15649601       0.21131801
H       -1.81897633      -0.99867007       1.02933315
H       -1.78080836      -1.99834173      -0.43792821
H       -2.52322788      -0.40937323      -0.48709662
H        0.74871323       0.31187505      -1.39628382
H       -0.34934264       1.18264650       1.16437368
H       -0.55164588       1.83296915      -0.48942258
H        1.95259115       1.65599560      -0.07946242
14
Frame=11 idx=008277 GeodesicLength=0.8466048810935356 rxn_smarts="[C:1]([C@@:2]1([H:11])[C:3]([H:12])([H:13])[N:4]([H:14])[C:5](=[O:6])[O:7]1)([H:8])([H:9])[H:10]>>[C:1]([C:2]1=[O+:7][C-:5]([O-:6])[N+:4]([H:11])([H:14])[C:3]1([H:12])[H:13])([H:8])([H:9])[H:10]"
C       -1.68843036      -0.97653403      -0.05916653
C       -0.39404756      -0.36143269      -0.49695063
C       -0.13414832       1.01817994       0.10009396
N        1.30511096       0.89450544      -0.20739013
C        1.71353373      -0.37163782       0.42273727
O        2.83671930      -0.62445006       0.73319915
O        0.69599539      -1.15998786       0.19739182
H       -1.80556627      -0.99367049       1.03282738
H       -1.77938226      -1.99676856      -0.43285253
H       -2.52130368      -0.40767225      -0.47933249
H        0.73197451       0.30191000      -1.41306372
H       -0.36749444       1.18518666       1.15722453
H       -0.54377198       1.83492563      -0.49697976
H        1.95081098       1.65744608      -0.05773831
14
Frame=12 idx=008277 GeodesicLength=0.9236325847917691 rxn_smarts="[C:1]([C@@:2]1([H:11])[C:3]([H:12])([H:13])[N:4]([H:14])[C:5](=[O:6])[O:7]1)([H:8])([H:9])[H:10]>>[C:1]([C:2]1=[O+:7][C-:5]([O-:6])[N+:4]([H:11])([H:14])[C:3]1([H:12])[H:13])([H:8])([H:9])[H:10]"
C       -1.68337137      -0.97437336      -0.05650950
C       -0.39105563      -0.36081148      -0.50373753
C       -0.13465310       1.01896980       0.09704587
N        1.30613382       0.89619109      -0.19530286
C        1.71300253      -0.37292820       0.42700311
O        2.83702138      -0.62927636       0.73183708
O        0.69988198      -1.16333911       0.18316844
H       -1.79190135      -0.98875784       1.03638636
H       -1.77779513      -1.99521102      -0.42766157
H       -2.51931910      -0.40602630      -0.47130722
H        0.71447412       0.29168856      -1.43050994
H       -0.38587309       1.18807947       1.14949292
H       -0.53556875       1.83691414      -0.50487188
H        1.94902369       1.65888062      -0.03503327
14
Frame=13 idx=008277 GeodesicLength=1.0005875921437384 rxn_smarts="[C:1]([C@@:2]1([H:11])[C:3]([H:12])([H:13])[N:4]([H:14])[C:5](=[O:6])[O:7]1)([H:8])([H:9])[H:10]>>[C:1]([C:2]1=[O+:7][C-:5]([O-:6])[N+:4]([H:11])([H:14])[C:3]1([H:12])[H:13])([H:8])([H:9])[H:10]"
C       -1.67819604      -0.97224555      -0.05370986
C       -0.38811118      -0.36010665      -0.51048237
C       -0.13510825       1.01987225       0.09377346
N        1.30718916       0.89800037      -0.18242829
C        1.71245505      -0.37444194       0.43112092
O        2.83728504      -0.63427613       0.73034543
O        0.70388537      -1.16653783       0.16858731
H       -1.77792071      -0.98392536       1.04002956
H       -1.77604053      -1.99367225      -0.42232667
H       -2.51727146      -0.40443879      -0.46296848
H        0.69614465       0.28118997      -1.44869428
H       -0.40451294       1.19137140       1.14109695
H       -0.52696338       1.83893667      -0.51316305
H        1.94716525       1.66027382      -0.01118064
14
Frame=14 idx=008277 GeodesicLength=1.077501219460207 rxn_smarts="[C:1]([C@@:2]1([H:11])[C:3]([H:12])([H:13])[N:4]([H:14])[C:5](=[O:6])[O:7]1)([H:8])([H:9])[H:10]>>[C:1]([C:2]1=[O+:7][C-:5]([O-:6])[N+:4]([H:11])([H:14])[C:3]1([H:12])[H:13])([H:8])([H:9])[H:10]"
C       -1.67288250      -0.97014571      -0.05074774
C       -0.38521228      -0.35931160      -0.51721569
C       -0.13550923       1.02089419       0.09023416
N        1.30826515       0.89993885      -0.16869244
C        1.71188162      -0.37619174       0.43509670
O        2.83750254      -0.63946213       0.72871586
O        0.70802387      -1.16958833       0.15356736
H       -1.76354640      -0.97917463       1.04377933
H       -1.77411184      -1.99214686      -0.41682716
H       -2.51515424      -0.40289397      -0.45424423
H        0.67689702       0.27038135      -1.46767419
H       -0.42345542       1.19509108       1.13195040
H       -0.51789098       1.84098597      -0.52192746
H        1.94519267       1.66162353       0.01398511
14
Frame=15 idx=008277 GeodesicLength=1.1544446565612427 rxn_smarts="[C:1]([C@@:2]1([H:11])[C:3]([H:12])([H:13])[N:4]([H:14])[C:5](=[O:6])[O:7]1)([H:8])([H:9])[H:10]>>[C:1]([C:2]1=[O+:7][C-:5]([O-:6])[N+:4]([H:11])([H:14])[C:3]1([H:12])[H:13])([H:8])([H:9])[H:10]"
C       -1.66741187      -0.96807184      -0.04760890
C       -0.38235610      -0.35841934      -0.52394879
C       -0.13584555       1.02204795       0.08639951
N        1.30933742       0.90200201      -0.15399691
C        1.71128883      -0.37818365       0.43891894
O        2.83767700      -0.64483440       0.72694749
O        0.71231824      -1.17246958       0.13805506
H       -1.74872398      -0.97450514       1.04764594
H       -1.77199473      -1.99062979      -0.41115555
H       -2.51295369      -0.40138827      -0.44509379
H        0.65660619       0.25920910      -1.48752231
H       -0.44272230       1.19927209       1.12198078
H       -0.50828281       1.84306905      -0.53121047
H        1.94306337       1.66290181       0.04058899
14
Frame=16 idx=008277 GeodesicLength=1.2313933847847789 rxn_smarts="[C:1]([C@@:2]1([H:11])[C:3]([H:12])([H:13])[N:4]([H:14])[C:5](=[O:6])[O:7]1)([H:8])([H:9])[H:10]>>[C:1]([C:2]1=[O+:7][C-:5]([O-:6])[N+:4]([H:11])([H:14])[C:3]1([H:12])[H:13])([H:8])([H:9])[H:10]"
C       -1.66175917      -0.96602268      -0.04427233
C       -0.37954093      -0.35742290      -0.53071252
C       -0.13611184       1.02334559       0.08222460
N        1.31039347       0.90418140      -0.13825561
C        1.71066661      -0.38043121       0.44259355
O        2.83781493      -0.65040991       0.72499669
O        0.71678859      -1.17517158       0.12196501
H       -1.73337712      -0.96990115       1.05164685
H       -1.76967413      -1.98912588      -0.40527281
H       -2.51065904      -0.39992434      -0.43545715
H        0.63516074       0.24764497      -1.50828954
H       -0.46236302       1.20397125       1.11108800
H       -0.49806167       1.84518294      -0.54109384
H        1.94072259       1.66408351       0.06883910
