19
Frame=0 idx=007418 GeodesicLength=0.0 rxn_smarts="[C:1]([C@:2]1([H:11])[C:3]([H:12])([H:13])[C@@:4]([C:5]([H:15])([H:16])[H:17])([H:14])[C:6]([H:18])=[C:7]1[H:19])([H:8])([H:9])[H:10]>>[C:1]([C:2]1=[C:3]([H:12])[C@:4]([C:5]([H:15])([H:16])[H:17])([H:14])[C:6]([H:18])=[C:7]1[H:19])([H:9])([H:10])[H:11].[H:8][H:13]"
C       -2.43322784      -0.16785944       0.02421653
C       -1.11307720       0.46227693      -0.07239522
C       -0.08571465       0.21682477       0.86314402
C        1.25670969       0.48766627       0.23811384
C        2.25805503      -0.65560630       0.41693684
C        0.88487983       0.72919529      -1.20155304
C       -0.43181572       0.70328128      -1.37717734
H       -1.44249753      -1.72298322       0.35305665
H       -2.87768300      -0.24145843       1.01057710
H       -3.13046750      -0.03764756      -0.79842621
H       -1.85046931       1.32504859       0.22583670
H       -0.24042113       0.17419314       1.93321881
H       -0.67957678      -1.55775276       0.63135629
H        1.70652407       1.40111186       0.65438803
H        1.85708446      -1.57456410      -0.01449250
H        2.45295095      -0.83568198       1.47548418
H        3.20856800      -0.42569452      -0.06958844
H        1.62112557       0.88406374      -1.98035181
H       -0.96094687       0.83558643      -2.31234450
19
Frame=1 idx=007418 GeodesicLength=0.08196859202226627 rxn_smarts="[C:1]([C@:2]1([H:11])[C:3]([H:12])([H:13])[C@@:4]([C:5]([H:15])([H:16])[H:17])([H:14])[C:6]([H:18])=[C:7]1[H:19])([H:8])([H:9])[H:10]>>[C:1]([C:2]1=[C:3]([H:12])[C@:4]([C:5]([H:15])([H:16])[H:17])([H:14])[C:6]([H:18])=[C:7]1[H:19])([H:9])([H:10])[H:11].[H:8][H:13]"
C       -2.43540545      -0.15787762       0.03126184
C       -1.11245736       0.47165257      -0.06799177
C       -0.08411198       0.20196698       0.86234340
C        1.25769609       0.48314687       0.23822884
C        2.26508993      -0.65390354       0.42018736
C        0.88525054       0.72256857      -1.20154290
C       -0.43218286       0.70605707      -1.37406926
H       -1.45759810      -1.72406145       0.33149764
H       -2.87812680      -0.22951117       1.01893294
H       -3.13067389      -0.04359760      -0.79522552
H       -1.87282721       1.33302780       0.22777768
H       -0.23560919       0.17627216       1.93376404
H       -0.67609533      -1.56039262       0.60952125
H        1.70171010       1.39956508       0.65407202
H        1.86995487      -1.57670642      -0.00848252
H        2.46186348      -0.82925118       1.47926332
H        3.21432384      -0.42036934      -0.06708298
H        1.62066498       0.87527415      -1.98157149
H       -0.96146568       0.82613970      -2.31088388
19
Frame=2 idx=007418 GeodesicLength=0.1638221000612669 rxn_smarts="[C:1]([C@:2]1([H:11])[C:3]([H:12])([H:13])[C@@:4]([C:5]([H:15])([H:16])[H:17])([H:14])[C:6]([H:18])=[C:7]1[H:19])([H:8])([H:9])[H:10]>>[C:1]([C:2]1=[C:3]([H:12])[C@:4]([C:5]([H:15])([H:16])[H:17])([H:14])[C:6]([H:18])=[C:7]1[H:19])([H:9])([H:10])[H:11].[H:8][H:13]"
C       -2.43736892      -0.14801811       0.03836113
C       -1.11168190       0.48117575      -0.06333072
C       -0.08256270       0.18714744       0.86149376
C        1.25867135       0.47860386       0.23840142
C        2.27203827      -0.65222416       0.42346403
C        0.88559490       0.71598726      -1.20146479
C       -0.43251807       0.70865397      -1.37087027
H       -1.47289737      -1.72484915       0.30928790
H       -2.87830585      -0.21774274       1.02735809
H       -3.13071180      -0.04965403      -0.79162056
H       -1.89554574       1.34102553       0.22911539
H       -0.23061679       0.17847964       1.93406537
H       -0.67242104      -1.56281283       0.58772682
H        1.69692286       1.39792604       0.65382533
H        1.88270451      -1.57879889      -0.00244454
H        2.47061314      -0.82285059       1.48305796
H        3.21997927      -0.41510366      -0.06456334
H        1.62015994       0.86638849      -1.98275702
H       -0.96205403       0.81666618      -2.30910596
19
Frame=3 idx=007418 GeodesicLength=0.24559264554365645 rxn_smarts="[C:1]([C@:2]1([H:11])[C:3]([H:12])([H:13])[C@@:4]([C:5]([H:15])([H:16])[H:17])([H:14])[C:6]([H:18])=[C:7]1[H:19])([H:8])([H:9])[H:10]>>[C:1]([C:2]1=[C:3]([H:12])[C@:4]([C:5]([H:15])([H:16])[H:17])([H:14])[C:6]([H:18])=[C:7]1[H:19])([H:9])([H:10])[H:11].[H:8][H:13]"
C       -2.43911820      -0.13830135       0.04550397
C       -1.11074476       0.49080967      -0.05842459
C       -0.08106669       0.17238669       0.86059859
C        1.25963766       0.47404130       0.23862785
C        2.27890232      -0.65056449       0.42676836
C        0.88591462       0.70944975      -1.20132339
C       -0.43282171       0.71106038      -1.36758389
H       -1.48843201      -1.72533251       0.28645761
H       -2.87822714      -0.20613965       1.03584187
H       -3.13058962      -0.05580068      -0.78761013
H       -1.91862355       1.34898876       0.22981694
H       -0.22544442       0.18077469       1.93411416
H       -0.66851861      -1.56501639       0.56602860
H        1.69216981       1.39620141       0.65363615
H        1.89533186      -1.58084035       0.00363024
H        2.47920441      -0.81647067       1.48686988
H        3.22553573      -0.40989957      -0.06203181
H        1.61960934       0.85739201      -1.98391662
H       -0.96271903       0.80726100      -2.30700380
19
Frame=4 idx=007418 GeodesicLength=0.32731550219453154 rxn_smarts="[C:1]([C@:2]1([H:11])[C:3]([H:12])([H:13])[C@@:4]([C:5]([H:15])([H:16])[H:17])([H:14])[C:6]([H:18])=[C:7]1[H:19])([H:8])([H:9])[H:10]>>[C:1]([C:2]1=[C:3]([H:12])[C@:4]([C:5]([H:15])([H:16])[H:17])([H:14])[C:6]([H:18])=[C:7]1[H:19])([H:9])([H:10])[H:11].[H:8][H:13]"
C       -2.44065625      -0.12874621       0.05268009
C       -1.10964055       0.50051488      -0.05328878
C       -0.07962232       0.15770285       0.85966046
C        1.26059798       0.46946380       0.23890431
C        2.28568650      -0.64891904       0.43010086
C        0.88621255       0.70295583      -1.20112346
C       -0.43309323       0.71326834      -1.36421368
H       -1.50424705      -1.72550482       0.26304937
H       -2.87790023      -0.19468510       1.04437351
H       -3.13032096      -0.06200993      -0.78319804
H       -1.94205424       1.35686555       0.22985664
H       -0.22009526       0.18310916       1.93390670
H       -0.66435161      -1.56700971       0.54447935
H        1.68745737       1.39439874       0.65349424
H        1.90783919      -1.58282817       0.00974743
H        2.48764284      -0.81010110       1.49069991
H        3.23099743      -0.40475524      -0.05949158
H        1.61901329       0.84827530      -1.98505756
H       -0.96346544       0.79800486      -2.30457979
19
Frame=5 idx=007418 GeodesicLength=0.4090280680746192 rxn_smarts="[C:1]([C@:2]1([H:11])[C:3]([H:12])([H:13])[C@@:4]([C:5]([H:15])([H:16])[H:17])([H:14])[C:6]([H:18])=[C:7]1[H:19])([H:8])([H:9])[H:10]>>[C:1]([C:2]1=[C:3]([H:12])[C@:4]([C:5]([H:15])([H:16])[H:17])([H:14])[C:6]([H:18])=[C:7]1[H:19])([H:9])([H:10])[H:11].[H:8][H:13]"
C       -2.44198772      -0.11936671       0.05988004
C       -1.10836577       0.51025115      -0.04793963
C       -0.07822757       0.14311304       0.85868295
C        1.26155545       0.46487675       0.23922742
C        2.29239628      -0.64728081       0.43346111
C        0.88649176       0.69650723      -1.20086898
C       -0.43333217       0.71527349      -1.36076384
H       -1.52039215      -1.72535500       0.23909974
H       -2.87733488      -0.18335819       1.05294362
H       -3.12992516      -0.06824615      -0.77838787
H       -1.96582770       1.36460424       0.22921807
H       -0.21457370       0.18542687       1.93344009
H       -0.65988091      -1.56880284       0.52313131
H        1.68279058       1.39252629       0.65339143
H        1.92023115      -1.58475789       0.01591145
H        2.49593589      -0.80373225       1.49454729
H        3.23636872      -0.39966573      -0.05694485
H        1.61837257       0.83903480      -1.98618485
H       -0.96429467       0.78895172      -2.30184451
19
Frame=6 idx=007418 GeodesicLength=0.49077367843916975 rxn_smarts="[C:1]([C@:2]1([H:11])[C:3]([H:12])([H:13])[C@@:4]([C:5]([H:15])([H:16])[H:17])([H:14])[C:6]([H:18])=[C:7]1[H:19])([H:8])([H:9])[H:10]>>[C:1]([C:2]1=[C:3]([H:12])[C@:4]([C:5]([H:15])([H:16])[H:17])([H:14])[C:6]([H:18])=[C:7]1[H:19])([H:9])([H:10])[H:11].[H:8][H:13]"
C       -2.44311960      -0.11017163       0.06709709
C       -1.10691735       0.51997923      -0.04239664
C       -0.07687880       0.12862683       0.85766644
C        1.26251386       0.46028561       0.23959399
C        2.29904042      -0.64564040       0.43684817
C        0.88675762       0.69010772      -1.20056398
C       -0.43353793       0.71707428      -1.35724013
H       -1.53693346      -1.72486801       0.21464528
H       -2.87654100      -0.17213791       1.06154557
H       -3.12942698      -0.07446145      -0.77318281
H       -1.98992839       1.37215240       0.22789354
H       -0.20888870       0.18767021       1.93271941
H       -0.65506799      -1.57041029       0.50202742
H        1.67817148       1.39059244       0.65332332
H        1.93251919      -1.58662304       0.02212106
H        2.50409308      -0.79735407       1.49841083
H        3.24165817      -0.39461948      -0.05439350
H        1.61769072       0.82967399      -1.98730142
H       -0.96520436       0.78012356      -2.29881364
19
Frame=7 idx=007418 GeodesicLength=0.5725403565600296 rxn_smarts="[C:1]([C@:2]1([H:11])[C:3]([H:12])([H:13])[C@@:4]([C:5]([H:15])([H:16])[H:17])([H:14])[C:6]([H:18])=[C:7]1[H:19])([H:8])([H:9])[H:10]>>[C:1]([C:2]1=[C:3]([H:12])[C@:4]([C:5]([H:15])([H:16])[H:17])([H:14])[C:6]([H:18])=[C:7]1[H:19])([H:9])([H:10])[H:11].[H:8][H:13]"
C       -2.44406268      -0.10116608       0.07432150
C       -1.10529378       0.52966034      -0.03668015
C       -0.07557222       0.11425465       0.85661198
C        1.26347681       0.45569606       0.24000037
C        2.30562660      -0.64398896       0.44025958
C        0.88701407       0.68376089      -1.20021251
C       -0.43370766       0.71867181      -1.35364786
H       -1.55392083      -1.72404132       0.18973198
H       -2.87553098      -0.16099858       1.07017029
H       -3.12885431      -0.08060840      -0.76759231
H       -2.01433933       1.37946052       0.22588498
H       -0.20304871       0.18977803       1.93175028
H       -0.64987863      -1.57184642       0.48121229
H        1.67360230       1.38860554       0.65328449
H        1.94471314      -1.58841666       0.02837624
H        2.51212251      -0.79095640       1.50228857
H        3.24687297      -0.38960653      -0.05184027
H        1.61697042       0.82019733      -1.98841052
H       -0.96618969       0.77154419      -2.29550894
19
Frame=8 idx=007418 GeodesicLength=0.6543809243941919 rxn_smarts="[C:1]([C@:2]1([H:11])[C:3]([H:12])([H:13])[C@@:4]([C:5]([H:15])([H:16])[H:17])([H:14])[C:6]([H:18])=[C:7]1[H:19])([H:8])([H:9])[H:10]>>[C:1]([C:2]1=[C:3]([H:12])[C@:4]([C:5]([H:15])([H:16])[H:17])([H:14])[C:6]([H:18])=[C:7]1[H:19])([H:9])([H:10])[H:11].[H:8][H:13]"
C       -2.44482932      -0.09235032       0.08154805
C       -1.10349338       0.53925280      -0.03081263
C       -0.07430213       0.09999841       0.85551888
C        1.26444854       0.45111350       0.24044332
C        2.31216789      -0.64231322       0.44369397
C        0.88726721       0.67746970      -1.19981883
C       -0.43383910       0.72006432      -1.34999445
H       -1.57144039      -1.72286858       0.16439164
H       -2.87431541      -0.14991626       1.07881369
H       -3.12824183      -0.08662536      -0.76162456
H       -2.03903569       1.38648595       0.22320546
H       -0.19706508       0.19168855       1.93053985
H       -0.64427198      -1.57313276       0.46072182
H        1.66908103       1.38657504       0.65327214
H        1.95683368      -1.59012935       0.03467445
H        2.52003682      -0.78452567       1.50617976
H        3.25202590      -0.38460682      -0.04928486
H        1.61621674       0.81061402      -1.98951426
H       -0.96724352       0.76320603      -2.29195345
19
Frame=9 idx=007418 GeodesicLength=0.7363225244942114 rxn_smarts="[C:1]([C@:2]1([H:11])[C:3]([H:12])([H:13])[C@@:4]([C:5]([H:15])([H:16])[H:17])([H:14])[C:6]([H:18])=[C:7]1[H:19])([H:8])([H:9])[H:10]>>[C:1]([C:2]1=[C:3]([H:12])[C@:4]([C:5]([H:15])([H:16])[H:17])([H:14])[C:6]([H:18])=[C:7]1[H:19])([H:9])([H:10])[H:11].[H:8][H:13]"
C       -2.44542895      -0.08372461       0.08877334
C       -1.10151218       0.54872104      -0.02481881
C       -0.07306172       0.08585189       0.85437774
C        1.26543402       0.44654134       0.24091870
C        2.31867825      -0.64060069       0.44714941
C        0.88752638       0.67123863      -1.19938831
C       -0.43393108       0.72125110      -1.34629060
H       -1.58958714      -1.72131973       0.13865469
H       -2.87289819      -0.13888177       1.08747362
H       -3.12762659      -0.09244334      -0.75528406
H       -2.06399529       1.39317584       0.21986717
H       -0.19095531       0.19335994       1.92911271
H       -0.63820744      -1.57429934       0.44058709
H        1.66460292       1.38450732       0.65328729
H        1.96890538      -1.59175201       0.04100818
H        2.52784745      -0.77805319       1.51008223
H        3.25713028      -0.37959756      -0.04672458
H        1.61543855       0.80093648      -1.99061328
H       -0.96835932       0.75508868      -2.28817252
19
Frame=10 idx=007418 GeodesicLength=0.8183636522346583 rxn_smarts="[C:1]([C@:2]1([H:11])[C:3]([H:12])([H:13])[C@@:4]([C:5]([H:15])([H:16])[H:17])([H:14])[C:6]([H:18])=[C:7]1[H:19])([H:8])([H:9])[H:10]>>[C:1]([C:2]1=[C:3]([H:12])[C@:4]([C:5]([H:15])([H:16])[H:17])([H:14])[C:6]([H:18])=[C:7]1[H:19])([H:9])([H:10])[H:11].[H:8][H:13]"
C       -2.44587750      -0.07528088       0.09599041
C       -1.09935138       0.55801853      -0.01872085
C       -0.07184451       0.07181238       0.85318941
C        1.26643658       0.44198482       0.24142415
C        2.32517191      -0.63883543       0.45062528
C        0.88779738       0.66507034      -1.19892429
C       -0.43397873       0.72222864      -1.34254592
H       -1.60844607      -1.71939633       0.11255460
H       -2.87129218      -0.12785509       1.09614523
H       -3.12705013      -0.09800141      -0.74857921
H       -2.08919185       1.39950151       0.21590491
H       -0.18472807       0.19472229       1.92746508
H       -0.63164565      -1.57537345       0.42082806
H        1.66016193       1.38241195       0.65332878
H        1.98095330      -1.59327174       0.04737518
H        2.53556761      -0.77152320       1.51399572
H        3.26219924      -0.37455360      -0.04415708
H        1.61464265       0.79117721      -1.99170670
H       -0.96952453       0.74716348      -2.28419276
19
Frame=11 idx=007418 GeodesicLength=0.9005022184231802 rxn_smarts="[C:1]([C@:2]1([H:11])[C:3]([H:12])([H:13])[C@@:4]([C:5]([H:15])([H:16])[H:17])([H:14])[C:6]([H:18])=[C:7]1[H:19])([H:8])([H:9])[H:10]>>[C:1]([C:2]1=[C:3]([H:12])[C@:4]([C:5]([H:15])([H:16])[H:17])([H:14])[C:6]([H:18])=[C:7]1[H:19])([H:9])([H:10])[H:11].[H:8][H:13]"
C       -2.44619086      -0.06700642       0.10319400
C       -1.09700957       0.56710299      -0.01254289
C       -0.07064278       0.05786510       0.85194732
C        1.26746045       0.43744666       0.24195637
C        2.33166685      -0.63700053       0.45412093
C        0.88808800       0.65896566      -1.19843145
C       -0.43397778       0.72299017      -1.33877131
H       -1.62811912      -1.71709096       0.08612028
H       -2.86950474      -0.11681140       1.10482566
H       -3.12655737      -0.10322852      -0.74151828
H       -2.11459810       1.40543283       0.21135554
H       -0.17839804       0.19572351       1.92560993
H       -0.62454650      -1.57638876       0.40145841
H        1.65574816       1.38029645       0.65339762
H        1.99301073      -1.59467569       0.05377045
H        2.54321173      -0.76491972       1.51792078
H        3.26724970      -0.36944400      -0.04157687
H        1.61383763       0.78134769      -1.99279531
H       -0.97072837       0.73939494      -2.28004120
19
Frame=12 idx=007418 GeodesicLength=0.9827003509184357 rxn_smarts="[C:1]([C@:2]1([H:11])[C:3]([H:12])([H:13])[C@@:4]([C:5]([H:15])([H:16])[H:17])([H:14])[C:6]([H:18])=[C:7]1[H:19])([H:8])([H:9])[H:10]>>[C:1]([C:2]1=[C:3]([H:12])[C@:4]([C:5]([H:15])([H:16])[H:17])([H:14])[C:6]([H:18])=[C:7]1[H:19])([H:9])([H:10])[H:11].[H:8][H:13]"
C       -2.44638352      -0.05888820       0.11038057
C       -1.09448590       0.57593593      -0.00630853
C       -0.06944849       0.04399503       0.85064493
C        1.26850961       0.43292925       0.24251237
C        2.33817951      -0.63507943       0.45763662
C        0.88840689       0.65292592      -1.19791442
C       -0.43392410       0.72353028      -1.33497920
H       -1.64870524      -1.71438820       0.05937984
H       -2.86754140      -0.10572867       1.11351344
H       -3.12619250      -0.10805838      -0.73410991
H       -2.14019089       1.41094454       0.20626138
H       -0.17197888       0.19631448       1.92355585
H       -0.61687191      -1.57738056       0.38248367
H        1.65135159       1.37816723       0.65349579
H        2.00511023      -1.59595079       0.06018821
H        2.55079225      -0.75822859       1.52185878
H        3.27229797      -0.36423755      -0.03897773
H        1.61303384       0.77145881      -1.99387780
H       -0.97195906       0.73173888      -2.27574386
19
Frame=13 idx=007418 GeodesicLength=1.0649146311692634 rxn_smarts="[C:1]([C@:2]1([H:11])[C:3]([H:12])([H:13])[C@@:4]([C:5]([H:15])([H:16])[H:17])([H:14])[C:6]([H:18])=[C:7]1[H:19])([H:8])([H:9])[H:10]>>[C:1]([C:2]1=[C:3]([H:12])[C@:4]([C:5]([H:15])([H:16])[H:17])([H:14])[C:6]([H:18])=[C:7]1[H:19])([H:9])([H:10])[H:11].[H:8][H:13]"
C       -2.44647187      -0.05091108       0.11754560
C       -1.09177841       0.58447997      -0.00004128
C       -0.06825301       0.03018101       0.84927317
C        1.26958794       0.42843363       0.24308916
C        2.34472841      -0.63305467       0.46117281
C        0.88876289       0.64695067      -1.19737795
C       -0.43381276       0.72384012      -1.33118201
H       -1.67031009      -1.71127747       0.03235700
H       -2.86540645      -0.09458592       1.12220718
H       -3.12600131      -0.11242102      -0.72636507
H       -2.16594730       1.41601589       0.20067144
H       -0.16548488       0.19645387       1.92131611
H       -0.60858302      -1.57838641       0.36390678
H        1.64695986       1.37602966       0.65362570
H        2.01728890      -1.59708322       0.06662251
H        2.55832211      -0.75143444       1.52581087
H        3.27736157      -0.35890043      -0.03635132
H        1.61224199       0.76152146      -1.99495497
H       -0.97320456       0.72414836      -2.27132574
19
Frame=14 idx=007418 GeodesicLength=1.1471238381518616 rxn_smarts="[C:1]([C@:2]1([H:11])[C:3]([H:12])([H:13])[C@@:4]([C:5]([H:15])([H:16])[H:17])([H:14])[C:6]([H:18])=[C:7]1[H:19])([H:8])([H:9])[H:10]>>[C:1]([C:2]1=[C:3]([H:12])[C@:4]([C:5]([H:15])([H:16])[H:17])([H:14])[C:6]([H:18])=[C:7]1[H:19])([H:9])([H:10])[H:11].[H:8][H:13]"
C       -2.44647116      -0.04305805       0.12468489
C       -1.08888431       0.59269058       0.00623342
C       -0.06704617       0.01639535       0.84782079
C        1.27069991       0.42395982       0.24368378
C        2.35133574      -0.63090491       0.46473207
C        0.88916717       0.64103769      -1.19682752
C       -0.43363837       0.72390201      -1.32739617
H       -1.69306542      -1.70773590       0.00506722
H       -2.86309958      -0.08336435       1.13090684
H       -3.12604028      -0.11623304      -0.71828619
H       -2.19184363       1.42063099       0.19464400
H       -0.15893078       0.19609750       1.91890072
H       -0.59963413      -1.57945084       0.34571879
H        1.64255646       1.37388926       0.65379107
H        2.02959223      -1.59805620       0.07306822
H        2.56581616      -0.74451762       1.52978225
H        3.28246167      -0.35338968      -0.03368519
H        1.61147640       0.75154726      -1.99602500
H       -0.97445192       0.71656013      -2.26681400
19
Frame=15 idx=007418 GeodesicLength=1.2292626673139373 rxn_smarts="[C:1]([C@:2]1([H:11])[C:3]([H:12])([H:13])[C@@:4]([C:5]([H:15])([H:16])[H:17])([H:14])[C:6]([H:18])=[C:7]1[H:19])([H:8])([H:9])[H:10]>>[C:1]([C:2]1=[C:3]([H:12])[C@:4]([C:5]([H:15])([H:16])[H:17])([H:14])[C:6]([H:18])=[C:7]1[H:19])([H:9])([H:10])[H:11].[H:8][H:13]"
C       -2.44639730      -0.03530952       0.13179355
C       -1.08580049       0.60052990       0.01249175
C       -0.06581857       0.00260930       0.84627546
C        1.27184937       0.41950694       0.24429353
C        2.35802163      -0.62861062       0.46831658
C        0.88963038       0.63518541      -1.19626821
C       -0.43339511       0.72369941      -1.32363711
H       -1.71709090      -1.70374482      -0.02246653
H       -2.86062047      -0.07204714       1.13961150
H       -3.12636055      -0.11942007      -0.70988258
H       -2.21786019       1.42478035       0.18824052
H       -0.15233117       0.19520794       1.91631971
H       -0.58998185      -1.58061692       0.32790724
H        1.63812509       1.37174938       0.65399645
H        2.04206344      -1.59885348       0.07951839
H        2.57328624      -0.73746170       1.53377669
H        3.28761747      -0.34766467      -0.03096634
H        1.61075132       0.74154785      -1.99708685
H       -0.97568835       0.70891246      -2.26223372
19
Frame=16 idx=007418 GeodesicLength=1.3112614172160986 rxn_smarts="[C:1]([C@:2]1([H:11])[C:3]([H:12])([H:13])[C@@:4]([C:5]([H:15])([H:16])[H:17])([H:14])[C:6]([H:18])=[C:7]1[H:19])([H:8])([H:9])[H:10]>>[C:1]([C:2]1=[C:3]([H:12])[C@:4]([C:5]([H:15])([H:16])[H:17])([H:14])[C:6]([H:18])=[C:7]1[H:19])([H:9])([H:10])[H:11].[H:8][H:13]"
C       -2.44626543      -0.02764466       0.13886665
C       -1.08252328       0.60795991       0.01870966
C       -0.06455995      -0.01120809       0.84462405
C        1.27304037       0.41507350       0.24491585
C        2.36480691      -0.62615131       0.47192968
C        0.89016467       0.62939144      -1.19570528
C       -0.43307718       0.72321225      -1.31992214
H       -1.74251249      -1.69927897      -0.05022606
H       -2.85796548      -0.06062015       1.14832084
H       -3.12701554      -0.12190652      -0.70116152
H       -2.24398166       1.42845938       0.18152918
H       -0.14569982       0.19374794       1.91358130
H       -0.57958243      -1.58192897       0.31045319
H        1.63364869       1.36961288       0.65424669
H        2.05474793      -1.59945772       0.08596696
H        2.58074349      -0.73024907       1.53780007
H        3.29284903      -0.34168223      -0.02817973
H        1.61008317       0.73153446      -1.99813887
H       -0.97690101       0.70113590      -2.25761053
