14
Frame=0 idx=008269 GeodesicLength=0.0 rxn_smarts="[C:1]([C@@:2]1([H:11])[C:3]([H:12])([H:13])[N:4]([H:14])[C:5](=[O:6])[O:7]1)([H:8])([H:9])[H:10]>>[C-:5]#[O+:6].[C:1]([C:2](=[O:7])[H:11])([H:8])([H:9])[H:10].[C:3](=[N:4][H:14])([H:12])[H:13]"
C       -1.48274434      -1.03281190       0.01397367
C       -0.33423768      -0.58346783      -0.85454097
C        0.07947544       1.38501232       0.15183753
N        1.33048447       1.29106897       0.55479598
C        2.00006164      -0.32702854       0.54505642
O        2.43093411      -0.90822667       1.42789220
O        0.76409584      -1.16792553      -0.80481015
H       -1.13992277      -1.24133651       1.02858198
H       -1.88121457      -1.96345390      -0.39932713
H       -2.29031764      -0.30043999       0.04056621
H       -0.59038457      -0.04272676      -1.77601743
H       -0.68994617       1.19410540       0.88945857
H       -0.17556061       1.98255680      -0.71573563
H        1.97927681       1.71467415      -0.10173128
14
Frame=1 idx=008269 GeodesicLength=0.07716707649219327 rxn_smarts="[C:1]([C@@:2]1([H:11])[C:3]([H:12])([H:13])[N:4]([H:14])[C:5](=[O:6])[O:7]1)([H:8])([H:9])[H:10]>>[C-:5]#[O+:6].[C:1]([C:2](=[O:7])[H:11])([H:8])([H:9])[H:10].[C:3](=[N:4][H:14])([H:12])[H:13]"
C       -1.46854966      -1.04445436       0.03130059
C       -0.35170242      -0.57516174      -0.86663772
C        0.08567525       1.39794979       0.12462069
N        1.31749289       1.28123684       0.58158824
C        1.98829764      -0.34779636       0.53577677
O        2.39743729      -0.96008694       1.40924554
O        0.76240839      -1.13898612      -0.84472443
H       -1.09765274      -1.21674557       1.04287638
H       -1.84670665      -1.99491955      -0.35456777
H       -2.29786073      -0.33656358       0.05711669
H       -0.64668788      -0.06494568      -1.79404439
H       -0.71926323       1.24092936       0.83181579
H       -0.12167029       2.01117812      -0.74561069
H        1.99878214       1.74836577      -0.00875570
14
Frame=2 idx=008269 GeodesicLength=0.1516046339414642 rxn_smarts="[C:1]([C@@:2]1([H:11])[C:3]([H:12])([H:13])[N:4]([H:14])[C:5](=[O:6])[O:7]1)([H:8])([H:9])[H:10]>>[C-:5]#[O+:6].[C:1]([C:2](=[O:7])[H:11])([H:8])([H:9])[H:10].[C:3](=[N:4][H:14])([H:12])[H:13]"
C       -1.45543672      -1.05424289       0.04798311
C       -0.36904620      -0.56825362      -0.87726223
C        0.09237433       1.41016088       0.09795952
N        1.30242156       1.27069158       0.60772236
C        1.97891196      -0.36686894       0.52352553
O        2.37048231      -1.00845699       1.38532864
O        0.75934789      -1.11200094      -0.88020837
H       -1.06012666      -1.19015408       1.05589206
H       -1.81268712      -2.02291835      -0.31107938
H       -2.30491462      -0.37043560       0.07246094
H       -0.69950553      -0.09020968      -1.80998730
H       -0.74612315       1.28580722       0.77203329
H       -0.06684883       2.03712011      -0.77352182
H        2.01115078       1.77976128       0.08915364
14
Frame=3 idx=008269 GeodesicLength=0.22337247551975467 rxn_smarts="[C:1]([C@@:2]1([H:11])[C:3]([H:12])([H:13])[N:4]([H:14])[C:5](=[O:6])[O:7]1)([H:8])([H:9])[H:10]>>[C-:5]#[O+:6].[C:1]([C:2](=[O:7])[H:11])([H:8])([H:9])[H:10].[C:3](=[N:4][H:14])([H:12])[H:13]"
C       -1.44352960      -1.06222682       0.06402383
C       -0.38617472      -0.56253425      -0.88650908
C        0.09966547       1.42166893       0.07192569
N        1.28555619       1.25950576       0.63294028
C        1.97203565      -0.38415709       0.50862098
O        2.35017576      -1.05315571       1.35689323
O        0.75514412      -1.08706468      -0.91164838
H       -1.02723960      -1.16192348       1.06775038
H       -1.77956136      -2.04749596      -0.26888884
H       -2.31165197      -0.40198065       0.08661519
H       -0.74888954      -0.11832955      -1.82412296
H       -0.77020579       1.32869804       0.71055105
H       -0.01127230       2.06083782      -0.79907092
H        2.01594766       1.80815763       0.19091957
14
Frame=4 idx=008269 GeodesicLength=0.29266172004720786 rxn_smarts="[C:1]([C@@:2]1([H:11])[C:3]([H:12])([H:13])[N:4]([H:14])[C:5](=[O:6])[O:7]1)([H:8])([H:9])[H:10]>>[C-:5]#[O+:6].[C:1]([C:2](=[O:7])[H:11])([H:8])([H:9])[H:10].[C:3](=[N:4][H:14])([H:12])[H:13]"
C       -1.43287314      -1.06847511       0.07945704
C       -0.40302866      -0.55778645      -0.89449344
C        0.10763059       1.43252005       0.04653880
N        1.26714821       1.24771355       0.65706187
C        1.96767883      -0.39963055       0.49134956
O        2.33640819      -1.09412487       1.32459742
O        0.74999642      -1.06417255      -0.93944689
H       -0.99875645      -1.13234544       1.07857521
H       -1.74757824      -2.06877526      -0.22792113
H       -2.31821509      -0.43121598       0.09963146
H       -0.79497940      -0.14910880      -1.83665695
H       -0.79129317       1.36964518       0.64771115
H        0.04494133       2.08279211      -0.82194746
H        2.01292058       1.83296411       0.29554337
14
Frame=5 idx=008269 GeodesicLength=0.3597395147881222 rxn_smarts="[C:1]([C@@:2]1([H:11])[C:3]([H:12])([H:13])[N:4]([H:14])[C:5](=[O:6])[O:7]1)([H:8])([H:9])[H:10]>>[C-:5]#[O+:6].[C:1]([C:2](=[O:7])[H:11])([H:8])([H:9])[H:10].[C:3](=[N:4][H:14])([H:12])[H:13]"
C       -1.42344971      -1.07310588       0.09429094
C       -0.41953904      -0.55377873      -0.90134008
C        0.11634402       1.44278965       0.02189888
N        1.24754743       1.23543698       0.67987818
C        1.96571380      -0.41330764       0.47210486
O        2.32867701      -1.13136373       1.28924639
O        0.74411913      -1.04321748      -0.96398381
H       -0.97437224      -1.10171945       1.08844647
H       -1.71686909      -2.08694543      -0.18818042
H       -2.32469946      -0.45825262       0.11157876
H       -0.83789622      -0.18229807      -1.84772032
H       -0.80917929       1.40865167       0.58399346
H        0.10152944       2.10350968      -0.84172942
H        2.00207421       1.85360106       0.40151609
14
Frame=6 idx=008269 GeodesicLength=0.42503894590529034 rxn_smarts="[C:1]([C@@:2]1([H:11])[C:3]([H:12])([H:13])[N:4]([H:14])[C:5](=[O:6])[O:7]1)([H:8])([H:9])[H:10]>>[C-:5]#[O+:6].[C:1]([C:2](=[O:7])[H:11])([H:8])([H:9])[H:10].[C:3](=[N:4][H:14])([H:12])[H:13]"
C       -1.41520368      -1.07627769       0.10852942
C       -0.43565341      -0.55029594      -0.90718095
C        0.12583868       1.45259075      -0.00188092
N        1.22715185       1.22285178       0.70120429
C        1.96595713      -0.42527982       0.45131941
O        2.32623136      -1.16500393       1.25168238
O        0.73774637      -1.02403504      -0.98562270
H       -0.95373545      -1.07033782       1.09742943
H       -1.68748233      -2.10225787      -0.14969942
H       -2.33120400      -0.48327442       0.12253704
H       -0.87777784      -0.21764735      -1.85740431
H       -0.82374797       1.44573410       0.51993798
H        0.15812620       2.12353674      -0.85803722
H        1.98375309       1.86969651       0.50718558
14
Frame=7 idx=008269 GeodesicLength=0.48900992232711926 rxn_smarts="[C:1]([C@@:2]1([H:11])[C:3]([H:12])([H:13])[N:4]([H:14])[C:5](=[O:6])[O:7]1)([H:8])([H:9])[H:10]>>[C-:5]#[O+:6].[C:1]([C:2](=[O:7])[H:11])([H:8])([H:9])[H:10].[C:3](=[N:4][H:14])([H:12])[H:13]"
C       -1.40792448      -1.07812205       0.12225777
C       -0.45138377      -0.54710979      -0.91217474
C        0.13614621       1.46202938      -0.02487736
N        1.20614996       1.20998624       0.72092503
C        1.96805631      -0.43570564       0.42927289
O        2.32808508      -1.19532894       1.21250536
O        0.73099157      -1.00634165      -1.00480535
H       -0.93629718      -1.03837830       1.10560250
H       -1.65919536      -2.11495859      -0.11226898
H       -2.33766966      -0.50655435       0.13270051
H       -0.91490741      -0.25491664      -1.86573730
H       -0.83497459       1.48100988       0.45573326
H        0.21457387       2.14332633      -0.87076536
H        1.95834946       1.88106412       0.61163178
14
Frame=8 idx=008269 GeodesicLength=0.5520675221873119 rxn_smarts="[C:1]([C@@:2]1([H:11])[C:3]([H:12])([H:13])[N:4]([H:14])[C:5](=[O:6])[O:7]1)([H:8])([H:9])[H:10]>>[C-:5]#[O+:6].[C:1]([C:2](=[O:7])[H:11])([H:8])([H:9])[H:10].[C:3](=[N:4][H:14])([H:12])[H:13]"
C       -1.40125626      -1.07864709       0.13564296
C       -0.46680199      -0.54397171      -0.91655245
C        0.14730322       1.47116465      -0.04727704
N        1.18450164       1.19673172       0.73905198
C        1.97157504      -0.44473973       0.40605801
O        2.33309836      -1.22270341       1.17199797
O        0.72388022      -0.98970937      -1.02215767
H       -0.92141075      -1.00564705       1.11313103
H       -1.63134623      -2.12519505      -0.07539303
H       -2.34396856      -0.52847563       0.14230848
H       -0.94971213      -0.29397277      -1.87277125
H       -0.84292170       1.51468692       0.39125104
H        0.27093182       2.16305443      -0.88001469
H        1.92612732       1.88742409       0.71472468
14
Frame=9 idx=008269 GeodesicLength=0.614242299782927 rxn_smarts="[C:1]([C@@:2]1([H:11])[C:3]([H:12])([H:13])[N:4]([H:14])[C:5](=[O:6])[O:7]1)([H:8])([H:9])[H:10]>>[C-:5]#[O+:6].[C:1]([C:2](=[O:7])[H:11])([H:8])([H:9])[H:10].[C:3](=[N:4][H:14])([H:12])[H:13]"
C       -1.39536798      -1.07826837       0.14843229
C       -0.48174846      -0.54082671      -0.92021571
C        0.15924409       1.48011395      -0.06853703
N        1.16314618       1.18376742       0.75526966
C        1.97629060      -0.45262225       0.38253828
O        2.34036648      -1.24734843       1.13151997
O        0.71671531      -0.97414867      -1.03742081
H       -0.90913999      -0.97298000       1.11980309
H       -1.60460510      -2.13332929      -0.03999095
H       -2.35017744      -0.54911972       0.15125286
H       -0.98172468      -0.33435249      -1.87833568
H       -0.84746689       1.54636905       0.32790425
H        0.32606793       2.18340855      -0.88500970
H        1.88839996       1.88933697       0.81278947
14
Frame=10 idx=008269 GeodesicLength=0.676491630815919 rxn_smarts="[C:1]([C@@:2]1([H:11])[C:3]([H:12])([H:13])[N:4]([H:14])[C:5](=[O:6])[O:7]1)([H:8])([H:9])[H:10]>>[C-:5]#[O+:6].[C:1]([C:2](=[O:7])[H:11])([H:8])([H:9])[H:10].[C:3](=[N:4][H:14])([H:12])[H:13]"
C       -1.39006099      -1.07686942       0.16092027
C       -0.49648608      -0.53760452      -0.92355626
C        0.17206606       1.48896711      -0.08923107
N        1.14179663       1.17072570       0.76979612
C        1.98219069      -0.45947042       0.35825537
O        2.34967922      -1.26958985       1.09057093
O        0.70945020      -0.95943152      -1.05144983
H       -0.89896272      -0.93970095       1.12595339
H       -1.57822100      -2.13951163      -0.00504094
H       -2.35653135      -0.56891974       0.15982701
H       -1.01180400      -0.37636653      -1.88264613
H       -0.84900426       1.57670207       0.26475977
H        0.38065170       2.20433066      -0.88642484
H        1.84523590       1.88673903       0.90826621
14
Frame=11 idx=008269 GeodesicLength=0.7382336867802594 rxn_smarts="[C:1]([C@@:2]1([H:11])[C:3]([H:12])([H:13])[N:4]([H:14])[C:5](=[O:6])[O:7]1)([H:8])([H:9])[H:10]>>[C-:5]#[O+:6].[C:1]([C:2](=[O:7])[H:11])([H:8])([H:9])[H:10].[C:3](=[N:4][H:14])([H:12])[H:13]"
C       -1.38505754      -1.07479412       0.17298804
C       -0.51084004      -0.53415024      -0.92639837
C        0.18568077       1.49779774      -0.10905029
N        1.12089088       1.15808105       0.78237965
C        1.98852282      -0.46562366       0.33383298
O        2.35922628      -1.29001281       1.05010379
O        0.70213336      -0.94527449      -1.06404773
H       -0.89052253      -0.90658363       1.13130449
H       -1.55224935      -2.14401513       0.02887985
H       -2.36247275      -0.58802466       0.16815115
H       -1.03941552      -0.41931445      -1.88529220
H       -0.84736141       1.60534049       0.20275956
H        0.43386094       2.22621183      -0.88386499
H        1.79760409       1.88036209       0.99825407
14
Frame=12 idx=008269 GeodesicLength=0.7996466029813658 rxn_smarts="[C:1]([C@@:2]1([H:11])[C:3]([H:12])([H:13])[N:4]([H:14])[C:5](=[O:6])[O:7]1)([H:8])([H:9])[H:10]>>[C-:5]#[O+:6].[C:1]([C:2](=[O:7])[H:11])([H:8])([H:9])[H:10].[C:3](=[N:4][H:14])([H:12])[H:13]"
C       -1.38007279      -1.07192119       0.18470612
C       -0.52495596      -0.53029090      -0.92896675
C        0.19996422       1.50648584      -0.12820157
N        1.10051875       1.14565871       0.79313930
C        1.99514207      -0.47139577       0.30945400
O        2.36861503      -1.30905017       1.01049765
O        0.69475310      -0.93137109      -1.07561430
H       -0.88330311      -0.87330387       1.13599756
H       -1.52604278      -2.14670241       0.06205119
H       -2.36794521      -0.60659728       0.17628150
H       -1.06503741      -0.46297863      -1.88639631
H       -0.84288005       1.63233392       0.14164133
H        0.48527322       2.24898308      -0.87753748
H        1.74597091       1.87014977       1.08294777
14
Frame=13 idx=008269 GeodesicLength=0.8611871067219803 rxn_smarts="[C:1]([C@@:2]1([H:11])[C:3]([H:12])([H:13])[N:4]([H:14])[C:5](=[O:6])[O:7]1)([H:8])([H:9])[H:10]>>[C-:5]#[O+:6].[C:1]([C:2](=[O:7])[H:11])([H:8])([H:9])[H:10].[C:3](=[N:4][H:14])([H:12])[H:13]"
C       -1.37535718      -1.06851688       0.19616215
C       -0.53890927      -0.52620147      -0.93130064
C        0.21511431       1.51522806      -0.14669127
N        1.08077401       1.13370918       0.80232296
C        2.00210230      -0.47677786       0.28494383
O        2.37786838      -1.32690922       0.97138037
O        0.68737507      -0.91780870      -1.08635192
H       -0.87755110      -0.83994353       1.14012214
H       -1.49994864      -2.14803851       0.09458209
H       -2.37327946      -0.62498556       0.18436024
H       -1.08863135      -0.50737187      -1.88588593
H       -0.83565867       1.65799384       0.08134265
H        0.53540692       2.27270764      -0.86757545
H        1.69069470       1.85691486       1.16258878
14
Frame=14 idx=008269 GeodesicLength=0.9232699709408346 rxn_smarts="[C:1]([C@@:2]1([H:11])[C:3]([H:12])([H:13])[N:4]([H:14])[C:5](=[O:6])[O:7]1)([H:8])([H:9])[H:10]>>[C-:5]#[O+:6].[C:1]([C:2](=[O:7])[H:11])([H:8])([H:9])[H:10].[C:3](=[N:4][H:14])([H:12])[H:13]"
C       -1.37055238      -1.06438067       0.20751643
C       -0.55286270      -0.52169237      -0.93357426
C        0.23119383       1.52409809      -0.16483062
N        1.06149903       1.12201466       0.80988333
C        2.00921976      -0.48197806       0.26003561
O        2.38656916      -1.34399849       0.93246011
O        0.67984462      -0.90428490      -1.09672800
H       -0.87285385      -0.80592097       1.14377978
H       -1.47301208      -2.14787411       0.12716203
H       -2.37830602      -0.64347524       0.19257253
H       -1.11067612      -0.55257300      -1.88369178
H       -0.82574577       1.68265437       0.02119932
H        0.58457530       2.29711585      -0.85437708
H        1.63110721       1.84029484       1.23859259
14
Frame=15 idx=008269 GeodesicLength=0.9854435859497621 rxn_smarts="[C:1]([C@@:2]1([H:11])[C:3]([H:12])([H:13])[N:4]([H:14])[C:5](=[O:6])[O:7]1)([H:8])([H:9])[H:10]>>[C-:5]#[O+:6].[C:1]([C:2](=[O:7])[H:11])([H:8])([H:9])[H:10].[C:3](=[N:4][H:14])([H:12])[H:13]"
C       -1.36578489      -1.05982754       0.21863455
C       -0.56671120      -0.51693797      -0.93568347
C        0.24805909       1.53294598      -0.18235250
N        1.04304493       1.11096362       0.81610985
C        2.01637456      -0.48720462       0.23531898
O        2.39439229      -1.36057554       0.89447643
O        0.67235186      -0.89091881      -1.10647683
H       -0.86915142      -0.77199271       1.14687381
H       -1.44599167      -2.14641963       0.15894887
H       -2.38294366      -0.66188705       0.20096728
H       -1.13076692      -0.59783192      -1.87979370
H       -0.81335148       1.70590686      -0.03809193
H        0.63179683       2.32242063      -0.83758834
H        1.56868168       1.82135870       1.30865700
14
Frame=16 idx=008269 GeodesicLength=1.047918325948684 rxn_smarts="[C:1]([C@@:2]1([H:11])[C:3]([H:12])([H:13])[N:4]([H:14])[C:5](=[O:6])[O:7]1)([H:8])([H:9])[H:10]>>[C-:5]#[O+:6].[C:1]([C:2](=[O:7])[H:11])([H:8])([H:9])[H:10].[C:3](=[N:4][H:14])([H:12])[H:13]"
C       -1.36070206      -1.05455063       0.22975627
C       -0.58054753      -0.51166162      -0.93768620
C        0.26588262       1.54181998      -0.19958462
N        1.02518967       1.10017892       0.82079628
C        2.02336467      -0.49248810       0.21020761
O        2.40114091      -1.37678990       0.85667832
O        0.66464396      -0.87734525      -1.11594127
H       -0.86630494      -0.73738860       1.14952400
H       -1.41785806      -2.14336082       0.19091726
H       -2.38692019      -0.68055326       0.20967239
H       -1.14916523      -0.64322559      -1.87397020
H       -0.79826070       1.72807481      -0.09728779
H        0.67768444       2.34805892      -0.81782580
H        1.50185245       1.79923114       1.37474375
