13
Frame=0 idx=001302 GeodesicLength=0.0 rxn_smarts="[C:1]1([H:7])([H:8])[O:2][C:3]([H:9])([H:10])[C@@:4]2([H:11])[N:5]([H:12])[C@@:6]12[H:13]>>[C:1]1([H:7])([H:8])[O:2][C:3]([H:9])([H:10])[N+:5]2([H:12])[C-:4]([H:11])[C@:6]12[H:13]"
C       -1.20341241      -0.69535846       0.23804144
O       -0.03527292      -1.50268558       0.36734725
C        1.12020937      -0.94704558      -0.05183744
C        0.61447991       0.96830741       0.71366006
N        0.44755177       0.66113338      -0.81035510
C       -0.68542278       0.71313629       0.08309434
H       -1.79538653      -0.83273740       1.14421558
H       -1.78238260      -1.01526493      -0.63510132
H        1.90824628      -0.99694716       0.68927273
H        1.43786246      -1.28359043      -1.04069609
H        0.83011725       2.02272949       0.89538209
H        0.54950208       1.40719862      -1.48967859
H       -1.40609193       1.50112440      -0.10334491
13
Frame=1 idx=001302 GeodesicLength=0.05148223681657208 rxn_smarts="[C:1]1([H:7])([H:8])[O:2][C:3]([H:9])([H:10])[C@@:4]2([H:11])[N:5]([H:12])[C@@:6]12[H:13]>>[C:1]1([H:7])([H:8])[O:2][C:3]([H:9])([H:10])[N+:5]2([H:12])[C-:4]([H:11])[C@:6]12[H:13]"
C       -1.20394729      -0.69333845       0.23449197
O       -0.04144504      -1.51225121       0.32409267
C        1.12207250      -0.93420974      -0.04947194
C        0.61497670       0.96404186       0.71611948
N        0.45157687       0.67056268      -0.80326126
C       -0.68651650       0.71600143       0.08486442
H       -1.77486119      -0.83588020       1.15377870
H       -1.80475248      -1.00189641      -0.62759743
H        1.88743599      -1.00398557       0.71476717
H        1.47561673      -1.26599879      -1.02781778
H        0.84175958       2.01508384       0.90210870
H        0.52485455       1.37628715      -1.52506179
H       -1.40677043       1.50558341      -0.09701291
13
Frame=2 idx=001302 GeodesicLength=0.10290200142692102 rxn_smarts="[C:1]1([H:7])([H:8])[O:2][C:3]([H:9])([H:10])[C@@:4]2([H:11])[N:5]([H:12])[C@@:6]12[H:13]>>[C:1]1([H:7])([H:8])[O:2][C:3]([H:9])([H:10])[N+:5]2([H:12])[C-:4]([H:11])[C@:6]12[H:13]"
C       -1.20394070      -0.69101446       0.23073353
O       -0.04727640      -1.51981567       0.27862025
C        1.12343076      -0.92100680      -0.04723031
C        0.61531060       0.96014348       0.71901001
N        0.45576720       0.68117188      -0.79597408
C       -0.68745887       0.71923657       0.08666658
H       -1.75244617      -0.83990181       1.16297412
H       -1.82688051      -0.98800050      -0.61928645
H        1.86485673      -1.01129447       0.73936871
H        1.51290723      -1.24734512      -1.01379974
H        0.85285383       2.00752895       0.90994519
H        0.50021057       1.34011899      -1.56032489
H       -1.40733427       1.51017898      -0.09070291
13
Frame=3 idx=001302 GeodesicLength=0.15411974783814428 rxn_smarts="[C:1]1([H:7])([H:8])[O:2][C:3]([H:9])([H:10])[C@@:4]2([H:11])[N:5]([H:12])[C@@:6]12[H:13]>>[C:1]1([H:7])([H:8])[O:2][C:3]([H:9])([H:10])[N+:5]2([H:12])[C-:4]([H:11])[C@:6]12[H:13]"
C       -1.20342999      -0.68845562       0.22671156
O       -0.05263675      -1.52517401       0.23160567
C        1.12435820      -0.90746919      -0.04520758
C        0.61566199       0.95671027       0.72220455
N        0.46011944       0.69311403      -0.78859589
C       -0.68826290       0.72289474       0.08851172
H       -1.72866363      -0.84476953       1.17137999
H       -1.84849898      -0.97392773      -0.61032402
H        1.84085150      -1.01883956       0.76273183
H        1.54930524      -1.22793939      -0.99876121
H        0.86360525       2.00021596       0.91884736
H        0.47547758       1.29863502      -1.59471314
H       -1.40788695       1.51500502      -0.08439084
13
Frame=4 idx=001302 GeodesicLength=0.20509545148861116 rxn_smarts="[C:1]1([H:7])([H:8])[O:2][C:3]([H:9])([H:10])[C@@:4]2([H:11])[N:5]([H:12])[C@@:6]12[H:13]>>[C:1]1([H:7])([H:8])[O:2][C:3]([H:9])([H:10])[N+:5]2([H:12])[C-:4]([H:11])[C@:6]12[H:13]"
C       -1.20253577      -0.68571493       0.22254581
O       -0.05752290      -1.52826975       0.18344905
C        1.12485364      -0.89362958      -0.04357690
C        0.61591311       0.95378727       0.72553471
N        0.46451585       0.70650322      -0.78133738
C       -0.68909853       0.72702317       0.09033330
H       -1.70375277      -0.85046089       1.17911062
H       -1.86955143      -0.95995451      -0.60057726
H        1.81575922      -1.02651474       0.78434017
H        1.58455641      -1.20807559      -0.98298728
H        0.87378489       1.99324132       0.92873316
H        0.45175873       1.25193990      -1.62738461
H       -1.40868046       1.52012510      -0.07818338
13
Frame=5 idx=001302 GeodesicLength=0.25590087436954034 rxn_smarts="[C:1]1([H:7])([H:8])[O:2][C:3]([H:9])([H:10])[C@@:4]2([H:11])[N:5]([H:12])[C@@:6]12[H:13]>>[C:1]1([H:7])([H:8])[O:2][C:3]([H:9])([H:10])[N+:5]2([H:12])[C-:4]([H:11])[C@:6]12[H:13]"
C       -1.20123622      -0.68283874       0.21826265
O       -0.06191626      -1.52899562       0.13473558
C        1.12481598      -0.87947697      -0.04245767
C        0.61605503       0.95137369       0.72876238
N        0.46870040       0.72120225      -0.77443803
C       -0.69001146       0.73153739       0.09203235
H       -1.67783570      -0.85676902       1.18606492
H       -1.88982275      -0.94644257      -0.59008660
H        1.78979095      -1.03407623       0.80388924
H        1.61810227      -1.18809133      -0.96672922
H        0.88336962       1.98657569       0.93938193
H        0.42976706       1.20061658      -1.65723194
H       -1.40977893       1.52538488      -0.07218559
13
Frame=6 idx=001302 GeodesicLength=0.30662018466974045 rxn_smarts="[C:1]1([H:7])([H:8])[O:2][C:3]([H:9])([H:10])[C@@:4]2([H:11])[N:5]([H:12])[C@@:6]12[H:13]>>[C:1]1([H:7])([H:8])[O:2][C:3]([H:9])([H:10])[N+:5]2([H:12])[C-:4]([H:11])[C@:6]12[H:13]"
C       -1.19960053      -0.67993194       0.21394375
O       -0.06585682      -1.52745601       0.08614257
C        1.12420204      -0.86510780      -0.04192789
C        0.61608401       0.94945549       0.73156459
N        0.47244060       0.73694138      -0.76818191
C       -0.69108947       0.73632146       0.09349536
H       -1.65118961      -0.86349944       1.19224499
H       -1.90919207      -0.93379674      -0.57885025
H        1.76325698      -1.04135008       0.82114903
H        1.64954719      -1.16842149      -0.95023811
H        0.89236948       1.98021905       0.95035228
H        0.41033921       1.14599227      -1.68318781
H       -1.41131099       1.53063385      -0.06650661
13
Frame=7 idx=001302 GeodesicLength=0.35724922182977387 rxn_smarts="[C:1]1([H:7])([H:8])[O:2][C:3]([H:9])([H:10])[C@@:4]2([H:11])[N:5]([H:12])[C@@:6]12[H:13]>>[C:1]1([H:7])([H:8])[O:2][C:3]([H:9])([H:10])[N+:5]2([H:12])[C-:4]([H:11])[C@:6]12[H:13]"
C       -1.19771494      -0.67713060       0.20969629
O       -0.06940313      -1.52394693       0.03833325
C        1.12301554      -0.85071508      -0.04200763
C        0.61598430       0.94801652       0.73364258
N        0.47556600       0.75334136      -0.76283973
C       -0.69241478       0.74125273       0.09463111
H       -1.62415141      -0.87046627       1.19774316
H       -1.92756044      -0.92240337      -0.56687493
H        1.73643336      -1.04826548       0.83607263
H        1.67867016      -1.14957222      -0.93375546
H        0.90081032       1.97421032       0.96112239
H        0.39415798       1.08991951      -1.70454720
H       -1.41339295       1.53575952      -0.06121646
13
Frame=8 idx=001302 GeodesicLength=0.4081779451967267 rxn_smarts="[C:1]1([H:7])([H:8])[O:2][C:3]([H:9])([H:10])[C@@:4]2([H:11])[N:5]([H:12])[C@@:6]12[H:13]>>[C:1]1([H:7])([H:8])[O:2][C:3]([H:9])([H:10])[N+:5]2([H:12])[C-:4]([H:11])[C@:6]12[H:13]"
C       -1.19568556      -0.67452847       0.20553642
O       -0.07272586      -1.51865532      -0.00818187
C        1.12122967      -0.83637137      -0.04257608
C        0.61588551       0.94690463       0.73474478
N        0.47788025       0.76993391      -0.75846521
C       -0.69401818       0.74608813       0.09529483
H       -1.59680987      -0.87749306       1.20248955
H       -1.94506755      -0.91251624      -0.55419192
H        1.70967466      -1.05458566       0.84876678
H        1.70516990      -1.13179311      -0.91722403
H        0.90897320       1.96833657       0.97115869
H        0.38155531       1.03425789      -1.72086680
H       -1.41606147       1.54042210      -0.05648513
13
Frame=9 idx=001302 GeodesicLength=0.4592343640959876 rxn_smarts="[C:1]1([H:7])([H:8])[O:2][C:3]([H:9])([H:10])[C@@:4]2([H:11])[N:5]([H:12])[C@@:6]12[H:13]>>[C:1]1([H:7])([H:8])[O:2][C:3]([H:9])([H:10])[N+:5]2([H:12])[C-:4]([H:11])[C@:6]12[H:13]"
C       -1.19345852      -0.67210213       0.20155176
O       -0.07572918      -1.51194607      -0.05306756
C        1.11896350      -0.82231081      -0.04361689
C        0.61560276       0.94605931       0.73479667
N        0.47950749       0.78631889      -0.75513545
C       -0.69589195       0.75078793       0.09560530
H       -1.56957196      -0.88426124       1.20662209
H       -1.96130651      -0.90411076      -0.54087548
H        1.68288193      -1.06049169       0.85943571
H        1.72939834      -1.11545667      -0.90087740
H        0.91662643       1.96256194       0.98015271
H        0.37226363       0.98027994      -1.73252590
H       -1.41928596       1.54467137      -0.05206557
13
Frame=10 idx=001302 GeodesicLength=0.5104986013270894 rxn_smarts="[C:1]1([H:7])([H:8])[O:2][C:3]([H:9])([H:10])[C@@:4]2([H:11])[N:5]([H:12])[C@@:6]12[H:13]>>[C:1]1([H:7])([H:8])[O:2][C:3]([H:9])([H:10])[N+:5]2([H:12])[C-:4]([H:11])[C@:6]12[H:13]"
C       -1.19118407      -0.67007719       0.19772772
O       -0.07870084      -1.50425068      -0.09603021
C        1.11615595      -0.80859226      -0.04495649
C        0.61535551       0.94551243       0.73385705
N        0.48040496       0.80236364      -0.75273370
C       -0.69798071       0.75524630       0.09548716
H       -1.54250861      -0.89095439       1.21013387
H       -1.97658389      -0.89748727      -0.52708521
H        1.65637369      -1.06578967       0.86834445
H        1.75105525      -1.10063100      -0.88465750
H        0.92423700       1.95704240       0.98798276
H        0.36630372       0.92921583      -1.73994500
H       -1.42292796       1.54840184      -0.04812491
13
Frame=11 idx=001302 GeodesicLength=0.5617924440716986 rxn_smarts="[C:1]1([H:7])([H:8])[O:2][C:3]([H:9])([H:10])[C@@:4]2([H:11])[N:5]([H:12])[C@@:6]12[H:13]>>[C:1]1([H:7])([H:8])[O:2][C:3]([H:9])([H:10])[N+:5]2([H:12])[C-:4]([H:11])[C@:6]12[H:13]"
C       -1.18886961      -0.66836200       0.19406090
O       -0.08154606      -1.49579846      -0.13695617
C        1.11300731      -0.79532055      -0.04650015
C        0.61510736       0.94515276       0.73205267
N        0.48069514       0.81791789      -0.75118289
C       -0.70029431       0.75947585       0.09504771
H       -1.51587867      -0.89737258       1.21309004
H       -1.99077936      -0.89240560      -0.51304473
H        1.63031558      -1.07065109       0.87579978
H        1.77053457      -1.08741257      -0.86863830
H        0.93175972       1.95164395       0.99466263
H        0.36297890       0.88142432      -1.74386400
H       -1.42703057       1.55170808      -0.04452749
13
Frame=12 idx=001302 GeodesicLength=0.6131851136457702 rxn_smarts="[C:1]1([H:7])([H:8])[O:2][C:3]([H:9])([H:10])[C@@:4]2([H:11])[N:5]([H:12])[C@@:6]12[H:13]>>[C:1]1([H:7])([H:8])[O:2][C:3]([H:9])([H:10])[N+:5]2([H:12])[C-:4]([H:11])[C@:6]12[H:13]"
C       -1.18651259      -0.66696195       0.19051831
O       -0.08432029      -1.48679001      -0.17592303
C        1.10954975      -0.78248787      -0.04816961
C        0.61488638       0.94496351       0.72948978
N        0.48049118       0.83292881      -0.75034162
C       -0.70275242       0.76345930       0.09434728
H       -1.48973534      -0.90349800       1.21549178
H       -2.00390764      -0.88878482      -0.49886108
H        1.60465149      -1.07507460       0.88203889
H        1.78800559      -1.07570381      -0.85278446
H        0.93929113       1.94636570       1.00025112
H        0.36179282       0.83699117      -1.74485908
H       -1.43144007       1.55459258      -0.04119827
13
Frame=13 idx=001302 GeodesicLength=0.6647557693706672 rxn_smarts="[C:1]1([H:7])([H:8])[O:2][C:3]([H:9])([H:10])[C@@:4]2([H:11])[N:5]([H:12])[C@@:6]12[H:13]>>[C:1]1([H:7])([H:8])[O:2][C:3]([H:9])([H:10])[N+:5]2([H:12])[C-:4]([H:11])[C@:6]12[H:13]"
C       -1.18411814      -0.66581657       0.18708738
O       -0.08703059      -1.47732797      -0.21301370
C        1.10584675      -0.77008187      -0.04990949
C        0.61467217       0.94486684       0.72625371
N        0.47984023       0.84736398      -0.75006805
C       -0.70535054       0.76718987       0.09342153
H       -1.46407692      -0.90929125       1.21734252
H       -2.01602949      -0.88641982      -0.48457060
H        1.57944186      -1.07907353       0.88720790
H        1.80365501      -1.06539480      -0.83706794
H        0.94683054       1.94109779       1.00479866
H        0.36245466       0.79582357      -1.74338255
H       -1.43613553       1.55706375      -0.03809937
13
Frame=14 idx=001302 GeodesicLength=0.716357033592916 rxn_smarts="[C:1]1([H:7])([H:8])[O:2][C:3]([H:9])([H:10])[C@@:4]2([H:11])[N:5]([H:12])[C@@:6]12[H:13]>>[C:1]1([H:7])([H:8])[O:2][C:3]([H:9])([H:10])[N+:5]2([H:12])[C-:4]([H:11])[C@:6]12[H:13]"
C       -1.18170406      -0.66494275       0.18374578
O       -0.08970202      -1.46760266      -0.24833629
C        1.10195475      -0.75810658      -0.05167111
C        0.61449832       0.94489056       0.72249491
N        0.47883661       0.86127155      -0.75028845
C       -0.70804382       0.77070721       0.09232840
H       -1.43896642      -0.91477894       1.21871955
H       -2.02719366      -0.88525295      -0.47031702
H        1.55469491      -1.08269267       0.89153274
H        1.81765748      -1.05642935      -0.82151354
H        0.95445413       1.93591693       1.00846484
H        0.36455360       0.75780835      -1.73998250
H       -1.44103980       1.55921129      -0.03517732
13
Frame=15 idx=001302 GeodesicLength=0.7681745362544645 rxn_smarts="[C:1]1([H:7])([H:8])[O:2][C:3]([H:9])([H:10])[C@@:4]2([H:11])[N:5]([H:12])[C@@:6]12[H:13]>>[C:1]1([H:7])([H:8])[O:2][C:3]([H:9])([H:10])[N+:5]2([H:12])[C-:4]([H:11])[C@:6]12[H:13]"
C       -1.17928008      -0.66429522       0.18048278
O       -0.09236216      -1.45762458      -0.28197596
C        1.09789619      -0.74648259      -0.05343230
C        0.61435540       0.94496318       0.71825266
N        0.47756426       0.87464103      -0.75087460
C       -0.71079546       0.77397274       0.09109822
H       -1.41443997      -0.91992423       1.21960312
H       -2.03744066      -0.88515463      -0.45609421
H        1.53037197      -1.08586906       0.89507462
H        1.83013486      -1.04862230      -0.80609400
H        0.96218217       1.93069669       1.01127311
H        0.36788448       0.72273488      -1.73491867
H       -1.44607100       1.56096409      -0.03239478
13
Frame=16 idx=001302 GeodesicLength=0.8199902227659298 rxn_smarts="[C:1]1([H:7])([H:8])[O:2][C:3]([H:9])([H:10])[C@@:4]2([H:11])[N:5]([H:12])[C@@:6]12[H:13]>>[C:1]1([H:7])([H:8])[O:2][C:3]([H:9])([H:10])[N+:5]2([H:12])[C-:4]([H:11])[C@:6]12[H:13]"
C       -1.17683226      -0.66384675       0.17727700
O       -0.09497350      -1.44753520      -0.31401833
C        1.09374002      -0.73524064      -0.05515164
C        0.61425111       0.94509400       0.71365480
N        0.47604528       0.88751638      -0.75177466
C       -0.71359663       0.77704774       0.08977692
H       -1.39050431      -0.92472536       1.22005254
H       -2.04677849      -0.88598911      -0.44205638
H        1.50657008      -1.08869540       0.89799931
H        1.84122758      -1.04196805      -0.79083632
H        0.96999863       1.92548854       1.01336670
H        0.37207926       0.69040802      -1.72855464
H       -1.45122677       1.56244583      -0.02973529
