10
Frame=0 idx=004806 GeodesicLength=0.0 rxn_smarts="[O:1]=[C:2]1[O:3][C@@:4]2([H:7])[C:5]([H:8])([H:9])[C@@:6]12[H:10]>>[O:1]=[C:2]1[O:3][C@:4]([C:5][H:8])([H:7])[C:6]1([H:9])[H:10]"
O        2.40411106      -0.89855810      -0.05915754
C        1.38429008      -0.31025048       0.03905230
O        1.17386269       1.01645496       0.22218889
C       -0.26211600       0.79259175       0.38177191
C       -0.98027622       0.65318277      -0.85932420
C       -0.08853821      -0.68349867       0.06532473
H       -0.66368091       1.14132252       1.32318574
H       -2.01980072       0.40042374      -0.60268003
H       -0.39653457      -0.61534652      -1.11549711
H       -0.55131721      -1.49632196       0.60513531
10
Frame=1 idx=004806 GeodesicLength=0.04352795838488465 rxn_smarts="[O:1]=[C:2]1[O:3][C@@:4]2([H:7])[C:5]([H:8])([H:9])[C@@:6]12[H:10]>>[O:1]=[C:2]1[O:3][C@:4]([C:5][H:8])([H:7])[C:6]1([H:9])[H:10]"
O        2.40468923      -0.89885347      -0.05247003
C        1.38403249      -0.31123027       0.04125036
O        1.17318063       1.01676781       0.21902269
C       -0.26159386       0.79295269       0.38318187
C       -0.98232738       0.64893956      -0.85554762
C       -0.08847717      -0.68391330       0.06263803
H       -0.66107785       1.14165675       1.32561790
H       -2.02367576       0.40399920      -0.60073260
H       -0.39711638      -0.61566613      -1.13190980
H       -0.54763395      -1.49465283       0.60894919
10
Frame=2 idx=004806 GeodesicLength=0.08705240198875283 rxn_smarts="[O:1]=[C:2]1[O:3][C@@:4]2([H:7])[C:5]([H:8])([H:9])[C@@:6]12[H:10]>>[O:1]=[C:2]1[O:3][C@:4]([C:5][H:8])([H:7])[C:6]1([H:9])[H:10]"
O        2.40523715      -0.89913509      -0.04590778
C        1.38376089      -0.31222798       0.04347618
O        1.17248724       1.01703966       0.21590884
C       -0.26108034       0.79330521       0.38460527
C       -0.98434373       0.64455732      -0.85175407
C       -0.08840993      -0.68436957       0.06009529
H       -0.65850744       1.14204851       1.32802278
H       -2.02750169       0.40757105      -0.59884261
H       -0.39770161      -0.61580063      -1.14846340
H       -0.54394053      -1.49298848       0.61285950
10
Frame=3 idx=004806 GeodesicLength=0.13056841698314825 rxn_smarts="[O:1]=[C:2]1[O:3][C@@:4]2([H:7])[C:5]([H:8])([H:9])[C@@:6]12[H:10]>>[O:1]=[C:2]1[O:3][C@:4]([C:5][H:8])([H:7])[C:6]1([H:9])[H:10]"
O        2.40575579      -0.89940098      -0.03950496
C        1.38347566      -0.31324595       0.04574182
O        1.17178268       1.01726838       0.21285977
C       -0.26057718       0.79364954       0.38604345
C       -0.98631857       0.64003252      -0.84794589
C       -0.08833667      -0.68487035       0.05770912
H       -0.65597956       1.14250361       1.33039703
H       -2.03127203       0.41113876      -0.59702375
H       -0.39828896      -0.61574529      -1.16515514
H       -0.54024116      -1.49133024       0.61687857
10
Frame=4 idx=004806 GeodesicLength=0.17408804712377557 rxn_smarts="[O:1]=[C:2]1[O:3][C@@:4]2([H:7])[C:5]([H:8])([H:9])[C@@:6]12[H:10]>>[O:1]=[C:2]1[O:3][C@:4]([C:5][H:8])([H:7])[C:6]1([H:9])[H:10]"
O        2.40624581      -0.89965142      -0.03329249
C        1.38317637      -0.31428664       0.04805852
O        1.17106673       1.01745205       0.20988579
C       -0.26008602       0.79398569       0.38749758
C       -0.98824783       0.63536166      -0.84412161
C       -0.08826006      -0.68541629       0.05549317
H       -0.65350155       1.14302743       1.33273623
H       -2.03498080       0.41469737      -0.59528661
H       -0.39887099      -0.61549252      -1.18199055
H       -0.53654166      -1.48967732       0.62101996
10
Frame=5 idx=004806 GeodesicLength=0.21759095336954665 rxn_smarts="[O:1]=[C:2]1[O:3][C@@:4]2([H:7])[C:5]([H:8])([H:9])[C@@:6]12[H:10]>>[O:1]=[C:2]1[O:3][C@:4]([C:5][H:8])([H:7])[C:6]1([H:9])[H:10]"
O        2.40670823      -0.89988688      -0.02726204
C        1.38286329      -0.31534951       0.05042452
O        1.17033832       1.01759098       0.20698085
C       -0.25960736       0.79431193       0.38896606
C       -0.99013289       0.63054123      -0.84028250
C       -0.08817607      -0.68601294       0.05344652
H       -0.65107120       1.14361700       1.33504265
H       -2.03862868       0.41825102      -0.59363499
H       -0.39945582      -0.61503149      -1.19897019
H       -0.53283781      -1.48803134       0.62528913
10
Frame=6 idx=004806 GeodesicLength=0.26109591658730097 rxn_smarts="[O:1]=[C:2]1[O:3][C@@:4]2([H:7])[C:5]([H:8])([H:9])[C@@:6]12[H:10]>>[O:1]=[C:2]1[O:3][C@:4]([C:5][H:8])([H:7])[C:6]1([H:9])[H:10]"
O        2.40714731      -0.90011097      -0.02141882
C        1.38253721      -0.31643648       0.05283855
O        1.16959724       1.01768427       0.20414610
C       -0.25914190       0.79462715       0.39044902
C       -0.99197539       0.62556800      -0.83642453
C       -0.08808790      -0.68666104       0.05157810
H       -0.64869255       1.14427655       1.33731183
H       -2.04221379       0.42179542      -0.59206910
H       -0.40003796      -0.61434941      -1.21610730
H       -0.52913226      -1.48639349       0.62969616
10
Frame=7 idx=004806 GeodesicLength=0.30458663276616615 rxn_smarts="[O:1]=[C:2]1[O:3][C@@:4]2([H:7])[C:5]([H:8])([H:9])[C@@:6]12[H:10]>>[O:1]=[C:2]1[O:3][C@:4]([C:5][H:8])([H:7])[C:6]1([H:9])[H:10]"
O        2.40756576      -0.90032530      -0.01574625
C        1.38219892      -0.31754733       0.05529494
O        1.16884215       1.01773104       0.20137322
C       -0.25869042       0.79492843       0.39194443
C       -0.99377985       0.62043750      -0.83254722
C       -0.08799359      -0.68736618       0.04988569
H       -0.64636106       1.14500439       1.33954509
H       -2.04573877       0.42533398      -0.59058958
H       -0.40062415      -0.61343103      -1.23340692
H       -0.52541899      -1.48476550       0.63424659
10
Frame=8 idx=004806 GeodesicLength=0.34806139572933953 rxn_smarts="[O:1]=[C:2]1[O:3][C@@:4]2([H:7])[C:5]([H:8])([H:9])[C@@:6]12[H:10]>>[O:1]=[C:2]1[O:3][C@:4]([C:5][H:8])([H:7])[C:6]1([H:9])[H:10]"
O        2.40796436      -0.90053021      -0.01027115
C        1.38184834      -0.31868444       0.05780330
O        1.16807293       1.01773002       0.19867076
C       -0.25825438       0.79521611       0.39345317
C       -0.99554273       0.61514541      -0.82865145
C       -0.08789406      -0.68813141       0.04838130
H       -0.64408352       1.14580622       1.34173951
H       -2.04919814       0.42886366      -0.58920807
H       -0.40121151      -0.61226638      -1.25087068
H       -0.52170128      -1.48314899       0.63895330
10
Frame=9 idx=004806 GeodesicLength=0.39155075247462223 rxn_smarts="[O:1]=[C:2]1[O:3][C@@:4]2([H:7])[C:5]([H:8])([H:9])[C@@:6]12[H:10]>>[O:1]=[C:2]1[O:3][C@:4]([C:5][H:8])([H:7])[C:6]1([H:9])[H:10]"
O        2.40834071      -0.90072981      -0.00501212
C        1.38148369      -0.31985046       0.06036881
O        1.16728933       1.01767883       0.19604292
C       -0.25783508       0.79548916       0.39497547
C       -0.99726196       0.60968777      -0.82473143
C       -0.08779079      -0.68895591       0.04707903
H       -0.64186516       1.14668539       1.34389005
H       -2.05258659       0.43237335      -0.58793076
H       -0.40179162      -0.61083820      -1.26851498
H       -0.51798251      -1.48154013       0.64383301
10
Frame=10 idx=004806 GeodesicLength=0.43502474022284665 rxn_smarts="[O:1]=[C:2]1[O:3][C@@:4]2([H:7])[C:5]([H:8])([H:9])[C@@:6]12[H:10]>>[O:1]=[C:2]1[O:3][C@:4]([C:5][H:8])([H:7])[C:6]1([H:9])[H:10]"
O        2.40870360      -0.90092590       0.00004817
C        1.38110881      -0.32104648       0.06298560
O        1.16649019       1.01757876       0.19347890
C       -0.25743468       0.79574567       0.39650930
C       -0.99894325       0.60405993      -0.82078991
C       -0.08768254      -0.68985017       0.04597516
H       -0.63970373       1.14764291       1.34599980
H       -2.05590948       0.43587172      -0.58675779
H       -0.40237088      -0.60913027      -1.28634144
H       -0.51425804      -1.47994619       0.64889221
10
Frame=11 idx=004806 GeodesicLength=0.47849714897903606 rxn_smarts="[O:1]=[C:2]1[O:3][C@@:4]2([H:7])[C:5]([H:8])([H:9])[C@@:6]12[H:10]>>[O:1]=[C:2]1[O:3][C@:4]([C:5][H:8])([H:7])[C:6]1([H:9])[H:10]"
O        2.40904794      -0.90112223       0.00492587
C        1.38071957      -0.32227268       0.06565069
O        1.16567097       1.01742528       0.19097139
C       -0.25705247       0.79597981       0.39805267
C       -1.00059461       0.59825204      -0.81681960
C       -0.08757219      -0.69081206       0.04507197
H       -0.63758603       1.14867574       1.34806494
H       -2.05916398       0.43934896      -0.58568935
H       -0.40294871      -0.60711599      -1.30436908
H       -0.51052047      -1.47835888       0.65414051
10
Frame=12 idx=004806 GeodesicLength=0.5219497536754623 rxn_smarts="[O:1]=[C:2]1[O:3][C@@:4]2([H:7])[C:5]([H:8])([H:9])[C@@:6]12[H:10]>>[O:1]=[C:2]1[O:3][C@:4]([C:5][H:8])([H:7])[C:6]1([H:9])[H:10]"
O        2.40937059      -0.90131795       0.00959113
C        1.38031644      -0.32352958       0.06837229
O        1.16483381       1.01721738       0.18853210
C       -0.25668844       0.79619292       0.39960547
C       -1.00220415       0.59226088      -0.81282464
C       -0.08745506      -0.69184791       0.04438048
H       -0.63552579       1.14978904       1.35008283
H       -2.06234395       0.44280299      -0.58473799
H       -0.40353159      -0.60478829      -1.32259187
H       -0.50677187      -1.47677948       0.65959020
10
Frame=13 idx=004806 GeodesicLength=0.5654034632883685 rxn_smarts="[O:1]=[C:2]1[O:3][C@@:4]2([H:7])[C:5]([H:8])([H:9])[C@@:6]12[H:10]>>[O:1]=[C:2]1[O:3][C@:4]([C:5][H:8])([H:7])[C:6]1([H:9])[H:10]"
O        2.40968288      -0.90152300       0.01405998
C        1.37990364      -0.32482208       0.07114612
O        1.16397826       1.01695646       0.18614541
C       -0.25634670       0.79638426       0.40116566
C       -1.00378495       0.58608014      -0.80879898
C       -0.08733561      -0.69296281       0.04390540
H       -0.63351975       1.15098514       1.35205338
H       -2.06545488       0.44622929      -0.58390176
H       -0.40411139      -0.60211530      -1.34103310
H       -0.50301150      -1.47521210       0.66525789
10
Frame=14 idx=004806 GeodesicLength=0.6088524526452909 rxn_smarts="[O:1]=[C:2]1[O:3][C@@:4]2([H:7])[C:5]([H:8])([H:9])[C@@:6]12[H:10]>>[O:1]=[C:2]1[O:3][C@:4]([C:5][H:8])([H:7])[C:6]1([H:9])[H:10]"
O        2.40998224      -0.90173871       0.01836202
C        1.37947893      -0.32615111       0.07396297
O        1.16309954       1.01663791       0.18379641
C       -0.25602608       0.79654657       0.40272929
C       -1.00534331       0.57970047      -0.80473774
C       -0.08721165      -0.69416259       0.04364583
H       -0.63155974       1.15226248       1.35397129
H       -2.06849792       0.44962855      -0.58317502
H       -0.40469406      -0.59906728      -1.35970544
H       -0.49922795      -1.47365629       0.67115040
10
Frame=15 idx=004806 GeodesicLength=0.6523002528659776 rxn_smarts="[O:1]=[C:2]1[O:3][C@@:4]2([H:7])[C:5]([H:8])([H:9])[C@@:6]12[H:10]>>[O:1]=[C:2]1[O:3][C@:4]([C:5][H:8])([H:7])[C:6]1([H:9])[H:10]"
O        2.41026951      -0.90196909       0.02252481
C        1.37904259      -0.32751820       0.07681131
O        1.16219704       1.01625946       0.18147199
C       -0.25572588       0.79667526       0.40429224
C       -1.00688769       0.57311015      -0.80063668
C       -0.08708326      -0.69545233       0.04360216
H       -0.62963817       1.15361781       1.35583438
H       -2.07147684       0.45299727      -0.58255407
H       -0.40528242      -0.59561157      -1.37862629
H       -0.49541489      -1.47210876       0.67728014
10
Frame=16 idx=004806 GeodesicLength=0.695746041994407 rxn_smarts="[O:1]=[C:2]1[O:3][C@@:4]2([H:7])[C:5]([H:8])([H:9])[C@@:6]12[H:10]>>[O:1]=[C:2]1[O:3][C@:4]([C:5][H:8])([H:7])[C:6]1([H:9])[H:10]"
O        2.41054697      -0.90221744       0.02653722
C        1.37859589      -0.32892648       0.07969475
O        1.16127073       1.01581978       0.17917072
C       -0.25544747       0.79676961       0.40585316
C       -1.00841670       0.56630121      -0.79649420
C       -0.08695051      -0.69683849       0.04378586
H       -0.62776209       1.15505669       1.35763784
H       -2.07438718       0.45633124      -0.58204537
H       -0.40587692      -0.59172363      -1.39780241
H       -0.49157273      -1.47057249       0.68366243
