13
Frame=0 idx=007932 GeodesicLength=0.0 rxn_smarts="[C:1]1([H:8])([H:9])[C:2]([H:10])([H:11])[c:3]2[n:4][c:5]([H:12])[c:6]([H:13])[n:7]21>>[C:1]1([H:8])([H:9])[C:2]([H:11])=[C:3]2[N:4]=[C:5]([H:12])[C:6]([H:10])([H:13])[N:7]12"
C       -1.41702608      -0.61328507       0.28243107
C       -1.09581205       0.86876807       0.20436657
C        0.09707003       0.61841104       0.91159763
N        1.32808903       1.16573438       0.74023472
C        1.83675476       0.33420761      -0.13975769
C        0.88450879      -0.66952019      -0.53260631
N        0.02969818      -0.77017347       0.59928247
H       -1.72716887      -1.12329013      -0.62664553
H       -2.03013512      -0.92556843       1.12616237
H       -0.14669297       0.41076908      -0.96843846
H       -1.71261320       1.75255643       0.10682288
H        2.81258055       0.49470886      -0.58138271
H        1.14074692      -1.54331814      -1.12206705
13
Frame=1 idx=007932 GeodesicLength=0.060883223999959137 rxn_smarts="[C:1]1([H:8])([H:9])[C:2]([H:10])([H:11])[c:3]2[n:4][c:5]([H:12])[c:6]([H:13])[n:7]21>>[C:1]1([H:8])([H:9])[C:2]([H:11])=[C:3]2[N:4]=[C:5]([H:12])[C:6]([H:10])([H:13])[N:7]12"
C       -1.41998764      -0.61203741       0.28758480
C       -1.10152156       0.87191697       0.19475543
C        0.09418785       0.62212476       0.90181198
N        1.32989061       1.16280713       0.74169363
C        1.84492508       0.32987392      -0.13512938
C        0.89069948      -0.66824367      -0.54198508
N        0.03123392      -0.76393648       0.58788478
H       -1.73738712      -1.12338027      -0.61845122
H       -2.02767881      -0.92561162       1.13475444
H       -0.15527238       0.41588489      -0.99473326
H       -1.72802249       1.75137435       0.12707485
H        2.82568948       0.48765049      -0.56645129
H        1.15324358      -1.54842307      -1.11880967
13
Frame=2 idx=007932 GeodesicLength=0.121736155327243 rxn_smarts="[C:1]1([H:8])([H:9])[C:2]([H:10])([H:11])[c:3]2[n:4][c:5]([H:12])[c:6]([H:13])[n:7]21>>[C:1]1([H:8])([H:9])[C:2]([H:11])=[C:3]2[N:4]=[C:5]([H:12])[C:6]([H:10])([H:13])[N:7]12"
C       -1.42290662      -0.61070121       0.29285797
C       -1.10730981       0.87508143       0.18514831
C        0.09130365       0.62582259       0.89196321
N        1.33163475       1.15973651       0.74339780
C        1.85310388       0.32539242      -0.13015999
C        0.89702547      -0.66688234      -0.55138660
N        0.03267084      -0.75767987       0.57625452
H       -1.74766234      -1.12337727      -0.61003702
H       -2.02504703      -0.92557455       1.14350898
H       -0.16420190       0.42093552      -1.02133003
H       -1.74270220       1.74967663       0.14691585
H        2.83849671       0.48077671      -0.55145663
H        1.16559459      -1.55320656      -1.11567638
13
Frame=3 idx=007932 GeodesicLength=0.182560102583507 rxn_smarts="[C:1]1([H:8])([H:9])[C:2]([H:10])([H:11])[c:3]2[n:4][c:5]([H:12])[c:6]([H:13])[n:7]21>>[C:1]1([H:8])([H:9])[C:2]([H:11])=[C:3]2[N:4]=[C:5]([H:12])[C:6]([H:10])([H:13])[N:7]12"
C       -1.42577519      -0.60928807       0.29826763
C       -1.11317942       0.87824746       0.17557787
C        0.08842272       0.62949190       0.88206703
N        1.33332018       1.15650424       0.74537391
C        1.86128974       0.32074714      -0.12482328
C        0.90348931      -0.66542376      -0.56081059
N        0.03401174      -0.75141203       0.56438671
H       -1.75799367      -1.12328435      -0.60138426
H       -2.02221912      -0.92547751       1.15244325
H       -0.17351299       0.42592931      -1.04821991
H       -1.75663628       1.74751585       0.16623353
H        2.85099915       0.47409820      -0.53640065
H        1.17778384      -1.55764839      -1.11271125
13
Frame=4 idx=007932 GeodesicLength=0.24336022454828682 rxn_smarts="[C:1]1([H:8])([H:9])[C:2]([H:10])([H:11])[c:3]2[n:4][c:5]([H:12])[c:6]([H:13])[n:7]21>>[C:1]1([H:8])([H:9])[C:2]([H:11])=[C:3]2[N:4]=[C:5]([H:12])[C:6]([H:10])([H:13])[N:7]12"
C       -1.42858614      -0.60780865       0.30382682
C       -1.11913097       0.88140130       0.16607056
C        0.08555022       0.63312153       0.87213603
N        1.33494604       1.15309169       0.74764671
C        1.86948352       0.31591893      -0.11909094
C        0.91009567      -0.66385999      -0.57025617
N        0.03525882      -0.74514107       0.55227737
H       -1.76838115      -1.12310557      -0.59247755
H       -2.01918078      -0.92533563       1.16157263
H       -0.18323166       0.43087132      -1.07539928
H       -1.76982216       1.74495001       0.18493750
H        2.86319784       0.46763369      -0.52129112
H        1.18980076      -1.56173756      -1.10995257
13
Frame=5 idx=007932 GeodesicLength=0.30413841200221214 rxn_smarts="[C:1]1([H:8])([H:9])[C:2]([H:10])([H:11])[c:3]2[n:4][c:5]([H:12])[c:6]([H:13])[n:7]21>>[C:1]1([H:8])([H:9])[C:2]([H:11])=[C:3]2[N:4]=[C:5]([H:12])[C:6]([H:10])([H:13])[N:7]12"
C       -1.43132792      -0.60627171       0.30954794
C       -1.12516770       0.88453204       0.15664186
C        0.08269092       0.63670974       0.86217106
N        1.33650902       1.14948943       0.75022618
C        1.87768405       0.31089220      -0.11294367
C        0.91685025      -0.66217602      -0.57972679
N        0.03641547      -0.73886575       0.53991554
H       -1.77881797      -1.12284924      -0.58329886
H       -2.01590443      -0.92516289       1.17090932
H       -0.19339562       0.43576421      -1.10287217
H       -1.78227976       1.74203435       0.20297087
H        2.87510506       0.46136378      -0.50610323
H        1.20163862      -1.56546014      -1.10743806
13
Frame=6 idx=007932 GeodesicLength=0.3648980700585516 rxn_smarts="[C:1]1([H:8])([H:9])[C:2]([H:10])([H:11])[c:3]2[n:4][c:5]([H:12])[c:6]([H:13])[n:7]21>>[C:1]1([H:8])([H:9])[C:2]([H:11])=[C:3]2[N:4]=[C:5]([H:12])[C:6]([H:10])([H:13])[N:7]12"
C       -1.43399134      -0.60468491       0.31543663
C       -1.13128773       0.88762962       0.14730191
C        0.07984901       0.64025364       0.85217430
N        1.33800769       1.14568518       0.75312613
C        1.88589195       0.30564923      -0.10635979
C        0.92376092      -0.66036309      -0.58922218
N        0.03748505      -0.73258724       0.52729477
H       -1.78930119      -1.12252236      -0.57383569
H       -2.01237505      -0.92496577       1.18046400
H       -0.20403163       0.44060149      -1.13064802
H       -1.79403247       1.73882446       0.22029454
H        2.88673185       0.45529047      -0.49082826
H        1.21329292      -1.56881072      -1.10519834
13
Frame=7 idx=007932 GeodesicLength=0.42564087472993345 rxn_smarts="[C:1]1([H:8])([H:9])[C:2]([H:10])([H:11])[c:3]2[n:4][c:5]([H:12])[c:6]([H:13])[n:7]21>>[C:1]1([H:8])([H:9])[C:2]([H:11])=[C:3]2[N:4]=[C:5]([H:12])[C:6]([H:10])([H:13])[N:7]12"
C       -1.43656249      -0.60305291       0.32150066
C       -1.13749406       0.89068608       0.13805381
C        0.07702884       0.64375793       0.84213767
N        1.33943835       1.14167120       0.75635018
C        1.89410609       0.30016855      -0.09931682
C        0.93083664      -0.65840617      -0.59874552
N        0.03846944      -0.72629908       0.51440064
H       -1.79982092      -1.12213362      -0.56407176
H       -2.00856186      -0.92475111       1.19024477
H       -0.21517829       0.44538046      -1.15873950
H       -1.80511505       1.73537071       0.23688623
H        2.89808993       0.44938890      -0.47543603
H        1.22476340      -1.57178092      -1.10326434
13
Frame=8 idx=007932 GeodesicLength=0.486368907662315 rxn_smarts="[C:1]1([H:8])([H:9])[C:2]([H:10])([H:11])[c:3]2[n:4][c:5]([H:12])[c:6]([H:13])[n:7]21>>[C:1]1([H:8])([H:9])[C:2]([H:11])=[C:3]2[N:4]=[C:5]([H:12])[C:6]([H:10])([H:13])[N:7]12"
C       -1.43902786      -0.60137970       0.32774475
C       -1.14378848       0.89369462       0.12889571
C        0.07423422       0.64722979       0.83205015
N        1.34079704       1.13744232       0.75989972
C        1.90232393       0.29443400      -0.09179965
C        0.93808764      -0.65629179      -0.60830032
N        0.03937180      -0.71999328       0.50121985
H       -1.81036904      -1.12169290      -0.55399142
H       -2.00443862      -0.92452060       1.20025985
H       -0.22687106       0.45009357      -1.18716391
H       -1.81556684       1.73171728       0.25274026
H        2.90919710       0.44363053      -0.45988833
H        1.23605017      -1.57436385      -1.10166665
13
Frame=9 idx=007932 GeodesicLength=0.5470843975451303 rxn_smarts="[C:1]1([H:8])([H:9])[C:2]([H:10])([H:11])[c:3]2[n:4][c:5]([H:12])[c:6]([H:13])[n:7]21>>[C:1]1([H:8])([H:9])[C:2]([H:11])=[C:3]2[N:4]=[C:5]([H:12])[C:6]([H:10])([H:13])[N:7]12"
C       -1.44137582      -0.59966774       0.33417322
C       -1.15017446       0.89664846       0.11982396
C        0.07146731       0.65067909       0.82189557
N        1.34207860       1.13299468       0.76377257
C        1.91054280       0.28842967      -0.08379453
C        0.94552097      -0.65400676      -0.61789382
N        0.04019433      -0.71366018       0.48773780
H       -1.82094076      -1.12120973      -0.54357944
H       -1.99998240      -0.92427741       1.21052134
H       -0.23914210       0.45473769      -1.21594079
H       -1.82542920       1.72790163       0.26785955
H        2.92008559       0.43798691      -0.44414338
H        1.24715515      -1.57655632      -1.10043204
13
Frame=10 idx=007932 GeodesicLength=0.6077880887342285 rxn_smarts="[C:1]1([H:8])([H:9])[C:2]([H:10])([H:11])[c:3]2[n:4][c:5]([H:12])[c:6]([H:13])[n:7]21>>[C:1]1([H:8])([H:9])[C:2]([H:11])=[C:3]2[N:4]=[C:5]([H:12])[C:6]([H:10])([H:13])[N:7]12"
C       -1.44358687      -0.59791767       0.34078748
C       -1.15665532       0.89954525       0.11082690
C        0.06873310       0.65411970       0.81165489
N        1.34327770       1.12832622       0.76796354
C        1.91875651       0.28213843      -0.07528754
C        0.95315029      -0.65153122      -0.62753226
N        0.04094065      -0.70728463       0.47393346
H       -1.83151988      -1.12069463      -0.53281806
H       -1.99515369      -0.92401543       1.22103254
H       -0.25204428       0.45929524      -1.24509427
H       -1.83474669       1.72395941       0.28226313
H        2.93076505       0.43240771      -0.42814036
H        1.25808343      -1.57834839      -1.09958946
13
Frame=11 idx=007932 GeodesicLength=0.6684823548501794 rxn_smarts="[C:1]1([H:8])([H:9])[C:2]([H:10])([H:11])[c:3]2[n:4][c:5]([H:12])[c:6]([H:13])[n:7]21>>[C:1]1([H:8])([H:9])[C:2]([H:11])=[C:3]2[N:4]=[C:5]([H:12])[C:6]([H:10])([H:13])[N:7]12"
C       -1.44564446      -0.59612965       0.34758936
C       -1.16323581       0.90238241       0.10189466
C        0.06603466       0.65756708       0.80130738
N        1.34438822       1.12343582       0.77246703
C        1.92695638       0.27554970      -0.06627415
C        0.96098603      -0.64884675      -0.63722397
N        0.04161417      -0.70085104       0.45978800
H       -1.84209513      -1.12015826      -0.52169191
H       -1.98992115      -0.92373142       1.23180269
H       -0.26562397       0.46375225      -1.27464972
H       -1.84356199       1.71991929       0.29597185
H        2.94126278       0.42684256      -0.41181514
H        1.26884025      -1.57973198      -1.09916608
13
Frame=12 idx=007932 GeodesicLength=0.7291685871169697 rxn_smarts="[C:1]1([H:8])([H:9])[C:2]([H:10])([H:11])[c:3]2[n:4][c:5]([H:12])[c:6]([H:13])[n:7]21>>[C:1]1([H:8])([H:9])[C:2]([H:11])=[C:3]2[N:4]=[C:5]([H:12])[C:6]([H:10])([H:13])[N:7]12"
C       -1.44752803      -0.59430200       0.35457959
C       -1.16992260       0.90515888       0.09301551
C        0.06337593       0.66104052       0.79082685
N        1.34540340       1.11832454       0.77727300
C        1.93513210       0.26864764      -0.05674438
C        0.96904111      -0.64593039      -0.64697852
N        0.04221837      -0.69433967       0.44527702
H       -1.85265146      -1.11961009      -0.51018155
H       -1.98424162      -0.92341970       1.24283761
H       -0.27994057       0.46809030      -1.30463368
H       -1.85191791       1.71580499       0.30901086
H        2.95159897       0.42122907      -0.39509090
H        1.27943231      -1.58069407      -1.09919142
13
Frame=13 idx=007932 GeodesicLength=0.7898473531225596 rxn_smarts="[C:1]1([H:8])([H:9])[C:2]([H:10])([H:11])[c:3]2[n:4][c:5]([H:12])[c:6]([H:13])[n:7]21>>[C:1]1([H:8])([H:9])[C:2]([H:11])=[C:3]2[N:4]=[C:5]([H:12])[C:6]([H:10])([H:13])[N:7]12"
C       -1.44921791      -0.59243294       0.36176050
C       -1.17672382       0.90787288       0.08417619
C        0.06075937       0.66456065       0.78018545
N        1.34631423       1.11299302       0.78237265
C        1.94327024       0.26142225      -0.04669525
C        0.97732574      -0.64276030      -0.65680713
N        0.04275593      -0.68773029       0.43037709
H       -1.86317540      -1.11906205      -0.49826722
H       -1.97807791      -0.92307508       1.25414839
H       -0.29504706       0.47229508      -1.33507263
H       -1.85985620       1.71163561       0.32140579
H        2.96180773       0.41550316      -0.37788730
H        1.28986506      -1.58122200      -1.09969653
13
Frame=14 idx=007932 GeodesicLength=0.8505168483408904 rxn_smarts="[C:1]1([H:8])([H:9])[C:2]([H:10])([H:11])[c:3]2[n:4][c:5]([H:12])[c:6]([H:13])[n:7]21>>[C:1]1([H:8])([H:9])[C:2]([H:11])=[C:3]2[N:4]=[C:5]([H:12])[C:6]([H:10])([H:13])[N:7]12"
C       -1.45068663      -0.59051839       0.36913310
C       -1.18365085       0.91052563       0.07536524
C        0.05818923       0.66815430       0.76935003
N        1.34711136       1.10744817       0.78774964
C        1.95135372       0.25386794      -0.03613107
C        0.98585328      -0.63930448      -0.66672577
N        0.04323193      -0.68099524       0.41505621
H       -1.87364569      -1.11852448      -0.48592585
H       -1.97137115      -0.92269080       1.26574235
H       -0.31101961       0.47633883      -1.36599555
H       -1.86741980       1.70742617       0.33318732
H        2.97190633       0.40956507      -0.36008879
H        1.30014790      -1.58129273      -1.10071686
13
Frame=15 idx=007932 GeodesicLength=0.9111772836841621 rxn_smarts="[C:1]1([H:8])([H:9])[C:2]([H:10])([H:11])[c:3]2[n:4][c:5]([H:12])[c:6]([H:13])[n:7]21>>[C:1]1([H:8])([H:9])[C:2]([H:11])=[C:3]2[N:4]=[C:5]([H:12])[C:6]([H:10])([H:13])[N:7]12"
C       -1.45190983      -0.58855338       0.37669673
C       -1.19071343       0.91311820       0.06657065
C        0.05566894       0.67184623       0.75828915
N        1.34778394       1.10168982       0.79339584
C        1.95936349       0.24597250      -0.02504762
C        0.99463751      -0.63553636      -0.67674494
N        0.04364870      -0.67410975       0.39928603
H       -1.88404353      -1.11800644      -0.47313800
H       -1.96407568      -0.92225822       1.27762727
H       -0.32792617       0.48019533      -1.39742873
H       -1.87464610       1.70318987       0.34438368
H        2.98192217       0.40333981      -0.34160672
H        1.31029000      -1.58088759      -1.10228331
13
Frame=16 idx=007932 GeodesicLength=0.971826063983984 rxn_smarts="[C:1]1([H:8])([H:9])[C:2]([H:10])([H:11])[c:3]2[n:4][c:5]([H:12])[c:6]([H:13])[n:7]21>>[C:1]1([H:8])([H:9])[C:2]([H:11])=[C:3]2[N:4]=[C:5]([H:12])[C:6]([H:10])([H:13])[N:7]12"
C       -1.45285952      -0.58653218       0.38445127
C       -1.19792415       0.91565251       0.05778016
C        0.05320164       0.67566585       0.74696688
N        1.34831942       1.09572183       0.79929900
C        1.96727614       0.23772720      -0.01344651
C        1.00369200      -0.63142341      -0.68687850
N        0.04400953      -0.66704412       0.38303366
H       -1.89434565      -1.11751760      -0.45988086
H       -1.95613244      -0.92176952       1.28981033
H       -0.34584459       0.48383367      -1.42939822
H       -1.88157199       1.69893718       0.35502378
H        2.99187793       0.39672944      -0.32233015
H        1.32030168      -1.57998084      -1.10443086
