13
Frame=0 idx=011634 GeodesicLength=0.0 rxn_smarts="[C:1]([C@:2]12[C:3]([H:11])([H:12])[C@@:4]1([H:13])[C:5](=[O:6])[O:7]2)([H:8])([H:9])[H:10]>>[C:1]([C@:2]1([H:11])[C@:4]([C:3][H:12])([H:13])[C:5](=[O:6])[O:7]1)([H:8])([H:9])[H:10]"
C       -1.49622992      -0.63550610       0.08390361
C       -0.19302739       0.04450015       0.37440413
C        0.61834110       1.65005608      -0.15677671
C        0.90310056       0.27468472      -0.64649570
C        1.75789049      -0.50656115       0.33052733
O        2.84280133      -0.95726089       0.41612337
O        0.73283108      -0.60157225       1.26032255
H       -2.11415961      -0.68148743       0.98037578
H       -1.31775837      -1.65017171      -0.27347072
H       -2.03874393      -0.07998805      -0.68154865
H       -0.34173566       1.12159941       0.84416007
H       -0.15246039       2.03948409      -0.84668687
H        0.79915073      -0.01777692      -1.68483816
13
Frame=1 idx=011634 GeodesicLength=0.05280801953526787 rxn_smarts="[C:1]([C@:2]12[C:3]([H:11])([H:12])[C@@:4]1([H:13])[C:5](=[O:6])[O:7]2)([H:8])([H:9])[H:10]>>[C:1]([C@:2]1([H:11])[C@:4]([C:3][H:12])([H:13])[C:5](=[O:6])[O:7]1)([H:8])([H:9])[H:10]"
C       -1.49584031      -0.63573307       0.08264860
C       -0.19415039       0.04646335       0.37511507
C        0.61111955       1.64545496      -0.15871148
C        0.90346935       0.27229025      -0.64813987
C        1.75677737      -0.50644309       0.33113504
O        2.84313524      -0.95411781       0.41751149
O        0.73081068      -0.60729341       1.25782731
H       -2.11355807      -0.68467970       0.97919705
H       -1.31701540      -1.64957616      -0.27687124
H       -2.04044617      -0.08034569      -0.68144229
H       -0.33321486       1.13429689       0.86035328
H       -0.15178357       2.04146248      -0.85246383
H        0.80069656      -0.02177901      -1.68615913
13
Frame=2 idx=011634 GeodesicLength=0.10561553562258555 rxn_smarts="[C:1]([C@:2]12[C:3]([H:11])([H:12])[C@@:4]1([H:13])[C:5](=[O:6])[O:7]2)([H:8])([H:9])[H:10]>>[C:1]([C@:2]1([H:11])[C@:4]([C:3][H:12])([H:13])[C:5](=[O:6])[O:7]1)([H:8])([H:9])[H:10]"
C       -1.49550393      -0.63602265       0.08136278
C       -0.19532256       0.04832834       0.37578889
C        0.60374889       1.64080897      -0.16060380
C        0.90380882       0.26991459      -0.64978693
C        1.75561458      -0.50633113       0.33173298
O        2.84344385      -0.95087869       0.41896333
O        0.72875257      -0.61297977       1.25530488
H       -2.11300927      -0.68783953       0.97798367
H       -1.31632784      -1.64905927      -0.28024328
H       -2.04217543      -0.08080428      -0.68140541
H       -0.32417324       1.14713544       0.87655971
H       -0.15108756       2.04347070      -0.85817059
H        0.80223110      -0.02574270      -1.68748624
13
Frame=3 idx=011634 GeodesicLength=0.15842239882129044 rxn_smarts="[C:1]([C@:2]12[C:3]([H:11])([H:12])[C@@:4]1([H:13])[C:5](=[O:6])[O:7]2)([H:8])([H:9])[H:10]>>[C:1]([C@:2]1([H:11])[C@:4]([C:3][H:12])([H:13])[C:5](=[O:6])[O:7]1)([H:8])([H:9])[H:10]"
C       -1.49522180      -0.63638189       0.08004469
C       -0.19654904       0.05009490       0.37642622
C        0.59622683       1.63611960      -0.16244999
C        0.90411564       0.26756156      -0.65143448
C        1.75439709      -0.50622613       0.33232146
O        2.84371822      -0.94755179       0.42047571
O        0.72665535      -0.61862263       1.25276149
H       -2.11251622      -0.69097454       0.97673370
H       -1.31568957      -1.64862830      -0.28358521
H       -2.04393225      -0.08137366      -0.68144223
H       -0.31458882       1.16012987       0.89276802
H       -0.15036726       2.04551494      -0.86380147
H        0.80375181      -0.02966194      -1.68881790
13
Frame=4 idx=011634 GeodesicLength=0.21122915503771666 rxn_smarts="[C:1]([C@:2]12[C:3]([H:11])([H:12])[C@@:4]1([H:13])[C:5](=[O:6])[O:7]2)([H:8])([H:9])[H:10]>>[C:1]([C@:2]1([H:11])[C@:4]([C:3][H:12])([H:13])[C:5](=[O:6])[O:7]1)([H:8])([H:9])[H:10]"
C       -1.49499523      -0.63681845       0.07869279
C       -0.19783535       0.05176314       0.37702795
C        0.58855125       1.63138902      -0.16424614
C        0.90438668       0.26523546      -0.65308008
C        1.75312004      -0.50612830       0.33290120
O        2.84394899      -0.94414721       0.42204435
O        0.72451733      -0.62421237       1.25020450
H       -2.11208273      -0.69409324       0.97544521
H       -1.31509428      -1.64829132      -0.28689537
H       -2.04571736      -0.08206481      -0.68155765
H       -0.30443835       1.17329635       0.90896633
H       -0.14961747       2.04760193      -0.86935014
H        0.80525649      -0.03353021      -1.69015296
13
Frame=5 idx=011634 GeodesicLength=0.2640345019815754 rxn_smarts="[C:1]([C@:2]12[C:3]([H:11])([H:12])[C@@:4]1([H:13])[C:5](=[O:6])[O:7]2)([H:8])([H:9])[H:10]>>[C:1]([C@:2]1([H:11])[C@:4]([C:3][H:12])([H:13])[C:5](=[O:6])[O:7]1)([H:8])([H:9])[H:10]"
C       -1.49482399      -0.63733904       0.07730529
C       -0.19918701       0.05333265       0.37759413
C        0.58071817       1.62661778      -0.16598858
C        0.90461715       0.26293974      -0.65472053
C        1.75177683      -0.50603986       0.33347256
O        2.84412599      -0.94067271       0.42366756
O        0.72233708      -0.62974073       1.24763964
H       -2.11170956      -0.69720382       0.97411514
H       -1.31453394      -1.64805471      -0.29017263
H       -2.04753068      -0.08288651      -0.68175520
H       -0.29369717       1.18665059       0.92514031
H       -0.14883398       2.04973762      -0.87480956
H        0.80674111      -0.03734101      -1.69148814
13
Frame=6 idx=011634 GeodesicLength=0.3168340810571375 rxn_smarts="[C:1]([C@:2]12[C:3]([H:11])([H:12])[C@@:4]1([H:13])[C:5](=[O:6])[O:7]2)([H:8])([H:9])[H:10]>>[C:1]([C@:2]1([H:11])[C@:4]([C:3][H:12])([H:13])[C:5](=[O:6])[O:7]1)([H:8])([H:9])[H:10]"
C       -1.49470852      -0.63795409       0.07588097
C       -0.20061004       0.05480445       0.37812536
C        0.57272566       1.62181060      -0.16767004
C        0.90480590       0.26068233      -0.65635141
C        1.75036326      -0.50595704       0.33403902
O        2.84423314      -0.93715725       0.42533039
O        0.72011327      -0.63518783       1.24507959
H       -2.11140088      -0.70031670       0.97274153
H       -1.31399734      -1.64792949      -0.29341116
H       -2.04937079      -0.08385534      -0.68204161
H       -0.28234953       1.20021197       0.94126995
H       -0.14800996       2.05192974      -0.88017126
H        0.80820584      -0.04108135      -1.69282132
13
Frame=7 idx=011634 GeodesicLength=0.3696341766754764 rxn_smarts="[C:1]([C@:2]12[C:3]([H:11])([H:12])[C@@:4]1([H:13])[C:5](=[O:6])[O:7]2)([H:8])([H:9])[H:10]>>[C:1]([C@:2]1([H:11])[C@:4]([C:3][H:12])([H:13])[C:5](=[O:6])[O:7]1)([H:8])([H:9])[H:10]"
C       -1.49465290      -0.63866960       0.07441762
C       -0.20211101       0.05617651       0.37862305
C        0.56457173       1.61696685      -0.16928931
C        0.90494679       0.25846274      -0.65797289
C        1.74887214      -0.50588751       0.33459755
O        2.84427123      -0.93358297       0.42704441
O        0.71784183      -0.64055711       1.24252740
H       -2.11116154      -0.70344213       0.97132282
H       -1.31348599      -1.64792162      -0.29661681
H       -2.05124273      -0.08497549      -0.68241885
H       -0.27035406       1.21399690       0.95734651
H       -0.14714067       2.05418533      -0.88542741
H        0.80964519      -0.04475190      -1.69415409
13
Frame=8 idx=011634 GeodesicLength=0.4224290834021533 rxn_smarts="[C:1]([C@:2]12[C:3]([H:11])([H:12])[C@@:4]1([H:13])[C:5](=[O:6])[O:7]2)([H:8])([H:9])[H:10]>>[C:1]([C@:2]1([H:11])[C@:4]([C:3][H:12])([H:13])[C:5](=[O:6])[O:7]1)([H:8])([H:9])[H:10]"
C       -1.49465508      -0.63949379       0.07291238
C       -0.20369589       0.05744977       0.37908592
C        0.55625138       1.61208624      -0.17083904
C        0.90503627       0.25628746      -0.65957871
C        1.74729849      -0.50582886       0.33514975
O        2.84422468      -0.92997625       0.42879573
O        0.71552243      -0.64583044       1.23999272
H       -2.11099429      -0.70658268       0.96985156
H       -1.31298557      -1.64803977      -0.29977974
H       -2.05314192      -0.08626414      -0.68289691
H       -0.25769108       1.22802394       0.97334777
H       -0.14622539       2.05650829      -0.89056237
H        0.81105597      -0.04833977      -1.69547907
13
Frame=9 idx=011634 GeodesicLength=0.4752202773220697 rxn_smarts="[C:1]([C@:2]12[C:3]([H:11])([H:12])[C@@:4]1([H:13])[C:5](=[O:6])[O:7]2)([H:8])([H:9])[H:10]>>[C:1]([C@:2]1([H:11])[C@:4]([C:3][H:12])([H:13])[C:5](=[O:6])[O:7]1)([H:8])([H:9])[H:10]"
C       -1.49471824      -0.64043702       0.07136389
C       -0.20537193       0.05862304       0.37951583
C        0.54776351       1.60717361      -0.17231407
C        0.90507041       0.25416093      -0.66116760
C        1.74563542      -0.50578436       0.33569644
O        2.84408545      -0.92634192       0.43058457
O        0.71315127      -0.65100052       1.23748502
H       -2.11090473      -0.70975211       0.96832755
H       -1.31249232      -1.64829560      -0.30290088
H       -2.05507077      -0.08773269      -0.68348023
H       -0.24432731       1.24231410       0.98925509
H       -0.14525609       2.05891047      -0.89556675
H        0.81243533      -0.05183793      -1.69679886
13
Frame=10 idx=011634 GeodesicLength=0.5280070684628342 rxn_smarts="[C:1]([C@:2]12[C:3]([H:11])([H:12])[C@@:4]1([H:13])[C:5](=[O:6])[O:7]2)([H:8])([H:9])[H:10]>>[C:1]([C@:2]1([H:11])[C@:4]([C:3][H:12])([H:13])[C:5](=[O:6])[O:7]1)([H:8])([H:9])[H:10]"
C       -1.49484438      -0.64150673       0.06976951
C       -0.20714646       0.05969533       0.37991295
C        0.53910390       1.60222789      -0.17370928
C        0.90504395       0.25208574      -0.66273592
C        1.74387596      -0.50575759       0.33623735
O        2.84384685      -0.92268127       0.43241164
O        0.71072479      -0.65605970       1.23501158
H       -2.11089621      -0.71296185       0.96674680
H       -1.31200036      -1.64869498      -0.30598219
H       -2.05703173      -0.08938986      -0.68417191
H       -0.23022687       1.25688661       1.00504805
H       -0.14422869       2.06139654      -0.90042836
H        0.81377924      -0.05524010      -1.69811023
13
Frame=11 idx=011634 GeodesicLength=0.5807895688660497 rxn_smarts="[C:1]([C@:2]12[C:3]([H:11])([H:12])[C@@:4]1([H:13])[C:5](=[O:6])[O:7]2)([H:8])([H:9])[H:10]>>[C:1]([C@:2]1([H:11])[C@:4]([C:3][H:12])([H:13])[C:5](=[O:6])[O:7]1)([H:8])([H:9])[H:10]"
C       -1.49503602      -0.64271141       0.06812670
C       -0.20902732       0.06066540       0.38027794
C        0.53026867       1.59724931      -0.17501895
C        0.90495157       0.25006494      -0.66428040
C        1.74201264      -0.50575267       0.33677237
O        2.84350187      -0.91899536       0.43427828
O        0.70823886      -0.66100047       1.23258063
H       -2.11097308      -0.71622462       0.96510578
H       -1.31150432      -1.64924548      -0.30902559
H       -2.05902735      -0.09124543      -0.68497570
H       -0.21535080       1.27176209       1.02070426
H       -0.14313829       2.06397309      -0.90513405
H        0.81508359      -0.05853939      -1.69941127
13
Frame=12 idx=011634 GeodesicLength=0.6335680509466076 rxn_smarts="[C:1]([C@:2]12[C:3]([H:11])([H:12])[C@@:4]1([H:13])[C:5](=[O:6])[O:7]2)([H:8])([H:9])[H:10]>>[C:1]([C@:2]1([H:11])[C@:4]([C:3][H:12])([H:13])[C:5](=[O:6])[O:7]1)([H:8])([H:9])[H:10]"
C       -1.49529603      -0.64405986       0.06643273
C       -0.21102280       0.06153173       0.38061153
C        0.52125361       1.59223790      -0.17623671
C        0.90478753       0.24810151      -0.66579757
C        1.74003754      -0.50577436       0.33730124
O        2.84304375      -0.91528356       0.43618687
O        0.70568885      -0.66581567       1.23020065
H       -2.11113999      -0.71955390       0.96340068
H       -1.31099909      -1.64995473      -0.31203363
H       -2.06106055      -0.09330916      -0.68589528
H       -0.19965697       1.28696192       1.03619890
H       -0.14197985       2.06664683      -0.90966941
H        0.81634399      -0.06172867      -1.70070000
13
Frame=13 idx=011634 GeodesicLength=0.6863426985565808 rxn_smarts="[C:1]([C@:2]12[C:3]([H:11])([H:12])[C@@:4]1([H:13])[C:5](=[O:6])[O:7]2)([H:8])([H:9])[H:10]>>[C:1]([C@:2]1([H:11])[C@:4]([C:3][H:12])([H:13])[C:5](=[O:6])[O:7]1)([H:8])([H:9])[H:10]"
C       -1.49562727      -0.64556137       0.06468466
C       -0.21314164       0.06229271       0.38091463
C        0.51205393       1.58719386      -0.17735525
C        0.90454576       0.24619882      -0.66728354
C        1.73794235      -0.50582740       0.33782393
O        2.84246503      -0.91154594       0.43813958
O        0.70306980      -0.67049772       1.22788068
H       -2.11140210      -0.72296361       0.96162714
H       -1.31047903      -1.65083094      -0.31500842
H       -2.06313390      -0.09559187      -0.68693515
H       -0.18310019       1.30250841       1.05150427
H       -0.14074848       2.06942492      -0.91401836
H        0.81755575      -0.06479987      -1.70197418
13
Frame=14 idx=011634 GeodesicLength=0.7391141901198802 rxn_smarts="[C:1]([C@:2]12[C:3]([H:11])([H:12])[C@@:4]1([H:13])[C:5](=[O:6])[O:7]2)([H:8])([H:9])[H:10]>>[C:1]([C@:2]1([H:11])[C@:4]([C:3][H:12])([H:13])[C:5](=[O:6])[O:7]1)([H:8])([H:9])[H:10]"
C       -1.49603308      -0.64722564       0.06287937
C       -0.21539313       0.06294635       0.38118826
C        0.50266445       1.58211717      -0.17836664
C        0.90421980       0.24436011      -0.66873423
C        1.73571826      -0.50591727       0.33834035
O        2.84175857      -0.90778043       0.44014007
O        0.70037606      -0.67503937       1.22563006
H       -2.11176494      -0.72646901       0.95978059
H       -1.30993898      -1.65188231      -0.31795315
H       -2.06525064      -0.09810421      -0.68809943
H       -0.16563115       1.31842469       1.06658971
H       -0.13943913       2.07231465      -0.91816337
H        0.81871392      -0.06774472      -1.70323158
13
Frame=15 idx=011634 GeodesicLength=0.7918884487218725 rxn_smarts="[C:1]([C@:2]12[C:3]([H:11])([H:12])[C@@:4]1([H:13])[C:5](=[O:6])[O:7]2)([H:8])([H:9])[H:10]>>[C:1]([C@:2]1([H:11])[C@:4]([C:3][H:12])([H:13])[C:5](=[O:6])[O:7]1)([H:8])([H:9])[H:10]"
C       -1.49651967      -0.64906596       0.06101393
C       -0.21778763       0.06349106       0.38143506
C        0.49308174       1.57701160      -0.17926098
C        0.90380442       0.24259165      -0.67014645
C        1.73335785      -0.50604625       0.33885154
O        2.84091648      -0.90399058       0.44218800
O        0.69760147      -0.67943178       1.22346215
H       -2.11224021      -0.73008591       0.95785808
H       -1.30937671      -1.65312350      -0.32086741
H       -2.06741391      -0.10086416      -0.68939862
H       -0.14719586       1.33473757       1.08142566
H       -0.13804370       2.07532700      -0.92208645
H        0.81981574      -0.07055074      -1.70447450
13
Frame=16 idx=011634 GeodesicLength=0.8446464130848081 rxn_smarts="[C:1]([C@:2]12[C:3]([H:11])([H:12])[C@@:4]1([H:13])[C:5](=[O:6])[O:7]2)([H:8])([H:9])[H:10]>>[C:1]([C@:2]1([H:11])[C@:4]([C:3][H:12])([H:13])[C:5](=[O:6])[O:7]1)([H:8])([H:9])[H:10]"
C       -1.49707939      -0.65108680       0.05908445
C       -0.22033518       0.06392469       0.38165316
C        0.48328805       1.57187041      -0.18002486
C        0.90328589       0.24089570      -0.67150816
C        1.73084633      -0.50622196       0.33935727
O        2.83992015      -0.90018631       0.44428296
O        0.69474166      -0.68366499       1.22137812
H       -2.11282035      -0.73381889       0.95584462
H       -1.30876937      -1.65455485      -0.32374511
H       -2.06961418      -0.10388132      -0.69083668
H       -0.12774809       1.35146519       1.09595719
H       -0.13656667       2.07846453      -0.92575911
H        0.82085117      -0.07320541      -1.70568385
