16
Frame=0 idx=005153 GeodesicLength=0.0 rxn_smarts="[C:1]([C:2]([C:3](=[O:4])[C:5]([C:6]([H:14])([H:15])[H:16])([H:12])[H:13])([H:10])[H:11])([H:7])([H:8])[H:9]>>[C:1]([H:7])([H:8])([H:9])[H:10].[C:2](=[C:3]=[O:4])([C:5]([C:6]([H:14])([H:15])[H:16])([H:12])[H:13])[H:11]"
C        2.86084907      -0.01276912       0.12464343
C        0.58728328       0.17535423      -1.00311059
C       -0.15089392      -0.56601863      -0.07680302
O        0.05550168      -1.37813581       0.79459315
C       -1.59553375      -0.19759017      -0.55061088
C       -2.41043801       0.26588261       0.64844498
H        3.10068773       1.04334564       0.22155579
H        2.36063879      -0.39599047       1.00913704
H        3.76102626      -0.59107990      -0.07919947
H        2.22793764      -0.17355241      -0.78604239
H        0.63965415       1.24995798      -0.81690857
H       -1.98842258      -1.11755878      -0.98661926
H       -1.60021348       0.55033198      -1.35071775
H       -2.01506312       1.19744868       1.05825570
H       -3.44800186       0.43889713       0.35938069
H       -2.38501188      -0.48852293       1.43400119
16
Frame=1 idx=005153 GeodesicLength=0.11093447353470214 rxn_smarts="[C:1]([C:2]([C:3](=[O:4])[C:5]([C:6]([H:14])([H:15])[H:16])([H:12])[H:13])([H:10])[H:11])([H:7])([H:8])[H:9]>>[C:1]([H:7])([H:8])([H:9])[H:10].[C:2](=[C:3]=[O:4])([C:5]([C:6]([H:14])([H:15])[H:16])([H:12])[H:13])[H:11]"
C        2.88975719      -0.04140893       0.07846373
C        0.59242415       0.20887427      -0.93357885
C       -0.13593267      -0.48652402       0.03359751
O        0.07009430      -1.27823928       0.92100329
C       -1.57594717      -0.16955390      -0.53612358
C       -2.47576774       0.22768712       0.62588947
H        3.20653005       0.99834478       0.11699140
H        2.42401648      -0.34823795       1.01074531
H        3.74052577      -0.68970840      -0.12871062
H        2.21917951      -0.19983627      -0.82569238
H        0.65852138       1.28845497      -0.78795389
H       -1.91700306      -1.09068773      -1.01282352
H       -1.58403173       0.59684181      -1.31844529
H       -2.14127517       1.16149372       1.08214903
H       -3.50178355       0.37090662       0.28374798
H       -2.46930774      -0.54840682       1.39074043
16
Frame=2 idx=005153 GeodesicLength=0.21844297919251066 rxn_smarts="[C:1]([C:2]([C:3](=[O:4])[C:5]([C:6]([H:14])([H:15])[H:16])([H:12])[H:13])([H:10])[H:11])([H:7])([H:8])[H:9]>>[C:1]([H:7])([H:8])([H:9])[H:10].[C:2](=[C:3]=[O:4])([C:5]([C:6]([H:14])([H:15])[H:16])([H:12])[H:13])[H:11]"
C        2.90699188      -0.07188820       0.03649335
C        0.59748950       0.24699917      -0.86624277
C       -0.12217526      -0.40057167       0.13845137
O        0.08526262      -1.16842370       1.04365417
C       -1.55375949      -0.13992300      -0.52115238
C       -2.52884639       0.18632733       0.60207981
H        3.29928500       0.94245063       0.01240193
H        2.48163625      -0.30028531       1.01003413
H        3.70181315      -0.78915264      -0.16719899
H        2.19990257      -0.22522953      -0.86169332
H        0.67616143       1.32996164      -0.76227439
H       -1.84104108      -1.06038599      -1.03437299
H       -1.57066727       0.64359592      -1.28594794
H       -2.25916719       1.12055272       1.09846794
H       -3.54172924       0.29667480       0.21205707
H       -2.53115649      -0.61070217       1.34524299
16
Frame=3 idx=005153 GeodesicLength=0.324127097096146 rxn_smarts="[C:1]([C:2]([C:3](=[O:4])[C:5]([C:6]([H:14])([H:15])[H:16])([H:12])[H:13])([H:10])[H:11])([H:7])([H:8])[H:9]>>[C:1]([H:7])([H:8])([H:9])[H:10].[C:2](=[C:3]=[O:4])([C:5]([C:6]([H:14])([H:15])[H:16])([H:12])[H:13])[H:11]"
C        2.91347041      -0.10395596      -0.00085799
C        0.60250087       0.28836788      -0.80263853
C       -0.10972756      -0.31054585       0.23601134
O        0.10029157      -1.05034975       1.16144038
C       -1.53001658      -0.10914434      -0.50664804
C       -2.56952922       0.14256712       0.57781222
H        3.37674211       0.87679137      -0.08797603
H        2.53397267      -0.25476499       1.00658196
H        3.64875671      -0.88503719      -0.19466795
H        2.17128626      -0.24976013      -0.89422448
H        0.69238882       1.37321563      -0.74106426
H       -1.76380485      -1.02658664      -1.05260044
H       -1.56052216       0.69033264      -1.25435632
H       -2.36613371       1.07472367       1.10845719
H       -3.56837778       0.21858337       0.14545824
H       -2.57129758      -0.67443683       1.29927270
16
Frame=4 idx=005153 GeodesicLength=0.42874041727612394 rxn_smarts="[C:1]([C:2]([C:3](=[O:4])[C:5]([C:6]([H:14])([H:15])[H:16])([H:12])[H:13])([H:10])[H:11])([H:7])([H:8])[H:9]>>[C:1]([H:7])([H:8])([H:9])[H:10].[C:2](=[C:3]=[O:4])([C:5]([C:6]([H:14])([H:15])[H:16])([H:12])[H:13])[H:11]"
C        2.90944802      -0.13707840      -0.03330593
C        0.60743369       0.33354843      -0.74286790
C       -0.09836565      -0.21646729       0.32597201
O        0.11501037      -0.92404143       1.27321754
C       -1.50463684      -0.07708573      -0.49331755
C       -2.59782816       0.09600159       0.55359773
H        3.44079930       0.80052327      -0.18523680
H        2.58023583      -0.21068297       1.00044318
H        3.57935528      -0.97901851      -0.21006894
H        2.13380291      -0.27223013      -0.92320259
H        0.70716346       1.41856826      -0.72341855
H       -1.68540891      -0.98862738      -1.06944258
H       -1.55325179       0.73722918      -1.22369934
H       -2.46201211       1.02325117       1.11345165
H       -3.58189138       0.13561400       0.08420925
H       -2.58985403      -0.73950405       1.25366882
16
Frame=5 idx=005153 GeodesicLength=0.5333145590143655 rxn_smarts="[C:1]([C:2]([C:3](=[O:4])[C:5]([C:6]([H:14])([H:15])[H:16])([H:12])[H:13])([H:10])[H:11])([H:7])([H:8])[H:9]>>[C:1]([H:7])([H:8])([H:9])[H:10].[C:2](=[C:3]=[O:4])([C:5]([C:6]([H:14])([H:15])[H:16])([H:12])[H:13])[H:11]"
C        2.89603769      -0.17073782      -0.06050519
C        0.61223776       0.38046696      -0.68811044
C       -0.08807900      -0.12046753       0.40751383
O        0.12883144      -0.79172901       1.37795107
C       -1.47846920      -0.04423526      -0.48179573
C       -2.61414180       0.04769755       0.53011359
H        3.49006733       0.71603705      -0.27482653
H        2.62082150      -0.17135758       0.99191123
H        3.49773665      -1.06712214      -0.21515346
H        2.08902476      -0.29237613      -0.94905625
H        0.72037365       1.46416445      -0.71080834
H       -1.60857951      -0.94679471      -1.08606500
H       -1.54916982       0.78395184      -1.19459744
H       -2.54509686       0.96688520       1.11483089
H       -3.58325555       0.05014003       0.02900039
H       -2.58833904      -0.80452289       1.20959738
16
Frame=6 idx=005153 GeodesicLength=0.6385684417349243 rxn_smarts="[C:1]([C:2]([C:3](=[O:4])[C:5]([C:6]([H:14])([H:15])[H:16])([H:12])[H:13])([H:10])[H:11])([H:7])([H:8])[H:9]>>[C:1]([H:7])([H:8])([H:9])[H:10].[C:2](=[C:3]=[O:4])([C:5]([C:6]([H:14])([H:15])[H:16])([H:12])[H:13])[H:11]"
C        2.87407357      -0.20440213      -0.08234382
C        0.61689834       0.42879884      -0.63866136
C       -0.07867803      -0.02287876       0.48067662
O        0.14165907      -0.65486514       1.47433139
C       -1.45181755      -0.01032421      -0.47250332
C       -2.61887508      -0.00245909       0.50776288
H        3.52610222       0.62326444      -0.35752031
H        2.65534316      -0.13572618       0.98147703
H        3.40355228      -1.14975307      -0.20884380
H        2.03793387      -0.30987366      -0.97188714
H        0.73233627       1.50964945      -0.70316918
H       -1.53416070      -0.90025380      -1.10429456
H       -1.54836243       0.83109541      -1.16648653
H       -2.61530431       0.90502889       1.11436067
H       -3.57308210      -0.03787072      -0.02000490
H       -2.56761858      -0.86943030       1.16710634
16
Frame=7 idx=005153 GeodesicLength=0.744498750424359 rxn_smarts="[C:1]([C:2]([C:3](=[O:4])[C:5]([C:6]([H:14])([H:15])[H:16])([H:12])[H:13])([H:10])[H:11])([H:7])([H:8])[H:9]>>[C:1]([H:7])([H:8])([H:9])[H:10].[C:2](=[C:3]=[O:4])([C:5]([C:6]([H:14])([H:15])[H:16])([H:12])[H:13])[H:11]"
C        2.84469668      -0.23772618      -0.09891007
C        0.62124598       0.47682020      -0.59487686
C       -0.07017769       0.07474974       0.54534215
O        0.15300934      -0.51551676       1.56173100
C       -1.42516905       0.02437130      -0.46567652
C       -2.61278786      -0.05356841       0.48690446
H        3.54865940       0.52443796      -0.43073095
H        2.68387047      -0.10546483       0.96973125
H        3.30050199      -1.22467433      -0.19314917
H        1.98207748      -0.32486625      -0.99220740
H        0.74278510       1.55336188      -0.70095668
H       -1.46369830      -0.84913647      -1.12493441
H       -1.55086346       0.87849033      -1.13921961
H       -2.67227594       0.83842899       1.11321005
H       -3.55240945      -0.12664091      -0.06268032
H       -2.52946469      -0.93306628       1.12642309
16
Frame=8 idx=005153 GeodesicLength=0.8518091870212765 rxn_smarts="[C:1]([C:2]([C:3](=[O:4])[C:5]([C:6]([H:14])([H:15])[H:16])([H:12])[H:13])([H:10])[H:11])([H:7])([H:8])[H:9]>>[C:1]([H:7])([H:8])([H:9])[H:10].[C:2](=[C:3]=[O:4])([C:5]([C:6]([H:14])([H:15])[H:16])([H:12])[H:13])[H:11]"
C        2.80898616      -0.27025941      -0.11039083
C        0.62527869       0.52415566      -0.55653183
C       -0.06234374       0.17196053       0.60205418
O        0.16298189      -0.37529252       1.63984072
C       -1.39900488       0.05979625      -0.46145452
C       -2.59662080      -0.10539469       0.46754013
H        3.55928542       0.42024084      -0.49463709
H        2.70663317      -0.08056104       0.95734230
H        3.18900230      -1.29182051      -0.16866570
H        1.92251161      -0.33693232      -1.01039315
H        0.75211058       1.59497989      -0.70361583
H       -1.39824752      -0.79333393      -1.14886595
H       -1.55691190       0.92600210      -1.11242589
H       -2.71612225       0.76718162       1.11230987
H       -3.52219051      -0.21591155      -0.09941335
H       -2.47534821      -0.99481092       1.08730695
16
Frame=9 idx=005153 GeodesicLength=0.9602236690631392 rxn_smarts="[C:1]([C:2]([C:3](=[O:4])[C:5]([C:6]([H:14])([H:15])[H:16])([H:12])[H:13])([H:10])[H:11])([H:7])([H:8])[H:9]>>[C:1]([H:7])([H:8])([H:9])[H:10].[C:2](=[C:3]=[O:4])([C:5]([C:6]([H:14])([H:15])[H:16])([H:12])[H:13])[H:11]"
C        2.76807126      -0.30171032      -0.11714828
C        0.62872726       0.56952112      -0.52333626
C       -0.05515296       0.26752249       0.65115009
O        0.17133327      -0.23601745       1.70863603
C       -1.37371610       0.09564930      -0.45980572
C       -2.57126601      -0.15708623       0.44966564
H        3.55846326       0.31276155      -0.54805800
H        2.72370578      -0.06182850       0.94490203
H        3.07207251      -1.35007219      -0.13755374
H        1.86053566      -0.34628192      -1.02689687
H        0.75997776       1.63322327      -0.71071879
H       -1.33877182      -0.73327783      -1.17616531
H       -1.56645442       0.97312203      -1.08581292
H       -2.74695403       0.69225207       1.11224971
H       -3.48342442      -0.30425189      -0.13054267
H       -2.40714698      -1.05352548       1.04943505
16
Frame=10 idx=005153 GeodesicLength=1.0701798848447936 rxn_smarts="[C:1]([C:2]([C:3](=[O:4])[C:5]([C:6]([H:14])([H:15])[H:16])([H:12])[H:13])([H:10])[H:11])([H:7])([H:8])[H:9]>>[C:1]([H:7])([H:8])([H:9])[H:10].[C:2](=[C:3]=[O:4])([C:5]([C:6]([H:14])([H:15])[H:16])([H:12])[H:13])[H:11]"
C        2.72279873      -0.33198157      -0.11958314
C        0.63160829       0.61269276      -0.49489650
C       -0.04841573       0.36121182       0.69341850
O        0.17822677      -0.09882799       1.76859581
C       -1.34965661       0.13201526      -0.46063138
C       -2.53751011      -0.20849129       0.43304901
H        3.54737885       0.20249863      -0.59189000
H        2.73550433      -0.04851586       0.93297948
H        2.95035908      -1.39977206      -0.10032083
H        1.79685464      -0.35317726      -1.04206815
H        0.76681191       1.66802000      -0.72165324
H       -1.28585807      -0.66883499      -1.20709548
H       -1.57959456       1.01986119      -1.05880409
H       -2.76527434       0.61369912       1.11362472
H       -3.43695451      -0.39147146      -0.15677733
H       -2.32627869      -1.10892629       1.01205262
16
Frame=11 idx=005153 GeodesicLength=1.1817104925660316 rxn_smarts="[C:1]([C:2]([C:3](=[O:4])[C:5]([C:6]([H:14])([H:15])[H:16])([H:12])[H:13])([H:10])[H:11])([H:7])([H:8])[H:9]>>[C:1]([H:7])([H:8])([H:9])[H:10].[C:2](=[C:3]=[O:4])([C:5]([C:6]([H:14])([H:15])[H:16])([H:12])[H:13])[H:11]"
C        2.67393360      -0.36104840      -0.11815575
C        0.63361502       0.65314702      -0.47066575
C       -0.04207375       0.45246171       0.72953164
O        0.18368006       0.03503340       1.82024376
C       -1.32711801       0.16878057      -0.46371546
C       -2.49604898      -0.25908190       0.41737071
H        3.52657235       0.09060745      -0.62633463
H        2.74233171      -0.04041466       0.92193762
H        2.82573773      -1.44092374      -0.05829778
H        1.73207645      -0.35805723      -1.05621311
H        0.77236410       1.69895653      -0.73563567
H       -1.23983715      -0.60041034      -1.24117781
H       -1.59629355       1.06577698      -1.03100165
H       -2.77138968       0.53228625       1.11653622
H       -3.38340499      -0.47685667      -0.17887286
H       -2.23414490      -1.16025697       0.97445052
16
Frame=12 idx=005153 GeodesicLength=1.2951148889506283 rxn_smarts="[C:1]([C:2]([C:3](=[O:4])[C:5]([C:6]([H:14])([H:15])[H:16])([H:12])[H:13])([H:10])[H:11])([H:7])([H:8])[H:9]>>[C:1]([H:7])([H:8])([H:9])[H:10].[C:2](=[C:3]=[O:4])([C:5]([C:6]([H:14])([H:15])[H:16])([H:12])[H:13])[H:11]"
C        2.62204192      -0.38891561      -0.11336568
C        0.63478058       0.69077851      -0.44999281
C       -0.03595123       0.54113840       0.76028954
O        0.18778710       0.16521082       1.86450095
C       -1.30630097       0.20574823      -0.46879458
C       -2.44760618      -0.30850976       0.40228768
H        3.49681830      -0.02193166      -0.65177825
H        2.74440761      -0.03782087       0.91214596
H        2.69894053      -1.47378604      -0.01312946
H        1.66665517      -0.36085806      -1.06968586
H        0.77692032       1.72600968      -0.75187980
H       -1.20070429      -0.52868508      -1.27759662
H       -1.61639491       1.11009662      -1.00235275
H       -2.76576567       0.44854484       1.12084075
H       -3.32340136      -0.56021249      -0.19758481
H       -2.13222691      -1.20680752       0.93609574
16
Frame=13 idx=005153 GeodesicLength=1.4109812481961126 rxn_smarts="[C:1]([C:2]([C:3](=[O:4])[C:5]([C:6]([H:14])([H:15])[H:16])([H:12])[H:13])([H:10])[H:11])([H:7])([H:8])[H:9]>>[C:1]([H:7])([H:8])([H:9])[H:10].[C:2](=[C:3]=[O:4])([C:5]([C:6]([H:14])([H:15])[H:16])([H:12])[H:13])[H:11]"
C        2.56769580      -0.41560164      -0.10563079
C        0.63484067       0.72543708      -0.43237506
C       -0.02985225       0.62683412       0.78648744
O        0.19094688       0.29024208       1.90209382
C       -1.28749014       0.24293405      -0.47559597
C       -2.39284795      -0.35642067       0.38732805
H        3.45843280      -0.13464986      -0.66955888
H        2.74253016      -0.03930335       0.90364787
H        2.57128365      -1.49887489       0.03530851
H        1.60056755      -0.36238666      -1.08256305
H        0.78034212       1.74933882      -0.76955551
H       -1.16852741      -0.45408352      -1.31567127
H       -1.63978840       1.15258144      -0.97257649
H       -2.74867548       0.36316261       1.12635261
H       -3.25756302      -0.64100689      -0.21390817
H       -2.02189498      -1.24820272       0.89621689
16
Frame=14 idx=005153 GeodesicLength=1.5295926481733413 rxn_smarts="[C:1]([C:2]([C:3](=[O:4])[C:5]([C:6]([H:14])([H:15])[H:16])([H:12])[H:13])([H:10])[H:11])([H:7])([H:8])[H:9]>>[C:1]([H:7])([H:8])([H:9])[H:10].[C:2](=[C:3]=[O:4])([C:5]([C:6]([H:14])([H:15])[H:16])([H:12])[H:13])[H:11]"
C        2.51109206      -0.44121268      -0.09545412
C        0.63378417       0.75718600      -0.41712519
C       -0.02371738       0.70959415       0.80879252
O        0.19307552       0.41045436       1.93395881
C       -1.27066670       0.27996433      -0.48369811
C       -2.33231214      -0.40241283       0.37220348
H        3.41192399      -0.24658926      -0.67981686
H        2.73652050      -0.04565779       0.89659264
H        2.44321906      -1.51657504       0.08494113
H        1.53412185      -0.36222641      -1.09520249
H        0.78267928       1.76902395      -0.78795122
H       -1.14253467      -0.37785876      -1.35400994
H       -1.66609348       1.19211514      -0.94185187
H       -2.72058298       0.27691318       1.13259004
H       -3.18609922      -0.71910525      -0.22846581
H       -1.90440985      -1.28361311       0.85449699
16
Frame=15 idx=005153 GeodesicLength=1.6517783857987225 rxn_smarts="[C:1]([C:2]([C:3](=[O:4])[C:5]([C:6]([H:14])([H:15])[H:16])([H:12])[H:13])([H:10])[H:11])([H:7])([H:8])[H:9]>>[C:1]([H:7])([H:8])([H:9])[H:10].[C:2](=[C:3]=[O:4])([C:5]([C:6]([H:14])([H:15])[H:16])([H:12])[H:13])[H:11]"
C        2.45239493      -0.46585759      -0.08321357
C        0.63151261       0.78617702      -0.40374706
C       -0.01740913       0.78939581       0.82784261
O        0.19436214       0.52557867       1.96088005
C       -1.25586171       0.31663799      -0.49272349
C       -2.26646950      -0.44622756       0.35658680
H        3.35754099      -0.35742139      -0.68343169
H        2.72663950      -0.05643670       0.89097280
H        2.31510428      -1.52747229       0.13523399
H        1.46732235      -0.36044448      -1.10779403
H        0.78387419       1.78538397      -0.80646357
H       -1.12208834      -0.30090183      -1.39166049
H       -1.69500791       1.22808738      -0.91017006
H       -2.68181411       0.19045196       1.13914726
H       -3.10924647      -0.79434100      -0.24197994
H       -1.78085380      -1.31260997       0.81052038
16
Frame=16 idx=005153 GeodesicLength=1.7786325930094615 rxn_smarts="[C:1]([C:2]([C:3](=[O:4])[C:5]([C:6]([H:14])([H:15])[H:16])([H:12])[H:13])([H:10])[H:11])([H:7])([H:8])[H:9]>>[C:1]([H:7])([H:8])([H:9])[H:10].[C:2](=[C:3]=[O:4])([C:5]([C:6]([H:14])([H:15])[H:16])([H:12])[H:13])[H:11]"
C        2.39181165      -0.48961430      -0.06922648
C        0.62802872       0.81261322      -0.39184069
C       -0.01070000       0.86620336       0.84423975
O        0.19511991       0.63540432       1.98370109
C       -1.24308697       0.35266982      -0.50233662
C       -2.19591303      -0.48765898       0.34022612
H        3.29552638      -0.46681102      -0.68127586
H        2.71328568      -0.07120752       0.88680122
H        2.18726767      -1.53213379       0.18582865
H        1.40020486      -0.35702344      -1.12057047
H        0.78394339       1.79884833      -0.82464288
H       -1.10656084      -0.22418687      -1.42786721
H       -1.72618189       1.25991246      -0.87767821
H       -2.63278497       0.10446286       1.14562692
H       -3.02746940      -0.86655544      -0.25508528
H       -1.65249117      -1.33492302       0.76409994
