13
Frame=0 idx=000515 GeodesicLength=0.0 rxn_smarts="[C:1]([n:2]1[c:3]([H:10])[c:4]([H:11])[c:5]([H:12])[c:6]1[H:13])([H:7])([H:8])[H:9]>>[C:1]1([H:7])([H:9])[N:2]2[C@:3]1([H:10])[C:4]([H:11])=[C:5]([H:12])[C:6]2([H:8])[H:13]"
C       -1.58297083      -0.05933007      -0.04207387
N       -0.49392575       0.52198136       0.82543979
C        0.02218633      -0.78823883       0.82361128
C        1.27052488      -0.87334383       0.21141517
C        1.47012831       0.32580293      -0.42456138
C        0.27127110       1.07813612      -0.27338693
H       -2.25198912      -0.73768543       0.48496927
H       -0.44754518       0.39682753      -1.09885259
H       -2.15127560       0.70433510      -0.56390391
H       -0.43746593      -1.52449138       1.46735371
H        1.89411220      -1.75297416       0.16784922
H        2.26760015       0.56884333      -1.11287923
H        0.16934948       2.14013731      -0.46498047
13
Frame=1 idx=000515 GeodesicLength=0.06847798806520422 rxn_smarts="[C:1]([n:2]1[c:3]([H:10])[c:4]([H:11])[c:5]([H:12])[c:6]1[H:13])([H:7])([H:8])[H:9]>>[C:1]1([H:7])([H:9])[N:2]2[C@:3]1([H:10])[C:4]([H:11])=[C:5]([H:12])[C:6]2([H:8])[H:13]"
C       -1.58614864      -0.06338893      -0.03881542
N       -0.49215928       0.51919614       0.81365540
C        0.01944765      -0.79316545       0.81746062
C        1.27251449      -0.87435929       0.20920773
C        1.47421940       0.32533884      -0.42538767
C        0.27406362       1.07885653      -0.28093360
H       -2.26429165      -0.72252074       0.50176459
H       -0.47013027       0.39863668      -1.11586317
H       -2.15959049       0.69239030      -0.56683083
H       -0.43202099      -1.52863781       1.46842568
H        1.90087389      -1.75125638       0.17181395
H        2.28171130       0.57391069      -1.10000235
H        0.18151097       2.14499941      -0.45449495
13
Frame=2 idx=000515 GeodesicLength=0.1369122754055198 rxn_smarts="[C:1]([n:2]1[c:3]([H:10])[c:4]([H:11])[c:5]([H:12])[c:6]1[H:13])([H:7])([H:8])[H:9]>>[C:1]1([H:7])([H:9])[N:2]2[C@:3]1([H:10])[C:4]([H:11])=[C:5]([H:12])[C:6]2([H:8])[H:13]"
C       -1.58934439      -0.06747475      -0.03560532
N       -0.49038256       0.51636979       0.80155625
C        0.01672984      -0.79809236       0.81120313
C        1.27449313      -0.87544164       0.20688203
C        1.47848889       0.32491060      -0.42607984
C        0.27694159       1.07953455      -0.28873313
H       -2.27609838      -0.70709761       0.51835052
H       -0.49352027       0.40053048      -1.13294110
H       -2.16820419       0.68040140      -0.56931120
H       -0.42645199      -1.53260840       1.46949077
H        1.90758059      -1.74956571       0.17580516
H        2.29598364       0.57907138      -1.08651181
H        0.19378408       2.14946226      -0.44410548
13
Frame=3 idx=000515 GeodesicLength=0.20531384658271168 rxn_smarts="[C:1]([n:2]1[c:3]([H:10])[c:4]([H:11])[c:5]([H:12])[c:6]1[H:13])([H:7])([H:8])[H:9]>>[C:1]1([H:7])([H:9])[N:2]2[C@:3]1([H:10])[C:4]([H:11])=[C:5]([H:12])[C:6]2([H:8])[H:13]"
C       -1.59254983      -0.07158250      -0.03244866
N       -0.48859530       0.51349945       0.78913608
C        0.01403576      -0.80301896       0.80483927
C        1.27646768      -0.87658895       0.20444343
C        1.48295526       0.32453164      -0.42660107
C        0.27991949       1.08017189      -0.29677809
H       -2.28739523      -0.69144033       0.53469399
H       -0.51774143       0.40251433      -1.15007312
H       -2.17710999       0.66839279      -0.57133030
H       -0.42075711      -1.53639775       1.47054658
H        1.91423165      -1.74790283       0.17982380
H        2.31038600       0.58430388      -1.07241818
H        0.20615305       2.15351734      -0.43383374
13
Frame=4 idx=000515 GeodesicLength=0.2737047155035519 rxn_smarts="[C:1]([n:2]1[c:3]([H:10])[c:4]([H:11])[c:5]([H:12])[c:6]1[H:13])([H:7])([H:8])[H:9]>>[C:1]1([H:7])([H:9])[N:2]2[C@:3]1([H:10])[C:4]([H:11])=[C:5]([H:12])[C:6]2([H:8])[H:13]"
C       -1.59576159      -0.07570658      -0.02935556
N       -0.48679337       0.51057622       0.77637912
C        0.01136565      -0.80795263       0.79835341
C        1.27843875      -0.87780956       0.20187445
C        1.48763115       0.32420666      -0.42693203
C        0.28301085       1.08076578      -0.30507035
H       -2.29818199      -0.67555081       0.55080973
H       -0.54283302       0.40458365      -1.16725111
H       -2.18630393       0.65639189      -0.57287318
H       -0.41493198      -1.54000806       1.47157522
H        1.92084149      -1.74626196       0.18388868
H        2.32491774       0.58961108      -1.05768863
H        0.21860027       2.15715433      -0.42370975
13
Frame=5 idx=000515 GeodesicLength=0.3420902384757763 rxn_smarts="[C:1]([n:2]1[c:3]([H:10])[c:4]([H:11])[c:5]([H:12])[c:6]1[H:13])([H:7])([H:8])[H:9]>>[C:1]1([H:7])([H:9])[N:2]2[C@:3]1([H:10])[C:4]([H:11])=[C:5]([H:12])[C:6]2([H:8])[H:13]"
C       -1.59896635      -0.07984734      -0.02632958
N       -0.48498183       0.50760737       0.76328367
C        0.00872666      -0.81287787       0.79177042
C        1.28042399      -0.87908730       0.19921679
C        1.49254972       0.32396580      -0.42699599
C        0.28623561       1.08132276      -0.31359422
H       -2.30843133      -0.65947667       0.56663517
H       -0.56880776       0.40674235      -1.18445517
H       -2.19577497       0.64440609      -0.57393311
H       -0.40897552      -1.54341489       1.47260147
H        1.92735882      -1.74467752       0.18792366
H        2.33954617       0.59496553      -1.04235182
H        0.23109679       2.16037169      -0.41377127
13
Frame=6 idx=000515 GeodesicLength=0.41048937430604693 rxn_smarts="[C:1]([n:2]1[c:3]([H:10])[c:4]([H:11])[c:5]([H:12])[c:6]1[H:13])([H:7])([H:8])[H:9]>>[C:1]1([H:7])([H:9])[N:2]2[C@:3]1([H:10])[C:4]([H:11])=[C:5]([H:12])[C:6]2([H:8])[H:13]"
C       -1.60216470      -0.08399574      -0.02337975
N       -0.48315227       0.50457709       0.74982956
C        0.00611743      -0.81781120       0.78505991
C        1.28241895      -0.88043932       0.19643234
C        1.49771909       0.32380644      -0.42678346
C        0.28960810       1.08183552      -0.32235578
H       -2.31814728      -0.64321094       0.58219900
H       -0.59571717       0.40898667      -1.20167777
H       -2.20552240       0.63247844      -0.57448819
H       -0.40288454      -1.54663180       1.47359049
H        1.93382570      -1.74312739       0.19199000
H        2.35427520       0.60037068      -1.02636687
H        0.24362389       2.16316155      -0.40404949
13
Frame=7 idx=000515 GeodesicLength=0.4788923055512613 rxn_smarts="[C:1]([n:2]1[c:3]([H:10])[c:4]([H:11])[c:5]([H:12])[c:6]1[H:13])([H:7])([H:8])[H:9]>>[C:1]1([H:7])([H:9])[N:2]2[C@:3]1([H:10])[C:4]([H:11])=[C:5]([H:12])[C:6]2([H:8])[H:13]"
C       -1.60534771      -0.08815239      -0.02051284
N       -0.48130757       0.50148788       0.73600509
C        0.00354361      -0.82274316       0.77823400
C        1.28443798      -0.88185603       0.19354788
C        1.50316928       0.32375471      -0.42622442
C        0.29314718       1.08230497      -0.33135023
H       -2.32731273      -0.62678597       0.59747202
H       -0.62357900       0.41131477      -1.21889971
H       -2.21553777       0.62061940      -0.57452860
H       -0.39665680      -1.54963883       1.47455718
H        1.94020180      -1.74164350       0.19602044
H        2.36909298       0.60581365      -1.00973022
H        0.25614873       2.16552449      -0.39459059
13
Frame=8 idx=000515 GeodesicLength=0.5473083651380686 rxn_smarts="[C:1]([n:2]1[c:3]([H:10])[c:4]([H:11])[c:5]([H:12])[c:6]1[H:13])([H:7])([H:8])[H:9]>>[C:1]1([H:7])([H:9])[N:2]2[C@:3]1([H:10])[C:4]([H:11])=[C:5]([H:12])[C:6]2([H:8])[H:13]"
C       -1.60851101      -0.09231551      -0.01773855
N       -0.47944605       0.49833338       0.72179026
C        0.00100808      -0.82767540       0.77128578
C        1.28648751      -0.88334109       0.19056033
C        1.50892284       0.32382615      -0.42526553
C        0.29687245       1.08272612      -0.34057989
H       -2.33592032      -0.61021428       0.61246222
H       -0.65243146       0.41372343      -1.23610918
H       -2.22581711       0.60885227      -0.57404004
H       -0.39028963      -1.55242964       1.47549344
H        1.94647924      -1.74023997       0.19999613
H        2.38400526       0.61129429      -0.99241295
H        0.26864020       2.16746024      -0.38544202
13
Frame=9 idx=000515 GeodesicLength=0.6157352350318424 rxn_smarts="[C:1]([n:2]1[c:3]([H:10])[c:4]([H:11])[c:5]([H:12])[c:6]1[H:13])([H:7])([H:8])[H:9]>>[C:1]1([H:7])([H:9])[N:2]2[C@:3]1([H:10])[C:4]([H:11])=[C:5]([H:12])[C:6]2([H:8])[H:13]"
C       -1.61164549      -0.09647683      -0.01506108
N       -0.47756703       0.49511414       0.70718420
C       -0.00148557      -0.83260067       0.76422805
C        1.28858184      -0.88488071       0.18750454
C        1.51501145       0.32404984      -0.42382211
C        0.30080663       1.08310107      -0.35002642
H       -2.34394885      -0.59353416       0.62711892
H       -0.68228892       0.41620974      -1.25329199
H       -2.23634239       0.59719298      -0.57301469
H       -0.38378842      -1.55499298       1.47640419
H        1.95263440      -1.73893875       0.20387533
H        2.39896851       0.61677766      -0.97446351
H        0.28106384       2.16897867      -0.37663543
13
Frame=10 idx=000515 GeodesicLength=0.6841879073861988 rxn_smarts="[C:1]([n:2]1[c:3]([H:10])[c:4]([H:11])[c:5]([H:12])[c:6]1[H:13])([H:7])([H:8])[H:9]>>[C:1]1([H:7])([H:9])[N:2]2[C@:3]1([H:10])[C:4]([H:11])=[C:5]([H:12])[C:6]2([H:8])[H:13]"
C       -1.61475082      -0.10063612      -0.01249368
N       -0.47566828       0.49181969       0.69214855
C       -0.00393512      -0.83752599       0.75703955
C        1.29072550      -0.88648457       0.18436053
C        1.52145131       0.32443367      -0.42185041
C        0.30497305       1.08342014      -0.35970564
H       -2.35139561      -0.57675598       0.64147914
H       -0.71321391       0.41876163      -1.27042915
H       -2.24711757       0.58567999      -0.57143398
H       -0.37714740      -1.55732351       1.47727329
H        1.95867029      -1.73775000       0.20765172
H        2.41401643       0.62227764      -0.95581237
H        0.29339213       2.17008339      -0.36822752
13
Frame=11 idx=000515 GeodesicLength=0.7526661060451424 rxn_smarts="[C:1]([n:2]1[c:3]([H:10])[c:4]([H:11])[c:5]([H:12])[c:6]1[H:13])([H:7])([H:8])[H:9]>>[C:1]1([H:7])([H:9])[N:2]2[C@:3]1([H:10])[C:4]([H:11])=[C:5]([H:12])[C:6]2([H:8])[H:13]"
C       -1.61782005      -0.10479082      -0.01004735
N       -0.47375262       0.48844831       0.67666522
C       -0.00633706      -0.84244482       0.74972715
C        1.29293373      -0.88814248       0.18115829
C        1.52827188       0.32500756      -0.41925936
C        0.30939985       1.08368397      -0.36960690
H       -2.35824478      -0.55990669       0.65551316
H       -0.74523359       0.42136535      -1.28749758
H       -2.25813103       0.57432611      -0.56928467
H       -0.37037196      -1.55940544       1.47810493
H        1.96456198      -1.73670439       0.21126876
H        2.42913478       0.62777402      -0.93648028
H        0.30558887       2.17078932      -0.36026138
13
Frame=12 idx=000515 GeodesicLength=0.8211519125671883 rxn_smarts="[C:1]([n:2]1[c:3]([H:10])[c:4]([H:11])[c:5]([H:12])[c:6]1[H:13])([H:7])([H:8])[H:9]>>[C:1]1([H:7])([H:9])[N:2]2[C@:3]1([H:10])[C:4]([H:11])=[C:5]([H:12])[C:6]2([H:8])[H:13]"
C       -1.62085655      -0.10893772      -0.00773040
N       -0.47181686       0.48498820       0.66069602
C       -0.00869061      -0.84736603       0.74226849
C        1.29521263      -0.88985964       0.17788524
C        1.53548595       0.32577841      -0.41599651
C        0.31411128       1.08387801      -0.37974688
H       -2.36448500      -0.54300299       0.66924050
H       -0.77840240       0.42401993      -1.30447675
H       -2.26938634       0.56317263      -0.56654067
H       -0.36346111      -1.56123539       1.47888011
H        1.97032013      -1.73580760       0.21473089
H        2.44434225       0.63327000      -0.91641785
H        0.31762664       2.17110220      -0.35279219
13
Frame=13 idx=000515 GeodesicLength=0.8896354089031702 rxn_smarts="[C:1]([n:2]1[c:3]([H:10])[c:4]([H:11])[c:5]([H:12])[c:6]1[H:13])([H:7])([H:8])[H:9]>>[C:1]1([H:7])([H:9])[N:2]2[C@:3]1([H:10])[C:4]([H:11])=[C:5]([H:12])[C:6]2([H:8])[H:13]"
C       -1.62385360      -0.11307174      -0.00556176
N       -0.46986532       0.48143275       0.64421642
C       -0.01099481      -0.85228650       0.73466416
C        1.29757885      -0.89162377       0.17457492
C        1.54312288       0.32677911      -0.41195174
C        0.31914243       1.08400196      -0.39010988
H       -2.37010179      -0.52608490       0.68263067
H       -0.81274811       0.42672571      -1.32133859
H       -2.28087055       0.55224104      -0.56319045
H       -0.35642646      -1.56280482       1.47958974
H        1.97593967      -1.73507388       0.21801867
H        2.45959990       0.63872136      -0.89569616
H        0.32947691       2.17104368      -0.34584600
13
Frame=14 idx=000515 GeodesicLength=0.9581107662899235 rxn_smarts="[C:1]([n:2]1[c:3]([H:10])[c:4]([H:11])[c:5]([H:12])[c:6]1[H:13])([H:7])([H:8])[H:9]>>[C:1]1([H:7])([H:9])[N:2]2[C@:3]1([H:10])[C:4]([H:11])=[C:5]([H:12])[C:6]2([H:8])[H:13]"
C       -1.62681863      -0.11719096      -0.00354610
N       -0.46789061       0.47777229       0.62717386
C       -0.01324734      -0.85721003       0.72689164
C        1.30003908      -0.89344060       0.17121315
C        1.55118556       0.32801062      -0.40708656
C        0.32451920       1.08403663      -0.40072855
H       -2.37507860      -0.50915528       0.69572332
H       -0.84834255       0.42945403      -1.33806370
H       -2.29259039       0.54156392      -0.55920219
H       -0.34926371      -1.56409771       1.48022254
H        1.98141086      -1.73453012       0.22108693
H        2.47496703       0.64416665      -0.87418327
H        0.34111011       2.17062053      -0.33950107
13
Frame=15 idx=000515 GeodesicLength=1.026559063652428 rxn_smarts="[C:1]([n:2]1[c:3]([H:10])[c:4]([H:11])[c:5]([H:12])[c:6]1[H:13])([H:7])([H:8])[H:9]>>[C:1]1([H:7])([H:9])[N:2]2[C@:3]1([H:10])[C:4]([H:11])=[C:5]([H:12])[C:6]2([H:8])[H:13]"
C       -1.62975128      -0.12129109      -0.00169911
N       -0.46589416       0.47399462       0.60952523
C       -0.01544789      -0.86214099       0.71893610
C        1.30260938      -0.89530088       0.16782073
C        1.55968733       0.32949214      -0.40131253
C        0.33027747       1.08397223      -0.41160555
H       -2.37939798      -0.49224578       0.70850977
H       -0.88523068       0.43219994      -1.35462308
H       -2.30454147       0.53117642      -0.55455257
H       -0.34198311      -1.56510652       1.48076214
H        1.98674027      -1.73418419       0.22392862
H        2.49042774       0.64958206      -0.85189650
H        0.35250438       2.16985203      -0.33379325
13
Frame=16 idx=000515 GeodesicLength=1.0949661070317145 rxn_smarts="[C:1]([n:2]1[c:3]([H:10])[c:4]([H:11])[c:5]([H:12])[c:6]1[H:13])([H:7])([H:8])[H:9]>>[C:1]1([H:7])([H:9])[N:2]2[C@:3]1([H:10])[C:4]([H:11])=[C:5]([H:12])[C:6]2([H:8])[H:13]"
C       -1.63266146      -0.12536798      -0.00002616
N       -0.46386998       0.47008766       0.59120086
C       -0.01759495      -0.86708288       0.71077033
C        1.30529819      -0.89720946       0.16438565
C        1.56862349       0.33121875      -0.39459641
C        0.33645023       1.08378529      -0.42278303
H       -2.38303536      -0.47536137       0.72103600
H       -0.92348992       0.43493406      -1.37099153
H       -2.31673357       0.52111189      -0.54920150
H       -0.33458186      -1.56581030       1.48119406
H        1.99192148      -1.73406374       0.22649355
H        2.50603483       0.65501281      -0.82867425
H        0.36363889       2.16874528      -0.32880756
