19
Frame=0 idx=008012 GeodesicLength=0.0 rxn_smarts="[C:1]([O:2][C@@:3]([C:4]([H:12])([H:13])[H:14])([C:5]([C:6]([O:7][H:19])([H:17])[H:18])([H:15])[H:16])[H:11])([H:8])([H:9])[H:10]>>[C:1]([O:2][C:4]([H:12])([H:13])[H:14])([H:8])([H:9])[H:10].[C:3]([C:5]([C:6]([O:7][H:19])([H:17])[H:18])([H:15])[H:16])[H:11]"
C       -1.63822757      -0.49445646       0.86719028
O       -0.44448751       0.25992587       0.74809145
C       -0.05733758       0.69806305      -0.71232957
C       -0.59359953       1.98380333       0.82389806
C        1.25370588       0.05119978      -1.06305857
C        1.35342431      -1.46586709      -0.89850759
O        1.48532728      -1.87053872       0.45568341
H       -2.47208400       0.01697014       0.37646112
H       -1.86206284      -0.63319692       1.92532040
H       -1.47932960      -1.46603167       0.39305776
H       -0.86777316       0.28658097      -1.32585164
H        0.37806582       2.45526084       0.82086202
H       -1.00432595       1.91730995       1.84242183
H       -1.28184846       2.47832422       0.15266256
H        2.08497461       0.50766552      -0.51119014
H        1.42167182       0.29930554      -2.11737515
H        0.47328688      -1.94329057      -1.35458260
H        2.23632192      -1.84890928      -1.41798190
H        1.01429768      -1.23211844       0.99522823
19
Frame=1 idx=008012 GeodesicLength=0.05689037492925574 rxn_smarts="[C:1]([O:2][C@@:3]([C:4]([H:12])([H:13])[H:14])([C:5]([C:6]([O:7][H:19])([H:17])[H:18])([H:15])[H:16])[H:11])([H:8])([H:9])[H:10]>>[C:1]([O:2][C:4]([H:12])([H:13])[H:14])([H:8])([H:9])[H:10].[C:3]([C:5]([C:6]([O:7][H:19])([H:17])[H:18])([H:15])[H:16])[H:11]"
C       -1.65742429      -0.49079105       0.87612038
O       -0.45164787       0.24216732       0.74953766
C       -0.07542305       0.68069329      -0.71397676
C       -0.57887536       1.97190022       0.81336498
C        1.24749805       0.05765097      -1.06288535
C        1.37010083      -1.45759438      -0.90006032
O        1.50428211      -1.86237284       0.45339821
H       -2.49039033       0.03772036       0.40266961
H       -1.86905775      -0.63532983       1.93596086
H       -1.51968937      -1.46001523       0.39062518
H       -0.87791701       0.25409565      -1.32743455
H        0.40432747       2.41956938       0.83453019
H       -1.01275493       1.92647448       1.82291330
H       -1.24386602       2.49346546       0.13810634
H        2.07131717       0.52729841      -0.51129844
H        1.41114039       0.31117101      -2.11664766
H        0.49919412      -1.94844684      -1.35961935
H        2.26061647      -1.82567758      -1.41722088
H        1.00856935      -1.24197883       0.99191660
19
Frame=2 idx=008012 GeodesicLength=0.11352475986777188 rxn_smarts="[C:1]([O:2][C@@:3]([C:4]([H:12])([H:13])[H:14])([C:5]([C:6]([O:7][H:19])([H:17])[H:18])([H:15])[H:16])[H:11])([H:8])([H:9])[H:10]>>[C:1]([O:2][C:4]([H:12])([H:13])[H:14])([H:8])([H:9])[H:10].[C:3]([C:5]([C:6]([O:7][H:19])([H:17])[H:18])([H:15])[H:16])[H:11]"
C       -1.67663302      -0.48681057       0.88499123
O       -0.45893516       0.22406378       0.75103878
C       -0.09322369       0.66317012      -0.71533504
C       -0.56433211       1.95941965       0.80291897
C        1.24103453       0.06410367      -1.06282997
C        1.38678291      -1.44891236      -0.90141459
O        1.52373260      -1.85326457       0.45143419
H       -2.50784716       0.05896461       0.42874570
H       -1.87655216      -0.63743420       1.94623560
H       -1.56087698      -1.45321854       0.38823138
H       -0.88753930       0.22153201      -1.32864910
H        0.42922013       2.38304734       0.84864042
H       -1.02054641       1.93559508       1.80282031
H       -1.20448604       2.50739516       0.12351175
H        2.05745155       0.54694353      -0.51201546
H        1.39979522       0.32273739      -2.11615063
H        0.52532736      -1.95325700      -1.36418777
H        2.28461428      -1.80187158      -1.41634307
H        1.00301346      -1.25220351       0.98835733
19
Frame=3 idx=008012 GeodesicLength=0.169907866615965 rxn_smarts="[C:1]([O:2][C@@:3]([C:4]([H:12])([H:13])[H:14])([C:5]([C:6]([O:7][H:19])([H:17])[H:18])([H:15])[H:16])[H:11])([H:8])([H:9])[H:10]>>[C:1]([O:2][C:4]([H:12])([H:13])[H:14])([H:8])([H:9])[H:10].[C:3]([C:5]([C:6]([O:7][H:19])([H:17])[H:18])([H:15])[H:16])[H:11]"
C       -1.69581991      -0.48251697       0.89379005
O       -0.46634922       0.20561916       0.75257994
C       -0.11074013       0.64550933      -0.71642574
C       -0.54997208       1.94637189       0.79256666
C        1.23431524       0.07054999      -1.06289783
C        1.40344742      -1.43981782      -0.90256368
O        1.54357275      -1.84318483       0.44981194
H       -2.52443600       0.08068689       0.45471083
H       -1.88450279      -0.63954881       1.95614016
H       -1.60285344      -1.44556916       0.38583024
H       -0.89664003       0.18889545      -1.32950576
H        0.45271133       2.34576694       0.86316794
H       -1.02767063       1.94464267       1.78216456
H       -1.16374693       2.52002533       0.10893710
H        2.04337321       0.56659448      -0.51334242
H        1.38766347       0.33396599      -2.11588971
H        0.55167890      -1.95770928      -1.36830555
H        2.30830392      -1.77750199      -1.41531060
H        0.99766492      -1.26277926       0.98454186
19
Frame=4 idx=008012 GeodesicLength=0.22604782104399046 rxn_smarts="[C:1]([O:2][C@@:3]([C:4]([H:12])([H:13])[H:14])([C:5]([C:6]([O:7][H:19])([H:17])[H:18])([H:15])[H:16])[H:11])([H:8])([H:9])[H:10]>>[C:1]([O:2][C:4]([H:12])([H:13])[H:14])([H:8])([H:9])[H:10].[C:3]([C:5]([C:6]([O:7][H:19])([H:17])[H:18])([H:15])[H:16])[H:11]"
C       -1.71494941      -0.47791528       0.90250361
O       -0.47389005       0.18683933       0.75414560
C       -0.12797324       0.62772847      -0.71727107
C       -0.53579726       1.93276925       0.78231458
C        1.22734064       0.07698207      -1.06309387
C        1.42006816      -1.43030879      -0.90350078
O        1.56368448      -1.83211559       0.44855002
H       -2.54013550       0.10286668       0.48058938
H       -1.89286598      -0.64171683       1.96566704
H       -1.64557060      -1.43699347       0.38337747
H       -0.90521962       0.15619451      -1.33001573
H        0.47477648       2.30779945       0.87808086
H       -1.03409935       1.95358887       1.76096981
H       -1.12169863       2.53126963       0.09444106
H        2.02907748       0.58624290      -0.51527850
H        1.37477506       0.34481929      -2.11586970
H        0.57823868      -1.96178961      -1.37199436
H        2.33167277      -1.75258131      -1.41408219
H        0.99256589      -1.27367956       0.98046675
19
Frame=5 idx=008012 GeodesicLength=0.28195788904383323 rxn_smarts="[C:1]([O:2][C@@:3]([C:4]([H:12])([H:13])[H:14])([C:5]([C:6]([O:7][H:19])([H:17])[H:18])([H:15])[H:16])[H:11])([H:8])([H:9])[H:10]>>[C:1]([O:2][C:4]([H:12])([H:13])[H:14])([H:8])([H:9])[H:10].[C:3]([C:5]([C:6]([O:7][H:19])([H:17])[H:18])([H:15])[H:16])[H:11]"
C       -1.73398439      -0.47301370       0.91111711
O       -0.48155802       0.16773157       0.75571900
C       -0.14492461       0.60984646      -0.71789367
C       -0.52180835       1.91862535       0.77216925
C        1.22011070       0.08339234      -1.06342203
C        1.43661570      -1.42038438      -0.90421872
O        1.58394320      -1.82004854       0.44766416
H       -2.55492100       0.12547696       0.50640514
H       -1.90160044      -0.64398289       1.97480396
H       -1.68896862      -1.42741861       0.38083170
H       -0.91327871       0.12343985      -1.33019023
H        0.49539998       2.26921211       0.89334040
H       -1.03980571       1.96240717       1.73926080
H       -1.07840106       2.54104690       0.08008496
H        2.01455821       0.60587937      -0.51782094
H        1.36116137       0.35526118      -2.11609348
H        0.60499338      -1.96548293      -1.37527628
H        2.35470475      -1.72712312      -1.41261572
H        0.98776363      -1.28486510       0.97613459
19
Frame=6 idx=008012 GeodesicLength=0.337655809462782 rxn_smarts="[C:1]([O:2][C@@:3]([C:4]([H:12])([H:13])[H:14])([C:5]([C:6]([O:7][H:19])([H:17])[H:18])([H:15])[H:16])[H:11])([H:8])([H:9])[H:10]>>[C:1]([O:2][C:4]([H:12])([H:13])[H:14])([H:8])([H:9])[H:10].[C:3]([C:5]([C:6]([O:7][H:19])([H:17])[H:18])([H:15])[H:16])[H:11]"
C       -1.75288732      -0.46782335       0.91961488
O       -0.48935369       0.14830518       0.75728282
C       -0.16159544       0.59188415      -0.71831671
C       -0.50800685       1.90395575       0.76213694
C        1.21262712       0.08977298      -1.06388485
C        1.45305786      -1.41004593      -0.90471056
O        1.60421981      -1.80698881       0.44716711
H       -2.56876638       0.14848639       0.53218404
H       -1.91066629      -0.64639579       1.98353528
H       -1.73297906      -1.41677179       0.37815279
H       -0.92081787       0.09064654      -1.33004180
H        0.51457309       2.23007286       0.90889637
H       -1.04476127       1.97107129       1.71706657
H       -1.03392968       2.54927969       0.06593026
H        1.99981033       0.62549125      -0.52096260
H        1.34685881       0.36525800      -2.11656189
H        0.63192492      -1.96877233      -1.37817443
H        2.37738064      -1.70114445      -1.41087018
H        0.98331126      -1.29628164       0.97155595
19
Frame=7 idx=008012 GeodesicLength=0.3931660093720578 rxn_smarts="[C:1]([O:2][C@@:3]([C:4]([H:12])([H:13])[H:14])([C:5]([C:6]([O:7][H:19])([H:17])[H:18])([H:15])[H:16])[H:11])([H:8])([H:9])[H:10]>>[C:1]([O:2][C:4]([H:12])([H:13])[H:14])([H:8])([H:9])[H:10].[C:3]([C:5]([C:6]([O:7][H:19])([H:17])[H:18])([H:15])[H:16])[H:11]"
C       -1.77162115      -0.46235814       0.92797933
O       -0.49727821       0.12857050       0.75881860
C       -0.17798724       0.57386373      -0.71856363
C       -0.49439392       1.88877703       0.75222398
C        1.20489203       0.09611618      -1.06448370
C        1.46936026      -1.39929666      -0.90496892
O        1.62438777      -1.79295159       0.44706881
H       -2.58164427       0.17185879       0.55795195
H       -1.92002775      -0.64900674       1.99184035
H       -1.77752445      -1.40498165       0.37530180
H       -0.92783793       0.05783287      -1.32958385
H        0.53229613       2.19044641       0.92468958
H       -1.04893677       1.97955536       1.69441970
H       -0.98837173       2.55589813       0.05203951
H        1.98482858       0.64506444      -0.52469364
H        1.33190612       0.37477808      -2.11727385
H        0.65901040      -1.97164114      -1.38070845
H        2.39967701      -1.67466464      -1.40880752
H        0.97926514      -1.30786096       0.96674996
19
Frame=8 idx=008012 GeodesicLength=0.44852145649332 rxn_smarts="[C:1]([O:2][C@@:3]([C:4]([H:12])([H:13])[H:14])([C:5]([C:6]([O:7][H:19])([H:17])[H:18])([H:15])[H:16])[H:11])([H:8])([H:9])[H:10]>>[C:1]([O:2][C:4]([H:12])([H:13])[H:14])([H:8])([H:9])[H:10].[C:3]([C:5]([C:6]([O:7][H:19])([H:17])[H:18])([H:15])[H:16])[H:11]"
C       -1.79015301      -0.45663425       0.93619273
O       -0.50533418       0.10853854       0.76030820
C       -0.19410226       0.55580831      -0.71865885
C       -0.48097068       1.87310619       0.74243749
C        1.19690965       0.10241419      -1.06522072
C        1.48548882      -1.38814151      -0.90498736
O        1.64433174      -1.77795887       0.44737744
H       -2.59353082       0.19555282       0.58373361
H       -1.92965779      -0.65186700       1.99969724
H       -1.82252083      -1.39197978       0.37224361
H       -0.93434184       0.02502017      -1.32883213
H        0.54858042       2.15039093       0.94065685
H       -1.05230689       1.98783495       1.67135647
H       -0.94182180       2.56084317       0.03847397
H        1.96961072       0.66458365      -0.52900336
H        1.31634543       0.38379199      -2.11823003
H        0.68622161      -1.97407379      -1.38289305
H        2.42156846      -1.64770567      -1.40639779
H        0.97568326      -1.31952406       0.96174566
19
Frame=9 idx=008012 GeodesicLength=0.5037464066735253 rxn_smarts="[C:1]([O:2][C@@:3]([C:4]([H:12])([H:13])[H:14])([C:5]([C:6]([O:7][H:19])([H:17])[H:18])([H:15])[H:16])[H:11])([H:8])([H:9])[H:10]>>[C:1]([O:2][C:4]([H:12])([H:13])[H:14])([H:8])([H:9])[H:10].[C:3]([C:5]([C:6]([O:7][H:19])([H:17])[H:18])([H:15])[H:16])[H:11]"
C       -1.80843759      -0.45067086       0.94423059
O       -0.51351900       0.08822524       0.76173018
C       -0.20993685       0.53774524      -0.71862248
C       -0.46774251       1.85696589       0.73278092
C        1.18868496       0.10865615      -1.06608646
C        1.50139838      -1.37659359      -0.90475697
O        1.66392089      -1.76206364       0.44809001
H       -2.60438356       0.21952877       0.60956214
H       -1.93951352      -0.65504580       2.00706632
H       -1.86787166      -1.37769110       0.36892790
H       -0.94032302      -0.00775817      -1.32779996
H        0.56343295       2.10999684       0.95669303
H       -1.05482375       1.99587628       1.64792439
H       -0.89442634       2.56404999       0.02529951
H        1.95414904       0.68402152      -0.53386082
H        1.30022711       0.39227445      -2.11941127
H        0.71351997      -1.97605218      -1.38474524
H        2.44301358      -1.62030289      -1.40360657
H        0.97263093      -1.33116213       0.95658477
19
Frame=10 idx=008012 GeodesicLength=0.5588846644379868 rxn_smarts="[C:1]([O:2][C@@:3]([C:4]([H:12])([H:13])[H:14])([C:5]([C:6]([O:7][H:19])([H:17])[H:18])([H:15])[H:16])[H:11])([H:8])([H:9])[H:10]>>[C:1]([O:2][C:4]([H:12])([H:13])[H:14])([H:8])([H:9])[H:10].[C:3]([C:5]([C:6]([O:7][H:19])([H:17])[H:18])([H:15])[H:16])[H:11]"
C       -1.82645075      -0.44448592       0.95207284
O       -0.52183628       0.06764327       0.76306600
C       -0.22549160       0.51969979      -0.71848085
C       -0.45471462       1.84037528       0.72326067
C        1.18022957       0.11483354      -1.06708218
C        1.51705817      -1.36466380      -0.90427152
O        1.68307318      -1.74529937       0.44921339
H       -2.61418570       0.24374045       0.63546554
H       -1.94958615      -0.65859843       2.01391891
H       -1.91348836      -1.36204667       0.36531713
H       -0.94578584      -0.04047514      -1.32650865
H        0.57688951       2.06932633       0.97270222
H       -1.05644748       2.00365135       1.62418723
H       -0.84632814       2.56548048       0.01257826
H        1.93845137       0.70335807      -0.53924845
H        1.28360581       0.40020158      -2.12081879
H        0.74086626      -1.97756697      -1.38626412
H        2.46398410      -1.59248648      -1.40042204
H        0.97015696      -1.34268736       0.95131442
19
Frame=11 idx=008012 GeodesicLength=0.6139708626031648 rxn_smarts="[C:1]([O:2][C@@:3]([C:4]([H:12])([H:13])[H:14])([C:5]([C:6]([O:7][H:19])([H:17])[H:18])([H:15])[H:16])[H:11])([H:8])([H:9])[H:10]>>[C:1]([O:2][C:4]([H:12])([H:13])[H:14])([H:8])([H:9])[H:10].[C:3]([C:5]([C:6]([O:7][H:19])([H:17])[H:18])([H:15])[H:16])[H:11]"
C       -1.84415770      -0.43810137       0.95969315
O       -0.53028409       0.04680949       0.76429486
C       -0.24076159       0.50170132      -0.71825672
C       -0.44189494       1.82336020       0.71387938
C        1.17155622       0.12093469      -1.06819942
C        1.53242774      -1.35237237      -0.90352189
O        1.70169830      -1.72772675       0.45074574
H       -2.62290286       0.26814424       0.66148325
H       -1.95985170      -0.66260449       2.02020860
H       -1.95927515      -1.34496980       0.36135527
H       -0.95072729      -0.07309164      -1.32497891
H        0.58898875       2.02847462       0.98855360
H       -1.05712210       2.01112196       1.60022048
H       -0.79772164       2.56510012       0.00037134
H        1.92252245       0.72256320      -0.54513154
H        1.26654186       0.40755324      -2.12243755
H        0.76821015      -1.97861033      -1.38744855
H        2.48443715      -1.56430172      -1.39682920
H        0.96831644      -1.35398460       0.94599812
19
Frame=12 idx=008012 GeodesicLength=0.6690436325671512 rxn_smarts="[C:1]([O:2][C@@:3]([C:4]([H:12])([H:13])[H:14])([C:5]([C:6]([O:7][H:19])([H:17])[H:18])([H:15])[H:16])[H:11])([H:8])([H:9])[H:10]>>[C:1]([O:2][C:4]([H:12])([H:13])[H:14])([H:8])([H:9])[H:10].[C:3]([C:5]([C:6]([O:7][H:19])([H:17])[H:18])([H:15])[H:16])[H:11]"
C       -1.86154579      -0.43156271       0.96707079
O       -0.53886388       0.02573485       0.76540569
C       -0.25574217       0.48378549      -0.71798979
C       -0.42927582       1.80596211       0.70464304
C        1.16268696       0.12695875      -1.06944511
C        1.54746626      -1.33974536      -0.90249834
O        1.71973006      -1.70941305       0.45271154
H       -2.63052025       0.29267440       0.68764982
H       -1.97031485      -0.66717776       2.02590897
H       -2.00516217      -1.32641421       0.35698253
H       -0.95515967      -0.10556900      -1.32326354
H        0.59981302       1.98755587       1.00413033
H       -1.05678576       2.01825853       1.57611965
H       -0.74879597       2.56292080      -0.01127958
H        1.90639215       0.74163114      -0.55148344
H        1.24910241       0.41432570      -2.12428908
H        0.79547896      -1.97919630      -1.38829301
H        2.50432983      -1.53579811      -1.39282687
H        0.96716667      -1.36493112       0.94074642
19
Frame=13 idx=008012 GeodesicLength=0.7241439384131714 rxn_smarts="[C:1]([O:2][C@@:3]([C:4]([H:12])([H:13])[H:14])([C:5]([C:6]([O:7][H:19])([H:17])[H:18])([H:15])[H:16])[H:11])([H:8])([H:9])[H:10]>>[C:1]([O:2][C:4]([H:12])([H:13])[H:14])([H:8])([H:9])[H:10].[C:3]([C:5]([C:6]([O:7][H:19])([H:17])[H:18])([H:15])[H:16])[H:11]"
C       -1.87855232      -0.42483900       0.97416615
O       -0.54756978       0.00445231       0.76635452
C       -0.27042981       0.46596951      -0.71766240
C       -0.41691335       1.78816786       0.69554365
C        1.15362799       0.13286551      -1.07078233
C        1.56215122      -1.32680199      -0.90119469
O        1.73713127      -1.69039863       0.45504643
H       -2.63697574       0.31731804       0.71402559
H       -1.98093557      -0.67231977       2.03090840
H       -2.05098388      -1.30623089       0.35217371
H       -0.95906496      -0.13784137      -1.32131341
H        0.60936159       1.94658309       1.01927149
H       -1.05542911       2.02499304       1.55194920
H       -0.69980395       2.55888030      -0.02230217
H        1.89003650       0.76046342      -0.55826090
H        1.23134588       0.42047048      -2.12628246
H        0.82264907      -1.97928512      -1.38874998
H        2.52362378      -1.50703861      -1.38841913
H        0.96673117      -1.37540817       0.93552833
19
Frame=14 idx=008012 GeodesicLength=0.7792914167885284 rxn_smarts="[C:1]([O:2][C@@:3]([C:4]([H:12])([H:13])[H:14])([C:5]([C:6]([O:7][H:19])([H:17])[H:18])([H:15])[H:16])[H:11])([H:8])([H:9])[H:10]>>[C:1]([O:2][C:4]([H:12])([H:13])[H:14])([H:8])([H:9])[H:10].[C:3]([C:5]([C:6]([O:7][H:19])([H:17])[H:18])([H:15])[H:16])[H:11]"
C       -1.89518905      -0.41803585       0.98098263
O       -0.55639597      -0.01702513       0.76716255
C       -0.28480713       0.44830371      -0.71735901
C       -0.40476668       1.77009570       0.68658270
C        1.14442320       0.13869112      -1.07224428
C        1.57642045      -1.31358079      -0.89961379
O        1.75383299      -1.67076901       0.45783103
H       -2.64228712       0.34192646       0.74063844
H       -1.99174504      -0.67824191       2.03524222
H       -2.09669808      -1.28449296       0.34690292
H       -0.96246423      -0.16990525      -1.31926635
H        0.61780279       1.90577941       1.03393150
H       -1.05298989       2.03135808       1.52783993
H       -0.65088710       2.55312744      -0.03277009
H        1.87353169       0.77912896      -0.56541386
H        1.21337584       0.42605445      -2.12851771
H        0.84959561      -1.97895504      -1.38885680
H        2.54225193      -1.47807606      -1.38363889
H        0.96699580      -1.38538332       0.93056686
19
Frame=15 idx=008012 GeodesicLength=0.8344647427380997 rxn_smarts="[C:1]([O:2][C@@:3]([C:4]([H:12])([H:13])[H:14])([C:5]([C:6]([O:7][H:19])([H:17])[H:18])([H:15])[H:16])[H:11])([H:8])([H:9])[H:10]>>[C:1]([O:2][C:4]([H:12])([H:13])[H:14])([H:8])([H:9])[H:10].[C:3]([C:5]([C:6]([O:7][H:19])([H:17])[H:18])([H:15])[H:16])[H:11]"
C       -1.91127080      -0.41102797       0.98739327
O       -0.56531506      -0.03862408       0.76771713
C       -0.29884851       0.43080099      -0.71695767
C       -0.39297778       1.75162212       0.67779342
C        1.13503145       0.14429452      -1.07373206
C        1.59023396      -1.30012487      -0.89773116
O        1.76986342      -1.65046261       0.46086565
H       -2.64623635       0.36656923       0.76752622
H       -2.00262541      -0.68476928       2.03858891
H       -2.14188779      -1.26084320       0.34101573
H       -0.96525447      -0.20155740      -1.31693897
H        0.62498542       1.86501334       1.04785008
H       -1.04956396       2.03714865       1.50385369
H       -0.60250519       2.54549661      -0.04237209
H        1.85672729       0.79736500      -0.57292748
H        1.19518007       0.43082888      -2.13073770
H        0.87630486      -1.97811196      -1.38839657
H        2.56008611      -1.44910552      -1.37852274
H        0.96807273      -1.39451244       0.92571235
19
Frame=16 idx=008012 GeodesicLength=0.8897570999861222 rxn_smarts="[C:1]([O:2][C@@:3]([C:4]([H:12])([H:13])[H:14])([C:5]([C:6]([O:7][H:19])([H:17])[H:18])([H:15])[H:16])[H:11])([H:8])([H:9])[H:10]>>[C:1]([O:2][C:4]([H:12])([H:13])[H:14])([H:8])([H:9])[H:10].[C:3]([C:5]([C:6]([O:7][H:19])([H:17])[H:18])([H:15])[H:16])[H:11]"
C       -1.92697206      -0.40402172       0.99348526
O       -0.57435203      -0.06039103       0.76810044
C       -0.31257757       0.41351297      -0.71662923
C       -0.38141279       1.73292504       0.66913716
C        1.12554917       0.14980047      -1.07535300
C        1.60358867      -1.28645518      -0.89555247
O        1.78522747      -1.62961394       0.46436902
H       -2.64901378       0.39102183       0.79473117
H       -2.01376727      -0.69222077       2.04117009
H       -2.18678327      -1.23552791       0.33460337
H       -0.96760934      -0.23285245      -1.31458683
H        0.63128370       1.82454659       1.06104746
H       -1.04500956       2.04246494       1.48012685
H       -0.55463141       2.53628732      -0.05137370
H        1.83986019       0.81537294      -0.58078065
H        1.17690411       0.43503661      -2.13320966
H        0.90262591      -1.97688041      -1.38747164
H        2.57719794      -1.42007218      -1.37309034
H        0.96989195      -1.40293314       0.92127671
