10
Frame=0 idx=000133 GeodesicLength=0.0 rxn_smarts="[O:1]=[C:2]1[C:3]([H:7])([H:8])[C@@:4]2([H:9])[O:5][C@@:6]12[H:10]>>[O:1]=[C:2]=[C:3]([C@@:4]1([H:9])[O:5][C:6]1([H:8])[H:10])[H:7]"
O       -0.55638700       2.24129589      -0.23193058
C       -0.41604262       1.07277916       0.09484140
C       -1.08069052      -0.19045782      -0.14628514
C        0.08867734      -1.03518900      -0.10463717
O        1.12563279      -0.54075325      -1.14202812
C        1.07351491       0.02542635       0.06973573
H       -2.07647098      -0.39685532      -0.52180459
H       -0.33785466       0.75330605       1.21959937
H        0.20241174      -2.08793877       0.10146783
H        1.97720902       0.15838670       0.66104127
10
Frame=1 idx=000133 GeodesicLength=0.12676599221385043 rxn_smarts="[O:1]=[C:2]1[C:3]([H:7])([H:8])[C@@:4]2([H:9])[O:5][C@@:6]12[H:10]>>[O:1]=[C:2]=[C:3]([C@@:4]1([H:9])[O:5][C:6]1([H:8])[H:10])[H:7]"
O       -0.57085921       2.24895785      -0.25414598
C       -0.42468514       1.08447445       0.07184057
C       -1.08352328      -0.18645605      -0.12926760
C        0.09108984      -1.03079586      -0.11362976
O        1.12445105      -0.53065616      -1.13678930
C        1.07640899       0.02567508       0.08548457
H       -2.07545090      -0.39827119      -0.51113747
H       -0.32365647       0.73304550       1.22237188
H        0.20194174      -2.08430695       0.09147269
H        1.98428337       0.13833331       0.67380040
10
Frame=2 idx=000133 GeodesicLength=0.25350797524881186 rxn_smarts="[O:1]=[C:2]1[C:3]([H:7])([H:8])[C@@:4]2([H:9])[O:5][C@@:6]12[H:10]>>[O:1]=[C:2]=[C:3]([C@@:4]1([H:9])[O:5][C:6]1([H:8])[H:10])[H:7]"
O       -0.58516369       2.25622357      -0.27736410
C       -0.43342651       1.09586518       0.04837667
C       -1.08586393      -0.18193171      -0.11249479
C        0.09352924      -1.02597453      -0.12278350
O        1.12374362      -0.52025654      -1.13136584
C        1.07919027       0.02595610       0.10141824
H       -2.07433070      -0.39965785      -0.49927600
H       -0.30996984       0.71213784       1.22605248
H        0.20129032      -2.08033404       0.08095069
H        1.99100121       0.11797198       0.68648616
10
Frame=3 idx=000133 GeodesicLength=0.3802238615800675 rxn_smarts="[O:1]=[C:2]1[C:3]([H:7])([H:8])[C@@:4]2([H:9])[O:5][C@@:6]12[H:10]>>[O:1]=[C:2]=[C:3]([C@@:4]1([H:9])[O:5][C:6]1([H:8])[H:10])[H:7]"
O       -0.59933089       2.26314664      -0.30150358
C       -0.44226571       1.10696083       0.02433584
C       -1.08771137      -0.17685296      -0.09598320
C        0.09599885      -1.02071158      -0.13204022
O        1.12348453      -0.50963156      -1.12576244
C        1.08185467       0.02628492       0.11749130
H       -2.07308270      -0.40096910      -0.48634587
H       -0.29674999       0.69037467       1.23077738
H        0.20044724      -2.07599272       0.07001703
H        1.99735537       0.09739085       0.69901376
10
Frame=4 idx=000133 GeodesicLength=0.5069116225104165 rxn_smarts="[O:1]=[C:2]1[C:3]([H:7])([H:8])[C@@:4]2([H:9])[O:5][C@@:6]12[H:10]>>[O:1]=[C:2]=[C:3]([C@@:4]1([H:9])[O:5][C:6]1([H:8])[H:10])[H:7]"
O       -0.61339098       2.26978523      -0.32648525
C       -0.45120071       1.11776870      -0.00041872
C       -1.08906451      -0.17117980      -0.07974368
C        0.09850013      -1.01499628      -0.14134725
O        1.12365151      -0.49885418      -1.11998364
C        1.08439759       0.02667976       0.13366248
H       -2.07167682      -0.40215738      -0.47245107
H       -0.28395273       0.66752889       1.23667446
H        0.19939931      -2.07125842       0.05878064
H        2.00333722       0.07668348       0.71131205
10
Frame=5 idx=000133 GeodesicLength=0.633569908458462 rxn_smarts="[O:1]=[C:2]1[C:3]([H:7])([H:8])[C@@:4]2([H:9])[O:5][C@@:6]12[H:10]>>[O:1]=[C:2]=[C:3]([C@@:4]1([H:9])[O:5][C:6]1([H:8])[H:10])[H:7]"
O       -0.62737324       2.27620288      -0.35223275
C       -0.46022844       1.12829202      -0.02605470
C       -1.08992006      -0.16486193      -0.06378259
C        0.10103317      -1.00881928      -0.15065992
O        1.12422977      -0.48799315      -1.11403275
C        1.08681286       0.02716271       0.14989522
H       -2.07008324      -0.40317326      -0.45766469
H       -0.27153531       0.64334943       1.24386387
H        0.19813006      -2.06610836       0.04734150
H        2.00893445       0.05594894       0.72332680
10
Frame=6 idx=000133 GeodesicLength=0.7601979462117762 rxn_smarts="[O:1]=[C:2]1[C:3]([H:7])([H:8])[C@@:4]2([H:9])[O:5][C@@:6]12[H:10]>>[O:1]=[C:2]=[C:3]([C@@:4]1([H:9])[O:5][C:6]1([H:8])[H:10])[H:7]"
O       -0.64130534       2.28247133      -0.37866517
C       -0.46934492       1.13852804      -0.05277877
C       -1.09027090      -0.15783611      -0.04810256
C        0.10359634      -1.00217217      -0.15994117
O        1.12521327      -0.47711667      -1.10791143
C        1.08909152       0.02776152       0.16615597
H       -2.06827178      -0.40396348      -0.44202938
H       -0.25945893       0.61755109       1.25245826
H        0.19661910      -2.06051981       0.03579674
H        2.01413164       0.03529627       0.73501750
10
Frame=7 idx=000133 GeodesicLength=0.886796967806254 rxn_smarts="[O:1]=[C:2]1[C:3]([H:7])([H:8])[C@@:4]2([H:9])[O:5][C@@:6]12[H:10]>>[O:1]=[C:2]=[C:3]([C@@:4]1([H:9])[O:5][C:6]1([H:8])[H:10])[H:7]"
O       -0.65521172       2.28867088      -0.40569717
C       -0.47854678       1.14846451      -0.08084978
C       -1.09010286      -0.15002279      -0.03270307
C        0.10618697      -0.99504551      -0.16916472
O        1.12660941      -0.46629196      -1.10161821
C        1.09121972       0.02851193       0.18241487
H       -2.06621394      -0.40447021      -0.42554298
H       -0.24768660       0.58980658       1.26256133
H        0.19484114      -2.05446894       0.02423550
H        2.01890465       0.01484551       0.74636423
10
Frame=8 idx=000133 GeodesicLength=1.0133685518780005 rxn_smarts="[O:1]=[C:2]1[C:3]([H:7])([H:8])[C@@:4]2([H:9])[O:5][C@@:6]12[H:10]>>[O:1]=[C:2]=[C:3]([C@@:4]1([H:9])[O:5][C:6]1([H:8])[H:10])[H:7]"
O       -0.66910790       2.29489297      -0.43323100
C       -0.48783233       1.15807560      -0.11059236
C       -1.08939371      -0.14132234      -0.01757978
C        0.10880067      -0.98742848      -0.17831520
O        1.12844140      -0.45558808      -1.09514722
C        1.09317556       0.02946045       0.19864543
H       -2.06388346      -0.40462908      -0.40815432
H       -0.23618513       0.55973213       1.27426635
H        0.19276528      -2.04793006       0.01274224
H        2.02321963      -0.00526313       0.75736587
10
Frame=9 idx=000133 GeodesicLength=1.1399257143055694 rxn_smarts="[O:1]=[C:2]1[C:3]([H:7])([H:8])[C@@:4]2([H:9])[O:5][C@@:6]12[H:10]>>[O:1]=[C:2]=[C:3]([C@@:4]1([H:9])[O:5][C:6]1([H:8])[H:10])[H:7]"
O       -0.68299903       2.30122546      -0.46115048
C       -0.49721197       1.16730293      -0.14242090
C       -1.08810124      -0.13159900      -0.00272718
C        0.11143234      -0.97930208      -0.18738944
O        1.13074792      -0.44507634      -1.08848527
C        1.09492722       0.03067330       0.21482124
H       -2.06124360      -0.40435660      -0.38974988
H       -0.22493594       0.52687147       1.28766519
H        0.19035188      -2.04086781       0.00139765
H        2.02703242      -0.02487133       0.76803906
10
Frame=10 idx=000133 GeodesicLength=1.266455735074479 rxn_smarts="[O:1]=[C:2]1[C:3]([H:7])([H:8])[C@@:4]2([H:9])[O:5][C@@:6]12[H:10]>>[O:1]=[C:2]=[C:3]([C@@:4]1([H:9])[O:5][C:6]1([H:8])[H:10])[H:7]"
O       -0.69685604       2.30777110      -0.48932817
C       -0.50670822       1.17607298      -0.17684095
C       -1.08617524      -0.12069473       0.01187750
C        0.11407392      -0.97064485      -0.19639766
O        1.13358915      -0.43482397      -1.08161207
C        1.09642440       0.03223342       0.23092591
H       -2.05826492      -0.40356211      -0.37013935
H       -0.21391423       0.49067410       1.30281542
H        0.18755581      -2.03324585      -0.00973357
H        2.03027538      -0.04378008       0.77843296
10
Frame=11 idx=000133 GeodesicLength=1.3929515244738573 rxn_smarts="[O:1]=[C:2]1[C:3]([H:7])([H:8])[C@@:4]2([H:9])[O:5][C@@:6]12[H:10]>>[O:1]=[C:2]=[C:3]([C@@:4]1([H:9])[O:5][C:6]1([H:8])[H:10])[H:7]"
O       -0.71059046       2.31460769      -0.51764160
C       -0.51637924       1.18426121      -0.21447747
C       -1.08353927      -0.10840017       0.02627388
C        0.11671406      -0.96141761      -0.20536990
O        1.13704197      -0.42487971      -1.07449259
C        1.09759144       0.03425696       0.24695375
H       -2.05490614      -0.40212727      -0.34902073
H       -0.20311197       0.45045637       1.31976121
H        0.18432216      -2.02500994      -0.02061474
H        2.03285746      -0.06174754       0.78862818
10
Frame=12 idx=000133 GeodesicLength=1.5194046663714278 rxn_smarts="[O:1]=[C:2]1[C:3]([H:7])([H:8])[C@@:4]2([H:9])[O:5][C@@:6]12[H:10]>>[O:1]=[C:2]=[C:3]([C@@:4]1([H:9])[O:5][C:6]1([H:8])[H:10])[H:7]"
O       -0.72400046       2.32175064      -0.54604980
C       -0.52634941       1.19168354      -0.25606015
C       -1.08008804      -0.09444276       0.04054374
C        0.11933550      -0.95155095      -0.21436718
O        1.14119887      -0.41523083      -1.06706948
C        1.09831336       0.03690223       0.26292839
H       -2.05111526      -0.39989569      -0.32592897
H       -0.19253364       0.40534204       1.33853116
H        0.18058771      -2.01608180      -0.03128069
H        2.03465138      -0.07847641       0.79875298
10
Frame=13 idx=000133 GeodesicLength=1.6457988168906241 rxn_smarts="[O:1]=[C:2]1[C:3]([H:7])([H:8])[C@@:4]2([H:9])[O:5][C@@:6]12[H:10]>>[O:1]=[C:2]=[C:3]([C@@:4]1([H:9])[O:5][C:6]1([H:8])[H:10])[H:7]"
O       -0.73670120       2.32907560      -0.57479080
C       -0.53685705       1.19808804      -0.30234169
C       -1.07567780      -0.07846733       0.05486592
C        0.12191114      -0.94091452      -0.22349773
O        1.14615496      -0.40571098      -1.05924711
C        1.09841975       0.04038001       0.27894143
H       -2.04681715      -0.39664659      -0.30015495
H       -0.18219776       0.35415688       1.35914865
H        0.17628071      -2.00633894      -0.04192901
H        2.03548440      -0.09362218       0.80900531
10
Frame=14 idx=000133 GeodesicLength=1.772109606602915 rxn_smarts="[O:1]=[C:2]1[C:3]([H:7])([H:8])[C@@:4]2([H:9])[O:5][C@@:6]12[H:10]>>[O:1]=[C:2]=[C:3]([C@@:4]1([H:9])[O:5][C:6]1([H:8])[H:10])[H:7]"
O       -0.74806376       2.33621861      -0.60471016
C       -0.54831681       1.20314913      -0.35392050
C       -1.07011907      -0.06001188       0.06960032
C        0.12439653      -0.92927010      -0.23293765
O        1.15197956      -0.39586596      -1.05086130
C        1.09766818       0.04494682       0.29522171
H       -2.04190081      -0.39204351      -0.27065313
H       -0.17211057       0.29527733       1.38162865
H        0.17132752      -1.99558223      -0.05305630
H        2.03513924      -0.10681821       0.81968836
10
Frame=15 idx=000133 GeodesicLength=1.898315333603167 rxn_smarts="[O:1]=[C:2]1[C:3]([H:7])([H:8])[C@@:4]2([H:9])[O:5][C@@:6]12[H:10]>>[O:1]=[C:2]=[C:3]([C@@:4]1([H:9])[O:5][C:6]1([H:8])[H:10])[H:7]"
O       -0.75729971       2.34250858      -0.63766826
C       -0.56136529       1.20649701      -0.41098500
C       -1.06313777      -0.03846972       0.08541167
C        0.12673608      -0.91622112      -0.24293769
O        1.15871886      -0.38481383      -1.04164190
C        1.09575293       0.05086935       0.31222510
H       -2.03615140      -0.38555473      -0.23593703
H       -0.16226145       0.22650301       1.40589124
H        0.16564220      -1.98351783      -0.06561613
H        2.03336556      -0.11780072       0.83125800
10
Frame=16 idx=000133 GeodesicLength=2.0243907507376475 rxn_smarts="[O:1]=[C:2]1[C:3]([H:7])([H:8])[C@@:4]2([H:9])[O:5][C@@:6]12[H:10]>>[O:1]=[C:2]=[C:3]([C@@:4]1([H:9])[O:5][C:6]1([H:8])[H:10])[H:7]"
O       -0.76369915       2.34698866      -0.67659681
C       -0.57684694       1.20770057      -0.47312048
C       -1.05431039      -0.01308203       0.10332502
C        0.12886481      -0.90119954      -0.25378130
O        1.16637896      -0.37124788      -1.03114970
C        1.09233384       0.05833785       0.33070462
H       -2.02913499      -0.37640124      -0.19411057
H       -0.15256131       0.14518356       1.43140783
H        0.15908921      -1.96974112      -0.08105081
H        2.02988595      -0.12653883       0.84437220
