11
Frame=0 idx=005809 GeodesicLength=0.0 rxn_smarts="[C:1]1([H:6])([H:7])[C:2]([H:8])([H:9])[C@@:3]2([H:10])[O:4][C@@:5]12[H:11]>>[C:1]1([H:6])([H:7])[C:2]([H:8])([H:9])[C:5]1([C:3](=[O:4])[H:10])[H:11]"
C       -0.81804026       0.84018755       0.04791582
C       -0.61456410      -0.66937221      -0.16482225
C        0.96392327      -0.65729253       0.28164766
O        1.77827620      -0.81957643      -0.69902155
C        0.64832632       0.82153850       0.14490263
H       -1.30477265       1.04955269       1.00112157
H       -1.27400491       1.42712654      -0.74647330
H       -1.18370830      -1.29766265       0.51575351
H       -0.66495649      -0.99346493      -1.19706475
H        1.13252999      -1.11790215       1.26699387
H        1.33699089       1.41686567      -0.45095318
11
Frame=1 idx=005809 GeodesicLength=0.061652467088158774 rxn_smarts="[C:1]1([H:6])([H:7])[C:2]([H:8])([H:9])[C@@:3]2([H:10])[O:4][C@@:5]12[H:11]>>[C:1]1([H:6])([H:7])[C:2]([H:8])([H:9])[C:5]1([C:3](=[O:4])[H:10])[H:11]"
C       -0.81849329       0.83854208       0.05125821
C       -0.61925682      -0.66756810      -0.17415500
C        0.96771921      -0.66322525       0.29157506
O        1.79497881      -0.80714127      -0.68185704
C        0.65041256       0.80630492       0.12375873
H       -1.29081934       1.04696183       1.01150785
H       -1.27788735       1.43062020      -0.73711253
H       -1.18808658      -1.29814496       0.50458688
H       -0.67880471      -0.99024626      -1.20654529
H        1.13010072      -1.11363023       1.28187981
H        1.33013678       1.41752703      -0.46489670
11
Frame=2 idx=005809 GeodesicLength=0.12329434313797458 rxn_smarts="[C:1]1([H:6])([H:7])[C:2]([H:8])([H:9])[C@@:3]2([H:10])[O:4][C@@:5]12[H:11]>>[C:1]1([H:6])([H:7])[C:2]([H:8])([H:9])[C:5]1([C:3](=[O:4])[H:10])[H:11]"
C       -0.81875007       0.83676411       0.05439424
C       -0.62403317      -0.66588642      -0.18355261
C        0.97161236      -0.66891573       0.30116413
O        1.81150637      -0.79464927      -0.66471439
C        0.65221629       0.79074695       0.10256951
H       -1.27678341       1.04424855       1.02136631
H       -1.28128416       1.43403944      -0.72799112
H       -1.19211505      -1.29862924       0.49382034
H       -0.69371246      -0.98712443      -1.21595219
H        1.12795618      -1.10875689       1.29642119
H        1.32338711       1.41816293      -0.47752542
11
Frame=3 idx=005809 GeodesicLength=0.18492348467847045 rxn_smarts="[C:1]1([H:6])([H:7])[C:2]([H:8])([H:9])[C@@:3]2([H:10])[O:4][C@@:5]12[H:11]>>[C:1]1([H:6])([H:7])[C:2]([H:8])([H:9])[C:5]1([C:3](=[O:4])[H:10])[H:11]"
C       -0.81881068       0.83485182       0.05729392
C       -0.62890981      -0.66434017      -0.19300514
C        0.97562451      -0.67436536       0.31041207
O        1.82786270      -0.78206259      -0.64763163
C        0.65375045       0.77486066       0.08131336
H       -1.26268154       1.04143636       1.03066726
H       -1.28418957       1.43737018      -0.71916209
H       -1.19580274      -1.29912352       0.48348586
H       -0.70973368      -0.98411095      -1.22524641
H        1.12611897      -1.10331496       1.31059703
H        1.31677139       1.41879853      -0.48872424
11
Frame=4 idx=005809 GeodesicLength=0.24649342137370378 rxn_smarts="[C:1]1([H:6])([H:7])[C:2]([H:8])([H:9])[C@@:3]2([H:10])[O:4][C@@:5]12[H:11]>>[C:1]1([H:6])([H:7])[C:2]([H:8])([H:9])[C:5]1([C:3](=[O:4])[H:10])[H:11]"
C       -0.81867519       0.83280623       0.05994605
C       -0.63389181      -0.66294389      -0.20250754
C        0.97977106      -0.67958380       0.31932210
O        1.84406174      -0.76936976      -0.63063738
C        0.65502288       0.75863413       0.05996230
H       -1.24853927       1.03855194       1.03940319
H       -1.28659855       1.44060893      -0.71064560
H       -1.19915982      -1.29963965       0.47359612
H       -0.72687696      -0.98121227      -1.23439272
H        1.12457614      -1.09733241       1.32439644
H        1.31030977       1.41948056      -0.49844297
11
Frame=5 idx=005809 GeodesicLength=0.3080767446256174 rxn_smarts="[C:1]1([H:6])([H:7])[C:2]([H:8])([H:9])[C@@:3]2([H:10])[O:4][C@@:5]12[H:11]>>[C:1]1([H:6])([H:7])[C:2]([H:8])([H:9])[C:5]1([C:3](=[O:4])[H:10])[H:11]"
C       -0.81831327       0.83059311       0.06229971
C       -0.63899762      -0.66169152      -0.21206376
C        0.98404655      -0.68453099       0.32788140
O        1.86003540      -0.75650378      -0.61375484
C        0.65603584       0.74203315       0.03846699
H       -1.23427815       1.03559297       1.04751915
H       -1.28849164       1.44367129      -0.70250452
H       -1.20215809      -1.30013718       0.46415914
H       -0.74523824      -0.97843045      -1.24334067
H        1.12335778      -1.09076683       1.33777499
H        1.30400144       1.42017023      -0.50643760
11
Frame=6 idx=005809 GeodesicLength=0.3696084647053207 rxn_smarts="[C:1]1([H:6])([H:7])[C:2]([H:8])([H:9])[C@@:3]2([H:10])[O:4][C@@:5]12[H:11]>>[C:1]1([H:6])([H:7])[C:2]([H:8])([H:9])[C:5]1([C:3](=[O:4])[H:10])[H:11]"
C       -0.81774370       0.82823707       0.06435490
C       -0.64423837      -0.66061392      -0.22167964
C        0.98849134      -0.68923443       0.33610850
O        1.87586799      -0.74348389      -0.59699422
C        0.65682127       0.72507164       0.01675939
H       -1.21994188       1.03258946       1.05504500
H       -1.28990535       1.44661888      -0.69473926
H       -1.20484635      -1.30067997       0.45517329
H       -0.76481638      -0.97576126      -1.25207811
H        1.12245016      -1.08365977       1.35077364
H        1.29786127       1.42091619      -0.51272349
11
Frame=7 idx=005809 GeodesicLength=0.43109081475413347 rxn_smarts="[C:1]1([H:6])([H:7])[C:2]([H:8])([H:9])[C@@:3]2([H:10])[O:4][C@@:5]12[H:11]>>[C:1]1([H:6])([H:7])[C:2]([H:8])([H:9])[C:5]1([C:3](=[O:4])[H:10])[H:11]"
C       -0.81694309       0.82571773       0.06608298
C       -0.64962599      -0.65972205      -0.23135962
C        0.99310238      -0.69368277       0.34399836
O        1.89152525      -0.73028663      -0.58037993
C        0.65738240       0.70770476      -0.00521992
H       -1.20548336       1.02955725       1.06195199
H       -1.29082280       1.44940962      -0.68738120
H       -1.20721649      -1.30125604       0.44663808
H       -0.78565036      -0.97321688      -1.26055398
H        1.12184321      -1.07598974       1.36336894
H        1.29188885       1.42176473      -0.51714571
11
Frame=8 idx=005809 GeodesicLength=0.49252975117629755 rxn_smarts="[C:1]1([H:6])([H:7])[C:2]([H:8])([H:9])[C@@:3]2([H:10])[O:4][C@@:5]12[H:11]>>[C:1]1([H:6])([H:7])[C:2]([H:8])([H:9])[C:5]1([C:3](=[O:4])[H:10])[H:11]"
C       -0.81590044       0.82303606       0.06742778
C       -0.65517960      -0.65902256      -0.24110692
C        0.99789847      -0.69783809       0.35152226
O        1.90699441      -0.71687140      -0.56397968
C        0.65773398       0.68993412      -0.02758133
H       -1.19086961       1.02653003       1.06820331
H       -1.29124925       1.45200983      -0.68050411
H       -1.20925870      -1.30185505       0.43858995
H       -0.80780811      -0.97081818      -1.26871898
H        1.12157323      -1.06771941       1.37552853
H        1.28606564       1.42261465      -0.51938081
11
Frame=9 idx=005809 GeodesicLength=0.5539230582156212 rxn_smarts="[C:1]1([H:6])([H:7])[C:2]([H:8])([H:9])[C@@:3]2([H:10])[O:4][C@@:5]12[H:11]>>[C:1]1([H:6])([H:7])[C:2]([H:8])([H:9])[C:5]1([C:3](=[O:4])[H:10])[H:11]"
C       -0.81459829       0.82017801       0.06838304
C       -0.66090835      -0.65853207      -0.25093429
C        1.00288894      -0.70171093       0.35870003
O        1.92229532      -0.70325026      -0.54778122
C        0.65789771       0.67169837      -0.05038182
H       -1.17607215       1.02351151       1.07379092
H       -1.29118253       1.45442608      -0.67409803
H       -1.21099514      -1.30248938       0.43099237
H       -0.83129672      -0.96854643      -1.27652374
H        1.12161125      -1.05883894       1.38726229
H        1.28035996       1.42355404      -0.51940955
11
Frame=10 idx=005809 GeodesicLength=0.6152080156084808 rxn_smarts="[C:1]1([H:6])([H:7])[C:2]([H:8])([H:9])[C@@:3]2([H:10])[O:4][C@@:5]12[H:11]>>[C:1]1([H:6])([H:7])[C:2]([H:8])([H:9])[C:5]1([C:3](=[O:4])[H:10])[H:11]"
C       -0.81301299       0.81715020       0.06892888
C       -0.66681091      -0.65825909      -0.26085295
C        1.00807971      -0.70526900       0.36553157
O        1.93740953      -0.68939617      -0.53181673
C        0.65788594       0.65299969      -0.07367902
H       -1.16106545       1.02053102       1.07869945
H       -1.29060846       1.45665698      -0.66818141
H       -1.21240995      -1.30317014       0.42383115
H       -0.85611258      -0.96639988      -1.28392492
H        1.12194437      -1.04933130       1.39855915
H        1.27470078       1.42448769      -0.51709519
11
Frame=11 idx=005809 GeodesicLength=0.6765315303914458 rxn_smarts="[C:1]1([H:6])([H:7])[C:2]([H:8])([H:9])[C@@:3]2([H:10])[O:4][C@@:5]12[H:11]>>[C:1]1([H:6])([H:7])[C:2]([H:8])([H:9])[C:5]1([C:3](=[O:4])[H:10])[H:11]"
C       -0.81110794       0.81394019       0.06900211
C       -0.67292916      -0.65820673      -0.27090013
C        1.01350840      -0.70845432       0.37202546
O        1.95235439      -0.67524989      -0.51611434
C        0.65777009       0.63383652      -0.09760839
H       -1.14575035       1.01757379       1.08291141
H       -1.28953264       1.45868858      -0.66283958
H       -1.21352916      -1.30391051       0.41710610
H       -0.88239834      -0.96434543      -1.29091883
H        1.12264353      -1.03911763       1.40946199
H        1.26897118       1.42524542      -0.51212581
11
Frame=12 idx=005809 GeodesicLength=0.7376662617098819 rxn_smarts="[C:1]1([H:6])([H:7])[C:2]([H:8])([H:9])[C@@:3]2([H:10])[O:4][C@@:5]12[H:11]>>[C:1]1([H:6])([H:7])[C:2]([H:8])([H:9])[C:5]1([C:3](=[O:4])[H:10])[H:11]"
C       -0.80885835       0.81055585       0.06869909
C       -0.67915144      -0.65833986      -0.28107927
C        1.01913393      -0.71126669       0.37822409
O        1.96711800      -0.66085482      -0.50059747
C        0.65752188       0.61414703      -0.12203107
H       -1.13022234       1.01465313       1.08644051
H       -1.28787855       1.46056165      -0.65787531
H       -1.21426961      -1.30466801       0.41065797
H       -0.90986538      -0.96227030      -1.29739835
H        1.12352892      -1.02821847       1.41990383
H        1.26294295       1.42570049      -0.50494402
11
Frame=13 idx=005809 GeodesicLength=0.7988545845465242 rxn_smarts="[C:1]1([H:6])([H:7])[C:2]([H:8])([H:9])[C@@:3]2([H:10])[O:4][C@@:5]12[H:11]>>[C:1]1([H:6])([H:7])[C:2]([H:8])([H:9])[C:5]1([C:3](=[O:4])[H:10])[H:11]"
C       -0.80620012       0.80698570       0.06800640
C       -0.68551318      -0.65861787      -0.29145355
C        1.02500212      -0.71359967       0.38423095
O        1.98166722      -0.64605635      -0.48522859
C        0.65727281       0.59402722      -0.14687262
H       -1.11439571       1.01166766       1.08934222
H       -1.28559978       1.46227580      -0.65336918
H       -1.21467454      -1.30548253       0.40441179
H       -0.93862711      -0.96002525      -1.30345968
H        1.12470436      -1.01663806       1.43003183
H        1.25636394       1.42546334      -0.49563955
11
Frame=14 idx=005809 GeodesicLength=0.8599375097832936 rxn_smarts="[C:1]1([H:6])([H:7])[C:2]([H:8])([H:9])[C@@:3]2([H:10])[O:4][C@@:5]12[H:11]>>[C:1]1([H:6])([H:7])[C:2]([H:8])([H:9])[C:5]1([C:3](=[O:4])[H:10])[H:11]"
C       -0.80314411       0.80327056       0.06708625
C       -0.69191261      -0.65898290      -0.30204705
C        1.03111738      -0.71546796       0.39019681
O        1.99606457      -0.63082433      -0.46985106
C        0.65707550       0.57353819      -0.17178679
H       -1.09847667       1.00855089       1.09174477
H       -1.28264219       1.46397595      -0.64909496
H       -1.21472933      -1.30641486       0.39815091
H       -0.96837043      -0.95737738      -1.30910765
H        1.12602946      -1.00454312       1.43993100
H        1.24898844       1.42427495      -0.48522223
11
Frame=15 idx=005809 GeodesicLength=0.9209742742685236 rxn_smarts="[C:1]1([H:6])([H:7])[C:2]([H:8])([H:9])[C@@:3]2([H:10])[O:4][C@@:5]12[H:11]>>[C:1]1([H:6])([H:7])[C:2]([H:8])([H:9])[C:5]1([C:3](=[O:4])[H:10])[H:11]"
C       -0.79967269       0.79940521       0.06607707
C       -0.69827989      -0.65935808      -0.31290545
C        1.03747082      -0.71684437       0.39628670
O        2.01028010      -0.61504100      -0.45429567
C        0.65700285       0.55275444      -0.19639948
H       -1.08257293       1.00516731       1.09379348
H       -1.27891732       1.46571996      -0.64489259
H       -1.21441925      -1.30750284       0.39166092
H       -0.99890862      -0.95407083      -1.31440739
H        1.12742407      -0.99206102       1.44973185
H        1.24059286       1.42183121      -0.47464941
11
Frame=16 idx=005809 GeodesicLength=0.9819927813636565 rxn_smarts="[C:1]1([H:6])([H:7])[C:2]([H:8])([H:9])[C@@:3]2([H:10])[O:4][C@@:5]12[H:11]>>[C:1]1([H:6])([H:7])[C:2]([H:8])([H:9])[C:5]1([C:3](=[O:4])[H:10])[H:11]"
C       -0.79580210       0.79539188       0.06510967
C       -0.70455407      -0.65967820      -0.32405511
C        1.04405825      -0.71773926       0.40265037
O        2.02428371      -0.59861427      -0.43842606
C        0.65711363       0.53174480      -0.22033936
H       -1.06683841       1.00140216       1.09562573
H       -1.27436925       1.46756698      -0.64062038
H       -1.21373842      -1.30879473       0.38476206
H       -1.03005037      -0.94988266      -1.31939784
H        1.12882120      -0.97935584       1.45955317
H        1.23107583       1.41795914      -0.46486224
