10
Frame=0 idx=010936 GeodesicLength=0.0 rxn_smarts="[N:1]([c:2]1[n:3][c:4]([H:10])[n:5][n:6][n:7]1)([H:8])[H:9]>>[N:1]([c:2]1[n:3]2[c:4]([H:10])[n:5][n:6]2[n:7]1)([H:8])[H:9]"
N        1.82455067      -0.15360220      -0.15751558
C        0.55557384       0.25728616       0.00936704
N       -0.33543953      -0.60573255       0.67318683
C       -1.57164041      -0.62634876       0.03632586
N       -1.98659114       0.52539598      -0.36454155
N       -1.06566796       1.21826703       0.35990463
N        0.06445710       1.39976871      -0.37936279
H        2.09673541      -0.97936564       0.34437445
H        2.52879395       0.51771497      -0.40144363
H       -2.11077193      -1.55338371      -0.12029526
10
Frame=1 idx=010936 GeodesicLength=0.023968824163650242 rxn_smarts="[N:1]([c:2]1[n:3][c:4]([H:10])[n:5][n:6][n:7]1)([H:8])[H:9]>>[N:1]([c:2]1[n:3]2[c:4]([H:10])[n:5][n:6]2[n:7]1)([H:8])[H:9]"
N        1.82738793      -0.15477459      -0.15779534
C        0.55630710       0.25207652       0.00091713
N       -0.33765944      -0.60014490       0.67022546
C       -1.56995785      -0.62915335       0.02934916
N       -1.99184073       0.52509101      -0.35963912
N       -1.06746290       1.22260636       0.35832442
N        0.06708088       1.40015375      -0.37637554
H        2.09989655      -0.98127066       0.34270069
H        2.53026835       0.52078885      -0.39421803
H       -2.11401991      -1.55537300      -0.11348882
10
Frame=2 idx=010936 GeodesicLength=0.04793418784925463 rxn_smarts="[N:1]([c:2]1[n:3][c:4]([H:10])[n:5][n:6][n:7]1)([H:8])[H:9]>>[N:1]([c:2]1[n:3]2[c:4]([H:10])[n:5][n:6]2[n:7]1)([H:8])[H:9]"
N        1.83016806      -0.15591704      -0.15806072
C        0.55704868       0.24693496      -0.00747545
N       -0.33987241      -0.59451434       0.66713636
C       -1.56824214      -0.63196130       0.02228524
N       -1.99705866       0.52466387      -0.35474753
N       -1.06932419       1.22699375       0.35660057
N        0.06975095       1.40051763      -0.37330441
H        2.10297545      -0.98329992       0.34079297
H        2.53167712       0.52385568      -0.38678520
H       -2.11712286      -1.55727330      -0.10644183
10
Frame=3 idx=010936 GeodesicLength=0.07191286349820561 rxn_smarts="[N:1]([c:2]1[n:3][c:4]([H:10])[n:5][n:6][n:7]1)([H:8])[H:9]>>[N:1]([c:2]1[n:3]2[c:4]([H:10])[n:5][n:6]2[n:7]1)([H:8])[H:9]"
N        1.83289053      -0.15699841      -0.15833923
C        0.55779479       0.24187522      -0.01582507
N       -0.34206620      -0.58876481       0.66399990
C       -1.56649315      -0.63477288       0.01524238
N       -2.00225508       0.52407656      -0.34989413
N       -1.07126320       1.23147867       0.35461584
N        0.07244596       1.40084067      -0.37028818
H        2.10586646      -0.98568212       0.33827681
H        2.53308511       0.52705070      -0.37873587
H       -2.12000522      -1.55910359      -0.09905244
10
Frame=4 idx=010936 GeodesicLength=0.09586890962427869 rxn_smarts="[N:1]([c:2]1[n:3][c:4]([H:10])[n:5][n:6][n:7]1)([H:8])[H:9]>>[N:1]([c:2]1[n:3]2[c:4]([H:10])[n:5][n:6]2[n:7]1)([H:8])[H:9]"
N        1.83557793      -0.15782497      -0.15868446
C        0.55854726       0.23706529      -0.02424328
N       -0.34416090      -0.58247672       0.66111595
C       -1.56464151      -0.63758886       0.00860313
N       -2.00744397       0.52309863      -0.34525796
N       -1.07334640       1.23624460       0.35181004
N        0.07507672       1.40106008      -0.36797913
H        2.10810157      -0.98949579       0.33315510
H        2.53471538       0.53090342      -0.36791118
H       -2.12242609      -1.56098569      -0.09060820
10
Frame=5 idx=010936 GeodesicLength=0.11982520216025686 rxn_smarts="[N:1]([c:2]1[n:3][c:4]([H:10])[n:5][n:6][n:7]1)([H:8])[H:9]>>[N:1]([c:2]1[n:3]2[c:4]([H:10])[n:5][n:6]2[n:7]1)([H:8])[H:9]"
N        1.83807822      -0.15892419      -0.15896134
C        0.55928725       0.23224168      -0.03226970
N       -0.34637186      -0.57641624       0.65806479
C       -1.56288072      -0.64033553       0.00182407
N       -2.01260578       0.52224084      -0.34034270
N       -1.07546722       1.24098154       0.34940925
N        0.07781140       1.40133306      -0.36492913
H        2.11071832      -0.99222055       0.33000344
H        2.53588262       0.53385433      -0.35949397
H       -2.12445223      -1.56275493      -0.08330472
10
Frame=6 idx=010936 GeodesicLength=0.14376580192605165 rxn_smarts="[N:1]([c:2]1[n:3][c:4]([H:10])[n:5][n:6][n:7]1)([H:8])[H:9]>>[N:1]([c:2]1[n:3]2[c:4]([H:10])[n:5][n:6]2[n:7]1)([H:8])[H:9]"
N        1.84042403      -0.16012620      -0.15921969
C        0.56001674       0.22755569      -0.03997517
N       -0.34863675      -0.57022590       0.65511804
C       -1.56114290      -0.64301666      -0.00478884
N       -2.01774641       0.52129890      -0.33534942
N       -1.07769759       1.24585084       0.34691131
N        0.08057620       1.40161509      -0.36168594
H        2.11330338      -0.99489838       0.32707803
H        2.53684498       0.53648138      -0.35162452
H       -2.12594168      -1.56453475      -0.07646380
10
Frame=7 idx=010936 GeodesicLength=0.16770224570929848 rxn_smarts="[N:1]([c:2]1[n:3][c:4]([H:10])[n:5][n:6][n:7]1)([H:8])[H:9]>>[N:1]([c:2]1[n:3]2[c:4]([H:10])[n:5][n:6]2[n:7]1)([H:8])[H:9]"
N        1.84260477      -0.16151617      -0.15943763
C        0.56073465       0.22296609      -0.04727890
N       -0.35098781      -0.56402654       0.65221591
C       -1.55945794      -0.64561094      -0.01130977
N       -2.02287085       0.52035569      -0.33019000
N       -1.08002313       1.25080220       0.34451843
N        0.08339304       1.40192781      -0.35801330
H        2.11602127      -0.99710547       0.32513675
H        2.53752484       0.53852684      -0.34517050
H       -2.12693883      -1.56631949      -0.07047098
10
Frame=8 idx=010936 GeodesicLength=0.1916166329805251 rxn_smarts="[N:1]([c:2]1[n:3][c:4]([H:10])[n:5][n:6][n:7]1)([H:8])[H:9]>>[N:1]([c:2]1[n:3]2[c:4]([H:10])[n:5][n:6]2[n:7]1)([H:8])[H:9]"
N        1.84461659      -0.16307246      -0.15962255
C        0.56143663       0.21850281      -0.05416428
N       -0.35342623      -0.55776023       0.64942224
C       -1.55781814      -0.64811370      -0.01767818
N       -2.02797353       0.51938317      -0.32489036
N       -1.08245057       1.25586800       0.34214972
N        0.08625512       1.40226964      -0.35397708
H        2.11879559      -0.99898736       0.32394810
H        2.53797198       0.54006396      -0.33991650
H       -2.12740745      -1.56815383      -0.06527112
10
Frame=9 idx=010936 GeodesicLength=0.2155387617208881 rxn_smarts="[N:1]([c:2]1[n:3][c:4]([H:10])[n:5][n:6][n:7]1)([H:8])[H:9]>>[N:1]([c:2]1[n:3]2[c:4]([H:10])[n:5][n:6]2[n:7]1)([H:8])[H:9]"
N        1.84648408      -0.16475945      -0.15979225
C        0.56213226       0.21414853      -0.06068603
N       -0.35592874      -0.55141735       0.64673010
C       -1.55620921      -0.65053861      -0.02389065
N       -2.03306528       0.51836695      -0.31947787
N       -1.08497917       1.26105638       0.33973725
N        0.08915511       1.40262687      -0.34965804
H        2.12157388      -1.00066166       0.32326101
H        2.53825448       0.54121616      -0.33553495
H       -2.12741741      -1.57003781      -0.06068857
10
Frame=10 idx=010936 GeodesicLength=0.2394482697503834 rxn_smarts="[N:1]([c:2]1[n:3][c:4]([H:10])[n:5][n:6][n:7]1)([H:8])[H:9]>>[N:1]([c:2]1[n:3]2[c:4]([H:10])[n:5][n:6]2[n:7]1)([H:8])[H:9]"
N        1.84823491      -0.16651675      -0.15996605
C        0.56282220       0.20993505      -0.06692070
N       -0.35846647      -0.54491452       0.64416091
C       -1.55461075      -0.65289150      -0.02988579
N       -2.03815290       0.51724934      -0.31399134
N       -1.08761418       1.26639202       0.33713097
N        0.09207118       1.40298651      -0.34522555
H        2.12425626      -1.00240923       0.32256102
H        2.53845161       0.54216239      -0.33140520
H       -2.12699186      -1.57199331      -0.05645827
10
Frame=11 idx=010936 GeodesicLength=0.26336151059035534 rxn_smarts="[N:1]([c:2]1[n:3][c:4]([H:10])[n:5][n:6][n:7]1)([H:8])[H:9]>>[N:1]([c:2]1[n:3]2[c:4]([H:10])[n:5][n:6]2[n:7]1)([H:8])[H:9]"
N        1.84989205      -0.16828828      -0.16016278
C        0.56350587       0.20586033      -0.07293113
N       -0.36101372      -0.53819228       0.64174538
C       -1.55300861      -0.65518783      -0.03559742
N       -2.04324608       0.51599778      -0.30845725
N       -1.09035464       1.27191006       0.33419659
N        0.09498528       1.40333260      -0.34084131
H        2.12675264      -1.00445429       0.32139695
H        2.53862932       0.54305867      -0.32698196
H       -2.12614211      -1.57403677      -0.05236706
10
Frame=12 idx=010936 GeodesicLength=0.2872869953103983 rxn_smarts="[N:1]([c:2]1[n:3][c:4]([H:10])[n:5][n:6][n:7]1)([H:8])[H:9]>>[N:1]([c:2]1[n:3]2[c:4]([H:10])[n:5][n:6]2[n:7]1)([H:8])[H:9]"
N        1.85146615      -0.17006926      -0.16038310
C        0.56418635       0.20191829      -0.07873819
N       -0.36356577      -0.53125593       0.63946642
C       -1.55140154      -0.65743097      -0.04103628
N       -2.04835307       0.51461379      -0.30286690
N       -1.09319727       1.27760543       0.33092052
N        0.09789823       1.40366983      -0.33651113
H        2.12907899      -1.00680189       0.31974919
H        2.53879176       0.54391871      -0.32221860
H       -2.12490382      -1.57616798      -0.04838193
10
Frame=13 idx=010936 GeodesicLength=0.31120845294661725 rxn_smarts="[N:1]([c:2]1[n:3][c:4]([H:10])[n:5][n:6][n:7]1)([H:8])[H:9]>>[N:1]([c:2]1[n:3]2[c:4]([H:10])[n:5][n:6]2[n:7]1)([H:8])[H:9]"
N        1.85297722      -0.17180918      -0.16063720
C        0.56486051       0.19811318      -0.08441305
N       -0.36609507      -0.52405043       0.63733499
C       -1.54977235      -0.65963025      -0.04614183
N       -2.05347822       0.51307126      -0.29722844
N       -1.09614456       1.28349660       0.32717250
N        0.10078517       1.40398453      -0.33238352
H        2.13115047      -1.00965377       0.31720813
H        2.53898899       0.54487167      -0.31660751
H       -2.12327216      -1.57839361      -0.04430406
10
Frame=14 idx=010936 GeodesicLength=0.335137054828763 rxn_smarts="[N:1]([c:2]1[n:3][c:4]([H:10])[n:5][n:6][n:7]1)([H:8])[H:9]>>[N:1]([c:2]1[n:3]2[c:4]([H:10])[n:5][n:6]2[n:7]1)([H:8])[H:9]"
N        1.85439492      -0.17361766      -0.16088604
C        0.56553310       0.19442712      -0.08979118
N       -0.36866579      -0.51673521       0.63528336
C       -1.54814931      -0.66177179      -0.05108543
N       -2.05860101       0.51145355      -0.29150495
N       -1.09919341       1.28951131       0.32322280
N        0.10369682       1.40432817      -0.32807768
H        2.13317906      -1.01250799       0.31474878
H        2.53911130       0.54560408      -0.31135082
H       -2.12130569      -1.58069156      -0.04055884
10
Frame=15 idx=010936 GeodesicLength=0.3590572504015132 rxn_smarts="[N:1]([c:2]1[n:3][c:4]([H:10])[n:5][n:6][n:7]1)([H:8])[H:9]>>[N:1]([c:2]1[n:3]2[c:4]([H:10])[n:5][n:6]2[n:7]1)([H:8])[H:9]"
N        1.85570979      -0.17553954      -0.16109943
C        0.56620547       0.19084184      -0.09483246
N       -0.37129456      -0.50939974       0.63325338
C       -1.54653604      -0.66384364      -0.05595480
N       -2.06370773       0.50980525      -0.28566649
N       -1.10233584       1.29560259       0.31919249
N        0.10664443       1.40471335      -0.32342252
H        2.13525180      -1.01514030       0.31281999
H        2.53911496       0.54599769      -0.30697670
H       -2.11905229      -1.58303750      -0.03731345
10
Frame=16 idx=010936 GeodesicLength=0.3829751379394718 rxn_smarts="[N:1]([c:2]1[n:3][c:4]([H:10])[n:5][n:6][n:7]1)([H:8])[H:9]>>[N:1]([c:2]1[n:3]2[c:4]([H:10])[n:5][n:6]2[n:7]1)([H:8])[H:9]"
N        1.85695081      -0.17751792      -0.16129626
C        0.56687769       0.18736357      -0.09960160
N       -0.37396133      -0.50198397       0.63126970
C       -1.54492803      -0.66586117      -0.06069102
N       -2.06880965       0.50808848      -0.27973639
N       -1.10557116       1.30179664       0.31494699
N        0.10961408       1.40512465      -0.31857858
H        2.13729118      -1.01777462       0.31097158
H        2.53906575       0.54620723      -0.30293671
H       -2.11652933      -1.58544290      -0.03434770
