15
Frame=0 idx=006588 GeodesicLength=0.0 rxn_smarts="[C:1]([C@@:2]([C:3]([C:4]#[C:5][H:14])([H:12])[H:13])([C:6]#[C:7][H:15])[H:11])([H:8])([H:9])[H:10]>>[C:1]([C@@:2]1([H:11])[C:3]([H:12])([H:13])[C:4](=[C:5])[C:6]1=[C:7]([H:14])[H:15])([H:8])([H:9])[H:10]"
C       -0.60036485      -1.60610238      -0.71661356
C        0.34913070      -0.56537738      -0.12045948
C        0.86830101       0.51091608      -1.11038036
C        1.00666411       1.70317305      -0.26310635
C        0.78979589       2.43294803       0.70338209
C       -0.29076854       0.20481788       0.95623043
C       -0.87376420       0.76876140       1.91155292
H       -1.48664248      -1.12806662      -1.13543282
H       -0.08444146      -2.13723906      -1.51750208
H       -0.91571291      -2.33957268       0.02593098
H        1.21383142      -1.06358706       0.32756635
H        1.79390294       0.17174914      -1.57943893
H        0.13545532       0.67747775      -1.90531461
H       -0.28338158       1.84787632       1.77881923
H       -1.62200542       0.52222559       2.64476624
15
Frame=1 idx=006588 GeodesicLength=0.14969583293548813 rxn_smarts="[C:1]([C@@:2]([C:3]([C:4]#[C:5][H:14])([H:12])[H:13])([C:6]#[C:7][H:15])[H:11])([H:8])([H:9])[H:10]>>[C:1]([C@@:2]1([H:11])[C:3]([H:12])([H:13])[C:4](=[C:5])[C:6]1=[C:7]([H:14])[H:15])([H:8])([H:9])[H:10]"
C       -0.58286395      -1.62856578      -0.71726735
C        0.33338301      -0.56056331      -0.12117925
C        0.83803361       0.51920251      -1.11400337
C        1.03316326       1.68935574      -0.24662691
C        0.88350320       2.41927469       0.73352587
C       -0.33278248       0.21545133       0.93461775
C       -0.89050426       0.77736842       1.90724115
H       -1.47077707      -1.17805719      -1.16206469
H       -0.03752817      -2.16183658      -1.49732269
H       -0.89664459      -2.35703060       0.03092663
H        1.19629320      -1.04210929       0.34894790
H        1.73839108       0.17958961      -1.62859947
H        0.08489166       0.72749635      -1.87947023
H       -0.22739374       1.87084328       1.80284931
H       -1.66916476       0.52958082       2.60842537
15
Frame=2 idx=006588 GeodesicLength=0.2991373262842135 rxn_smarts="[C:1]([C@@:2]([C:3]([C:4]#[C:5][H:14])([H:12])[H:13])([C:6]#[C:7][H:15])[H:11])([H:8])([H:9])[H:10]>>[C:1]([C@@:2]1([H:11])[C:3]([H:12])([H:13])[C:4](=[C:5])[C:6]1=[C:7]([H:14])[H:15])([H:8])([H:9])[H:10]"
C       -0.56546902      -1.64922890      -0.71735614
C        0.31791747      -0.55578049      -0.12164047
C        0.80810722       0.52752065      -1.11724634
C        1.05635870       1.67490723      -0.23236901
C        0.97156016       2.40262288       0.75825519
C       -0.37274334       0.22622112       0.91348584
C       -0.90803630       0.78409303       1.90216149
H       -1.45293834      -1.22521738      -1.18808920
H        0.00889434      -2.18405710      -1.47555160
H       -0.87934223      -2.37206557       0.03630701
H        1.17812881      -1.02138389       0.36995008
H        1.68284093       0.18970751      -1.67445905
H        0.03780981       0.77560598      -1.85313089
H       -0.16802456       1.88957246       1.82789399
H       -1.71506365       0.53748246       2.57178911
15
Frame=3 idx=006588 GeodesicLength=0.4482998684731492 rxn_smarts="[C:1]([C@@:2]([C:3]([C:4]#[C:5][H:14])([H:12])[H:13])([C:6]#[C:7][H:15])[H:11])([H:8])([H:9])[H:10]>>[C:1]([C@@:2]1([H:11])[C:3]([H:12])([H:13])[C:4](=[C:5])[C:6]1=[C:7]([H:14])[H:15])([H:8])([H:9])[H:10]"
C       -0.54812125      -1.66829178      -0.71682497
C        0.30292606      -0.55115680      -0.12180457
C        0.77840895       0.53586971      -1.12005507
C        1.07694763       1.65985187      -0.21985456
C        1.05527666       2.38352187       0.77823464
C       -0.41022098       0.23664572       0.89338049
C       -0.92668706       0.78923451       1.89623024
H       -1.43345899      -1.26974144      -1.21291451
H        0.05457575      -2.20380082      -1.45256717
H       -0.86328161      -2.38524800       0.04196288
H        1.15975332      -1.00159101       0.39033691
H        1.62701804       0.20181589      -1.71754161
H       -0.00639629       0.82222978      -1.82606361
H       -0.10642584       1.90492309       1.85293161
H       -1.76031438       0.54573741       2.53454931
15
Frame=4 idx=006588 GeodesicLength=0.5972381763682264 rxn_smarts="[C:1]([C@@:2]([C:3]([C:4]#[C:5][H:14])([H:12])[H:13])([C:6]#[C:7][H:15])[H:11])([H:8])([H:9])[H:10]>>[C:1]([C@@:2]1([H:11])[C:3]([H:12])([H:13])[C:4](=[C:5])[C:6]1=[C:7]([H:14])[H:15])([H:8])([H:9])[H:10]"
C       -0.53081539      -1.68591660      -0.71578473
C        0.28837586      -0.54674474      -0.12164114
C        0.74893673       0.54419398      -1.12235563
C        1.09545078       1.64417903      -0.20875329
C        1.13564998       2.36235443       0.79386265
C       -0.44539388       0.24655769       0.87442698
C       -0.94694302       0.79327313       1.88928614
H       -1.41254460      -1.31182555      -1.23653341
H        0.09947073      -2.22109818      -1.42865483
H       -0.84826592      -2.39696334       0.04764941
H        1.14118485      -0.98278443       0.41021873
H        1.57090006       0.21554054      -1.75798867
H       -0.04792073       0.86762409      -1.79820584
H       -0.04353135       1.91816004       1.87704644
H       -1.80455409       0.55344990       2.49742719
15
Frame=5 idx=006588 GeodesicLength=0.7457048886588556 rxn_smarts="[C:1]([C@@:2]([C:3]([C:4]#[C:5][H:14])([H:12])[H:13])([C:6]#[C:7][H:15])[H:11])([H:8])([H:9])[H:10]>>[C:1]([C@@:2]1([H:11])[C:3]([H:12])([H:13])[C:4](=[C:5])[C:6]1=[C:7]([H:14])[H:15])([H:8])([H:9])[H:10]"
C       -0.51352324      -1.70227587      -0.71431917
C        0.27427442      -0.54262253      -0.12111446
C        0.71960129       0.55248892      -1.12405566
C        1.11228130       1.62784955      -0.19875084
C        1.21370390       2.33915557       0.80558468
C       -0.47835047       0.25575292       0.85680827
C       -0.96864755       0.79621122       1.88173506
H       -1.39042036      -1.35166507      -1.25884056
H        0.14351804      -2.23595830      -1.40415691
H       -0.83398888      -2.40762228       0.05318292
H        1.12253387      -0.96505674       0.42960644
H        1.51432322       0.23069720      -1.79597481
H       -0.08705522       0.91208068      -1.76935675
H        0.01988892       1.93073739       1.89931793
H       -1.84813925       0.56022732       2.46033386
15
Frame=6 idx=006588 GeodesicLength=0.8940374483926716 rxn_smarts="[C:1]([C@@:2]([C:3]([C:4]#[C:5][H:14])([H:12])[H:13])([C:6]#[C:7][H:15])[H:11])([H:8])([H:9])[H:10]>>[C:1]([C@@:2]1([H:11])[C:3]([H:12])([H:13])[C:4](=[C:5])[C:6]1=[C:7]([H:14])[H:15])([H:8])([H:9])[H:10]"
C       -0.49620079      -1.71749489      -0.71252423
C        0.26044224      -0.53871365      -0.12021070
C        0.69033217       0.56074071      -1.12516469
C        1.12742146       1.61101235      -0.18980555
C        1.28991999       2.31424835       0.81333918
C       -0.50963217       0.26436089       0.84032520
C       -0.99223488       0.79828503       1.87350288
H       -1.36710452      -1.38954244      -1.28012482
H        0.18689675      -2.24852324      -1.37909572
H       -0.82038132      -2.41740500       0.05842893
H        1.10360692      -0.94818951       0.44876179
H        1.45735342       0.24700823      -1.83142398
H       -0.12386969       0.95559349      -1.73972485
H        0.08473253       1.94321856       1.92016660
H       -1.89128210       0.56540112       2.42354997
15
Frame=7 idx=006588 GeodesicLength=1.0422248265846341 rxn_smarts="[C:1]([C@@:2]([C:3]([C:4]#[C:5][H:14])([H:12])[H:13])([C:6]#[C:7][H:15])[H:11])([H:8])([H:9])[H:10]>>[C:1]([C@@:2]1([H:11])[C:3]([H:12])([H:13])[C:4](=[C:5])[C:6]1=[C:7]([H:14])[H:15])([H:8])([H:9])[H:10]"
C       -0.47879483      -1.73167315      -0.71042420
C        0.24675589      -0.53495121      -0.11889648
C        0.66103097       0.56897525      -1.12567315
C        1.14088800       1.59380564      -0.18182594
C        1.36484444       2.28772937       0.81711216
C       -0.53961470       0.27247448       0.82487781
C       -1.01799110       0.79956762       1.86464493
H       -1.34263660      -1.42568276      -1.30048230
H        0.22972264      -2.25885609      -1.35350237
H       -0.80728937      -2.42648371       0.06334737
H        1.08428884      -0.93200685       0.46786854
H        1.39998135       0.26431135      -1.86434383
H       -0.15851674       0.99824269      -1.70940703
H        0.15180442       1.95606251       1.93977039
H       -1.93447322       0.56848487       2.38693409
15
Frame=8 idx=006588 GeodesicLength=1.1903158804916356 rxn_smarts="[C:1]([C@@:2]([C:3]([C:4]#[C:5][H:14])([H:12])[H:13])([C:6]#[C:7][H:15])[H:11])([H:8])([H:9])[H:10]>>[C:1]([C@@:2]1([H:11])[C:3]([H:12])([H:13])[C:4](=[C:5])[C:6]1=[C:7]([H:14])[H:15])([H:8])([H:9])[H:10]"
C       -0.46123477      -1.74487107      -0.70799648
C        0.23308940      -0.53123784      -0.11712871
C        0.63158767       0.57723685      -1.12557701
C        1.15261941       1.57640181      -0.17473865
C        1.43888308       2.25971656       0.81673217
C       -0.56866712       0.28022124       0.81034957
C       -1.04633721       0.80012078       1.85510335
H       -1.31700769      -1.46028565      -1.31997345
H        0.27213288      -2.26699299      -1.32732619
H       -0.79455885      -2.43496272       0.06795921
H        1.06445307      -0.91627306       0.48711569
H        1.34220231       0.28246679      -1.89473217
H       -0.19116227       1.04007505      -1.67851931
H        0.22234226       1.96934277       1.95853895
H       -1.97834215       0.56904147       2.35019302
15
Frame=9 idx=006588 GeodesicLength=1.3382296685520276 rxn_smarts="[C:1]([C@@:2]([C:3]([C:4]#[C:5][H:14])([H:12])[H:13])([C:6]#[C:7][H:15])[H:11])([H:8])([H:9])[H:10]>>[C:1]([C@@:2]1([H:11])[C:3]([H:12])([H:13])[C:4](=[C:5])[C:6]1=[C:7]([H:14])[H:15])([H:8])([H:9])[H:10]"
C       -0.44344515      -1.75712634      -0.70518657
C        0.21935785      -0.52749370      -0.11483974
C        0.60187708       0.58559752      -1.12482963
C        1.16258017       1.55895914      -0.16840714
C        1.51249828       2.23016043       0.81202207
C       -0.59703766       0.28767779       0.79672492
C       -1.07768143       0.79986047       1.84488003
H       -1.29021941      -1.49348969      -1.33855967
H        0.31422662      -2.27291831      -1.30053834
H       -0.78199217      -2.44294618       0.07232015
H        1.04403187      -0.90080185       0.50664797
H        1.28394873       0.30141283      -1.92260943
H       -0.22201675       1.08119273      -1.64706450
H        0.29749314       1.98319694       1.97662726
H       -2.02362117       0.56671823       2.31281262
15
Frame=10 idx=006588 GeodesicLength=1.4860266190125708 rxn_smarts="[C:1]([C@@:2]([C:3]([C:4]#[C:5][H:14])([H:12])[H:13])([C:6]#[C:7][H:15])[H:11])([H:8])([H:9])[H:10]>>[C:1]([C@@:2]1([H:11])[C:3]([H:12])([H:13])[C:4](=[C:5])[C:6]1=[C:7]([H:14])[H:15])([H:8])([H:9])[H:10]"
C       -0.42529019      -1.76844387      -0.70186392
C        0.20544292      -0.52356826      -0.11194188
C        0.57171821       0.59416080      -1.12340621
C        1.17052935       1.54176305      -0.16274839
C        1.58594582       2.19918812       0.80251203
C       -0.62507171       0.29498883       0.78393227
C       -1.11271400       0.79880511       1.83376104
H       -1.26217579      -1.52547594      -1.35617850
H        0.35620919      -2.27657891      -1.27296331
H       -0.76934530      -2.45046735       0.07658318
H        1.02291336      -0.88524380       0.52667259
H        1.22514617       0.32110787      -1.94796482
H       -0.25136020       1.12160595      -1.61514162
H        0.37934618       1.99686477       1.99472914
H       -2.07129400       0.56129364       2.27401840
15
Frame=11 idx=006588 GeodesicLength=1.633673568979964 rxn_smarts="[C:1]([C@@:2]([C:3]([C:4]#[C:5][H:14])([H:12])[H:13])([C:6]#[C:7][H:15])[H:11])([H:8])([H:9])[H:10]>>[C:1]([C@@:2]1([H:11])[C:3]([H:12])([H:13])[C:4](=[C:5])[C:6]1=[C:7]([H:14])[H:15])([H:8])([H:9])[H:10]"
C       -0.40647349      -1.77889891      -0.69784531
C        0.19135571      -0.51939747      -0.10829037
C        0.54069713       0.60311452      -1.12116635
C        1.17610869       1.52514174      -0.15756845
C        1.65952392       2.16679285       0.78763699
C       -0.65286466       0.30199843       0.77224423
C       -1.15188896       0.79643731       1.82191892
H       -1.23278575      -1.55650516      -1.37248714
H        0.39837821      -2.27780246      -1.24461127
H       -0.75594585      -2.45777085       0.08095874
H        1.00128608      -0.86932153       0.54722626
H        1.16530315       0.34178621      -1.97087226
H       -0.27988873       1.16138647      -1.58247092
H        0.47042967       2.00905594       2.01358153
H       -2.12323511       0.55398293       2.23174540
15
Frame=12 idx=006588 GeodesicLength=1.7811474205019389 rxn_smarts="[C:1]([C@@:2]([C:3]([C:4]#[C:5][H:14])([H:12])[H:13])([C:6]#[C:7][H:15])[H:11])([H:8])([H:9])[H:10]>>[C:1]([C@@:2]1([H:11])[C:3]([H:12])([H:13])[C:4](=[C:5])[C:6]1=[C:7]([H:14])[H:15])([H:8])([H:9])[H:10]"
C       -0.38663702      -1.78851124      -0.69288274
C        0.17704873      -0.51484844      -0.10367390
C        0.50837326       0.61267405      -1.11791110
C        1.17883192       1.50954015      -0.15262402
C        1.73338115       2.13308272       0.76651822
C       -0.68066921       0.30861763       0.76190897
C       -1.19610170       0.79236302       1.80924209
H       -1.20184793      -1.58682988      -1.38715292
H        0.44115636      -2.27632713      -1.21536174
H       -0.74108088      -2.46503107       0.08573689
H        0.97922926      -0.85263109       0.56850384
H        1.10391110       0.36369382      -1.99128651
H       -0.30832083       1.20056866      -1.54878266
H        0.57389983       2.01775428       2.03388283
H       -2.18117406       0.54588451       2.18388276
15
Frame=13 idx=006588 GeodesicLength=1.9285222381925746 rxn_smarts="[C:1]([C@@:2]([C:3]([C:4]#[C:5][H:14])([H:12])[H:13])([C:6]#[C:7][H:15])[H:11])([H:8])([H:9])[H:10]>>[C:1]([C@@:2]1([H:11])[C:3]([H:12])([H:13])[C:4](=[C:5])[C:6]1=[C:7]([H:14])[H:15])([H:8])([H:9])[H:10]"
C       -0.36556889      -1.79702483      -0.68658389
C        0.16218341      -0.50948342      -0.09782894
C        0.47460339       0.62303316      -1.11352034
C        1.17816693       1.49556777      -0.14765205
C        1.80740717       2.09852146       0.73780105
C       -0.70932294       0.31535075       0.75263116
C       -1.24735788       0.78715126       1.79448893
H       -1.16892698      -1.61651370      -1.40012822
H        0.48498921      -2.27181964      -1.18442872
H       -0.72463055      -2.47189787       0.09135407
H        0.95616736      -0.83435881       0.59119928
H        1.04108994       0.38671889      -2.00890051
H       -0.33684542       1.23912397      -1.51441583
H        0.69354397       2.02015146       2.05602810
H       -2.24549872       0.53547955       2.12995590
15
Frame=14 idx=006588 GeodesicLength=2.075799169151853 rxn_smarts="[C:1]([C@@:2]([C:3]([C:4]#[C:5][H:14])([H:12])[H:13])([C:6]#[C:7][H:15])[H:11])([H:8])([H:9])[H:10]>>[C:1]([C@@:2]1([H:11])[C:3]([H:12])([H:13])[C:4](=[C:5])[C:6]1=[C:7]([H:14])[H:15])([H:8])([H:9])[H:10]"
C       -0.34293538      -1.80413002      -0.67837123
C        0.14650146      -0.50283577      -0.09032550
C        0.43908877       0.63454288      -1.10767784
C        1.17356748       1.48394796      -0.14211855
C        1.88156641       2.06335856       0.69991675
C       -0.73948861       0.32258338       0.74448694
C       -1.30755770       0.78085628       1.77670617
H       -1.13356824      -1.64555280      -1.41099175
H        0.53036060      -2.26372502      -1.15101059
H       -0.70614366      -2.47807810       0.09844723
H        0.93169025      -0.81367136       0.61601377
H        0.97661854       0.41102030      -2.02341686
H       -0.36595404       1.27724507      -1.47931309
H        0.83388683       2.01287772       2.07952665
H       -2.31763271       0.52156092       2.06812790
15
Frame=15 idx=006588 GeodesicLength=2.222974431673359 rxn_smarts="[C:1]([C@@:2]([C:3]([C:4]#[C:5][H:14])([H:12])[H:13])([C:6]#[C:7][H:15])[H:11])([H:8])([H:9])[H:10]>>[C:1]([C@@:2]1([H:11])[C:3]([H:12])([H:13])[C:4](=[C:5])[C:6]1=[C:7]([H:14])[H:15])([H:8])([H:9])[H:10]"
C       -0.31836429      -1.80931203      -0.66748749
C        0.12965101      -0.49430636      -0.08052767
C        0.40158505       0.64766757      -1.09982301
C        1.16450827       1.47544268      -0.13507678
C        1.95547695       2.02800383       0.65088978
C       -0.77202762       0.33078221       0.73763081
C       -1.37901322       0.77331062       1.75461353
H       -1.09513039      -1.67373847      -1.41922501
H        0.57781674      -2.25122343      -1.11398488
H       -0.68523734      -2.48307443       0.10776730
H        0.90517277      -0.78957326       0.64392349
H        0.91036152       0.43682069      -2.03427049
H       -0.39606084       1.31527333      -1.44325073
H        1.00046876       1.99176339       2.10253404
H       -2.39920737       0.50216365       1.99628711
15
Frame=16 idx=006588 GeodesicLength=2.369951155756859 rxn_smarts="[C:1]([C@@:2]([C:3]([C:4]#[C:5][H:14])([H:12])[H:13])([C:6]#[C:7][H:15])[H:11])([H:8])([H:9])[H:10]>>[C:1]([C@@:2]1([H:11])[C:3]([H:12])([H:13])[C:4](=[C:5])[C:6]1=[C:7]([H:14])[H:15])([H:8])([H:9])[H:10]"
C       -0.29200602      -1.81145078      -0.65278975
C        0.11080888      -0.48273192      -0.06759507
C        0.36267720       0.66301602      -1.08936668
C        1.15111914       1.47076027      -0.12513413
C        2.02834611       1.99294173       0.58873266
C       -0.80855870       0.34158169       0.73142353
C       -1.46562532       0.76573186       1.72484850
H       -1.05289360      -1.70016421      -1.42441610
H        0.62744056      -2.23328543      -1.07109193
H       -0.66282711      -2.48541865       0.12040622
H        0.87476089      -0.76057283       0.67676945
H        0.84347111       0.46394304      -2.04054604
H       -0.42620882       1.35403953      -1.40670482
H        1.19917836       1.95245843       2.12047182
H       -2.48968266       0.46915126       1.91499234
