13
Frame=0 idx=002096 GeodesicLength=0.0 rxn_smarts="[C:1]([c:2]1[c:3]([H:10])[c:4]([H:11])[c:5]([H:12])[n:6]1[H:13])([H:7])([H:8])[H:9]>>[C:1]([C:2]1=[C:3]([H:10])[C:4]([H:11])=[C-:5][N+:6]1([H:12])[H:13])([H:7])([H:8])[H:9]"
C        1.83822322      -0.06362482      -0.12741450
C        0.36134750       0.04508641       0.03787679
C       -0.45974020       1.11157236       0.21598937
C       -1.81164547       0.66252404       0.26343163
C       -1.93666858      -0.70802473       0.21829521
N       -0.47437089      -1.06823096      -0.02744433
H        2.28360783      -0.72997474       0.61588553
H        2.10754820      -0.44056098      -1.11745410
H        2.29643633       0.91717969      -0.00883962
H       -0.12354601       2.13750478       0.27662880
H       -2.66805664       1.31689406       0.34561931
H       -1.24710105      -1.17870819      -0.89516211
H       -0.16603425      -2.00163696       0.20258805
13
Frame=1 idx=002096 GeodesicLength=0.04369991905581992 rxn_smarts="[C:1]([c:2]1[c:3]([H:10])[c:4]([H:11])[c:5]([H:12])[n:6]1[H:13])([H:7])([H:8])[H:9]>>[C:1]([C:2]1=[C:3]([H:10])[C:4]([H:11])=[C-:5][N+:6]1([H:12])[H:13])([H:7])([H:8])[H:9]"
C        1.83863350      -0.06270463      -0.12890217
C        0.36144710       0.04700821       0.03184628
C       -0.45807170       1.11287620       0.21804793
C       -1.81082051       0.66359689       0.26801659
C       -1.93096719      -0.70603569       0.21831001
N       -0.47474354      -1.06757031      -0.03223496
H        2.28250242      -0.72574181       0.61832304
H        2.11040323      -0.44366418      -1.11676904
H        2.29686478       0.91843966      -0.01309585
H       -0.12082339       2.13758666       0.29130706
H       -2.66863444       1.31740448       0.33809112
H       -1.26056372      -1.19338529      -0.90166602
H       -0.16522654      -1.99781018       0.20872600
13
Frame=2 idx=002096 GeodesicLength=0.08739901486774652 rxn_smarts="[C:1]([c:2]1[c:3]([H:10])[c:4]([H:11])[c:5]([H:12])[n:6]1[H:13])([H:7])([H:8])[H:9]>>[C:1]([C:2]1=[C:3]([H:10])[C:4]([H:11])=[C-:5][N+:6]1([H:12])[H:13])([H:7])([H:8])[H:9]"
C        1.83903282      -0.06173720      -0.13040993
C        0.36156189       0.04897689       0.02597781
C       -0.45635463       1.11417627       0.22037544
C       -1.80998768       0.66471685       0.27240348
C       -1.92531683      -0.70396051       0.21788799
N       -0.47509120      -1.06687637      -0.03696780
H        2.28145293      -0.72153779       0.62059611
H        2.11313244      -0.44659731      -1.11615683
H        2.29731292       0.91971764      -0.01730695
H       -0.11804402       2.13752434       0.30604881
H       -2.66905817       1.31792925       0.33049578
H       -1.27420388      -1.20849708      -0.90784394
H       -0.16443659      -1.99383498       0.21490003
13
Frame=3 idx=002096 GeodesicLength=0.13109902324096173 rxn_smarts="[C:1]([c:2]1[c:3]([H:10])[c:4]([H:11])[c:5]([H:12])[n:6]1[H:13])([H:7])([H:8])[H:9]>>[C:1]([C:2]1=[C:3]([H:10])[C:4]([H:11])=[C-:5][N+:6]1([H:12])[H:13])([H:7])([H:8])[H:9]"
C        1.83942398      -0.06072384      -0.13192346
C        0.36169574       0.05098845       0.02031076
C       -0.45459031       1.11546735       0.22297913
C       -1.80915469       0.66588719       0.27653900
C       -1.91972775      -0.70179371       0.21697822
N       -0.47541102      -1.06615063      -0.04163931
H        2.28047115      -0.71738992       0.62269463
H        2.11572784      -0.44933199      -1.11562054
H        2.29778353       0.92100992      -0.02143252
H       -0.11522256       2.13733261       0.32074603
H       -2.66932354       1.31847933       0.32295509
H       -1.28799492      -1.22405767      -0.91370219
H       -0.16367744      -1.98971709       0.22111514
13
Frame=4 idx=002096 GeodesicLength=0.17480963996400034 rxn_smarts="[C:1]([c:2]1[c:3]([H:10])[c:4]([H:11])[c:5]([H:12])[n:6]1[H:13])([H:7])([H:8])[H:9]>>[C:1]([C:2]1=[C:3]([H:10])[C:4]([H:11])=[C-:5][N+:6]1([H:12])[H:13])([H:7])([H:8])[H:9]"
C        1.83981020      -0.05966581      -0.13343650
C        0.36185181       0.05304112       0.01486037
C       -0.45278498       1.11674939       0.22581565
C       -1.80832945       0.66711079       0.28037216
C       -1.91420850      -0.69953055       0.21553993
N       -0.47569873      -1.06539488      -0.04624648
H        2.27956385      -0.71330617       0.62462109
H        2.11819077      -0.45186477      -1.11515921
H        2.29827762       0.92231625      -0.02546108
H       -0.11235970       2.13703028       0.33538794
H       -2.66943476       1.31906696       0.31556456
H       -1.30191973      -1.24009290      -0.91924077
H       -0.16295839      -1.98545971       0.22738234
13
Frame=5 idx=002096 GeodesicLength=0.2185059170850971 rxn_smarts="[C:1]([c:2]1[c:3]([H:10])[c:4]([H:11])[c:5]([H:12])[n:6]1[H:13])([H:7])([H:8])[H:9]>>[C:1]([C:2]1=[C:3]([H:10])[C:4]([H:11])=[C-:5][N+:6]1([H:12])[H:13])([H:7])([H:8])[H:9]"
C        1.84020121      -0.05857538      -0.13487062
C        0.36204187       0.05511748       0.00973120
C       -0.45093174       1.11798259       0.22906526
C       -1.80751215       0.66835162       0.28403572
C       -1.90877230      -0.69719693       0.21353953
N       -0.47594948      -1.06461132      -0.05082734
H        2.27874146      -0.70939707       0.62637232
H        2.12052329      -0.45409121      -1.11474531
H        2.29880976       0.92360864      -0.02919704
H       -0.10950059       2.13675282       0.34929325
H       -2.66939231       1.31967447       0.30856233
H       -1.31596405      -1.25650994      -0.92451178
H       -0.16229497      -1.98110577       0.23355249
13
Frame=6 idx=002096 GeodesicLength=0.2621130014625331 rxn_smarts="[C:1]([c:2]1[c:3]([H:10])[c:4]([H:11])[c:5]([H:12])[n:6]1[H:13])([H:7])([H:8])[H:9]>>[C:1]([C:2]1=[C:3]([H:10])[C:4]([H:11])=[C-:5][N+:6]1([H:12])[H:13])([H:7])([H:8])[H:9]"
C        1.84065560      -0.05752593      -0.13567949
C        0.36232542       0.05711435       0.00552826
C       -0.44891057       1.11893930       0.23412680
C       -1.80659881       0.66942131       0.28852168
C       -1.90336036      -0.69491200       0.21094784
N       -0.47617962      -1.06380072      -0.05574027
H        2.27800265      -0.70639191       0.62798037
H        2.12278734      -0.45530325      -1.11415653
H        2.29949205       0.92470645      -0.03127517
H       -0.10716225       2.13713753       0.35762606
H       -2.66911656       1.32011187       0.30349039
H       -1.33017198      -1.27259227      -0.92994931
H       -0.16176292      -1.97690473       0.23857937
13
Frame=7 idx=002096 GeodesicLength=0.30580007111888846 rxn_smarts="[C:1]([c:2]1[c:3]([H:10])[c:4]([H:11])[c:5]([H:12])[n:6]1[H:13])([H:7])([H:8])[H:9]>>[C:1]([C:2]1=[C:3]([H:10])[C:4]([H:11])=[C-:5][N+:6]1([H:12])[H:13])([H:7])([H:8])[H:9]"
C        1.84111646      -0.05643714      -0.13648600
C        0.36264069       0.05914835       0.00154708
C       -0.44686288       1.11986065       0.23935429
C       -1.80570772       0.67052065       0.29271723
C       -1.89804708      -0.69253079       0.20777726
N       -0.47636017      -1.06296760      -0.06058594
H        2.27735491      -0.70344942       0.62944179
H        2.12493633      -0.45634305      -1.11364468
H        2.30020038       0.92582499      -0.03327593
H       -0.10476432       2.13756415       0.36596016
H       -2.66871074       1.32062316       0.29862629
H       -1.34450868      -1.28920947      -0.93509007
H       -0.16128718      -1.97260448       0.24365853
13
Frame=8 idx=002096 GeodesicLength=0.3493119634314872 rxn_smarts="[C:1]([c:2]1[c:3]([H:10])[c:4]([H:11])[c:5]([H:12])[n:6]1[H:13])([H:7])([H:8])[H:9]>>[C:1]([C:2]1=[C:3]([H:10])[C:4]([H:11])=[C-:5][N+:6]1([H:12])[H:13])([H:7])([H:8])[H:9]"
C        1.84162012      -0.05534166      -0.13705017
C        0.36302256       0.06118259      -0.00197283
C       -0.44471875       1.12066688       0.24531045
C       -1.80476949       0.67156885       0.29705271
C       -1.89276065      -0.69010040       0.20406350
N       -0.47650353      -1.06209187      -0.06558895
H        2.27679011      -0.70090407       0.63077128
H        2.12702382      -0.45689136      -1.11311091
H        2.30099549       0.92688044      -0.03457602
H       -0.10260805       2.13820401       0.37221454
H       -2.66814594       1.32112056       0.29459008
H       -1.35905003      -1.30600861      -0.94000240
H       -0.16089566      -1.96828535       0.24829872
13
Frame=9 idx=002096 GeodesicLength=0.3928399629633318 rxn_smarts="[C:1]([c:2]1[c:3]([H:10])[c:4]([H:11])[c:5]([H:12])[n:6]1[H:13])([H:7])([H:8])[H:9]>>[C:1]([C:2]1=[C:3]([H:10])[C:4]([H:11])=[C-:5][N+:6]1([H:12])[H:13])([H:7])([H:8])[H:9]"
C        1.84218739      -0.05427153      -0.13715419
C        0.36348921       0.06317883      -0.00482542
C       -0.44244659       1.12122980       0.25256674
C       -1.80376276       0.67245963       0.30199242
C       -1.88752367      -0.68767686       0.19976064
N       -0.47660107      -1.06117852      -0.07084765
H        2.27629672      -0.69902198       0.63201235
H        2.12909155      -0.45670643      -1.11244811
H        2.30191658       0.92780199      -0.03466194
H       -0.10083696       2.13948321       0.37444038
H       -2.66739506       1.32153230       0.29204735
H       -1.37379878      -1.32274623      -0.94497457
H       -0.16061656      -1.96408421       0.25209202
13
Frame=10 idx=002096 GeodesicLength=0.43640216110575114 rxn_smarts="[C:1]([c:2]1[c:3]([H:10])[c:4]([H:11])[c:5]([H:12])[n:6]1[H:13])([H:7])([H:8])[H:9]>>[C:1]([C:2]1=[C:3]([H:10])[C:4]([H:11])=[C-:5][N+:6]1([H:12])[H:13])([H:7])([H:8])[H:9]"
C        1.84277596      -0.05315424      -0.13729824
C        0.36399671       0.06523019      -0.00754413
C       -0.44013202       1.12177281       0.25990873
C       -1.80275281       0.67338837       0.30662361
C       -1.88233892      -0.68511898       0.19490302
N       -0.47664482      -1.06022416      -0.07608692
H        2.27589248      -0.69718835       0.63309375
H        2.13108545      -0.45636736      -1.11189652
H        2.30287361       0.92875872      -0.03471453
H       -0.09905018       2.14071653       0.37703625
H       -2.66653120       1.32204581       0.28949459
H       -1.38877580      -1.34010552      -0.94950205
H       -0.16039846      -1.95975382       0.25598247
13
Frame=11 idx=002096 GeodesicLength=0.4799579631563878 rxn_smarts="[C:1]([c:2]1[c:3]([H:10])[c:4]([H:11])[c:5]([H:12])[n:6]1[H:13])([H:7])([H:8])[H:9]>>[C:1]([C:2]1=[C:3]([H:10])[C:4]([H:11])=[C-:5][N+:6]1([H:12])[H:13])([H:7])([H:8])[H:9]"
C        1.84337406      -0.05196685      -0.13761010
C        0.36453070       0.06735849      -0.01027466
C       -0.43779969       1.12232003       0.26710696
C       -1.80175705       0.67439498       0.31075776
C       -1.87720734      -0.68240696       0.18950379
N       -0.47663021      -1.05922216      -0.08125660
H        2.27557762      -0.69524694       0.63398585
H        2.13299738      -0.45599700      -1.11151691
H        2.30383815       0.92979241      -0.03502572
H       -0.09713023       2.14174116       0.38109561
H       -2.66555712       1.32273202       0.28646270
H       -1.40400679      -1.35826764      -0.95339377
H       -0.16022948      -1.95523154       0.26016509
13
Frame=12 idx=002096 GeodesicLength=0.5235089907157456 rxn_smarts="[C:1]([c:2]1[c:3]([H:10])[c:4]([H:11])[c:5]([H:12])[n:6]1[H:13])([H:7])([H:8])[H:9]>>[C:1]([C:2]1=[C:3]([H:10])[C:4]([H:11])=[C-:5][N+:6]1([H:12])[H:13])([H:7])([H:8])[H:9]"
C        1.84400287      -0.05072949      -0.13794797
C        0.36510846       0.06954839      -0.01291718
C       -0.43543078       1.12286003       0.27431555
C       -1.80075216       0.67543988       0.31461551
C       -1.87211232      -0.67954588       0.18352488
N       -0.47655819      -1.05817104      -0.08647740
H        2.27533213      -0.69332770       0.63476907
H        2.13488459      -0.45549509      -1.11121302
H        2.30484229       0.93086707      -0.03530636
H       -0.09519272       2.14268063       0.38554551
H       -2.66447775       1.32352140       0.28346617
H       -1.41952105      -1.37708591      -0.95674487
H       -0.16012538      -1.95056228       0.26437011
13
Frame=13 idx=002096 GeodesicLength=0.5670518931552856 rxn_smarts="[C:1]([c:2]1[c:3]([H:10])[c:4]([H:11])[c:5]([H:12])[n:6]1[H:13])([H:7])([H:8])[H:9]>>[C:1]([C:2]1=[C:3]([H:10])[C:4]([H:11])=[C-:5][N+:6]1([H:12])[H:13])([H:7])([H:8])[H:9]"
C        1.84466763      -0.04944111      -0.13828463
C        0.36573159       0.07180032      -0.01549473
C       -0.43302094       1.12336416       0.28158220
C       -1.79972997       0.67649779       0.31827922
C       -1.86704819      -0.67655105       0.17694669
N       -0.47642541      -1.05706612      -0.09179900
H        2.27513469      -0.69144905       0.63546653
H        2.13678103      -0.45483267      -1.11095794
H        2.30589200       0.93197791      -0.03548305
H       -0.09324477       2.14359515       0.39017048
H       -2.66328282       1.32441466       0.28057871
H       -1.43536367      -1.39654745      -0.95952501
H       -0.16009119      -1.94576254       0.26852053
13
Frame=14 idx=002096 GeodesicLength=0.6106010589683424 rxn_smarts="[C:1]([c:2]1[c:3]([H:10])[c:4]([H:11])[c:5]([H:12])[n:6]1[H:13])([H:7])([H:8])[H:9]>>[C:1]([C:2]1=[C:3]([H:10])[C:4]([H:11])=[C-:5][N+:6]1([H:12])[H:13])([H:7])([H:8])[H:9]"
C        1.84535621      -0.04808401      -0.13873411
C        0.36639125       0.07412817      -0.01807043
C       -0.43058537       1.12385149       0.28884257
C       -1.79871061       0.67761359       0.32154599
C       -1.86202685      -0.67338068       0.16970434
N       -0.47622813      -1.05591308      -0.09714941
H        2.27501403      -0.68954143       0.63598771
H        2.13863848      -0.45404908      -1.11085552
H        2.30696878       0.93315407      -0.03575078
H       -0.09119728       2.14435852       0.39580140
H       -2.66196978       1.32546200       0.27740931
H       -1.45150712      -1.41683306      -0.96158282
H       -0.16014362      -1.94076650       0.27285175
13
Frame=15 idx=002096 GeodesicLength=0.6541377530167619 rxn_smarts="[C:1]([c:2]1[c:3]([H:10])[c:4]([H:11])[c:5]([H:12])[n:6]1[H:13])([H:7])([H:8])[H:9]>>[C:1]([C:2]1=[C:3]([H:10])[C:4]([H:11])=[C-:5][N+:6]1([H:12])[H:13])([H:7])([H:8])[H:9]"
C        1.84609724      -0.04668181      -0.13912672
C        0.36710704       0.07652139      -0.02060282
C       -0.42811175       1.12430795       0.29610059
C       -1.79766048       0.67872189       0.32468060
C       -1.85702161      -0.67005707       0.16175934
N       -0.47596055      -1.05469588      -0.10269207
H        2.27490884      -0.68770661       0.63648405
H        2.14057126      -0.45308678      -1.11074117
H        2.30811044       0.93435201      -0.03579971
H       -0.08917964       2.14512859       0.40127706
H       -2.66055454       1.32658432       0.27465019
H       -1.46801920      -1.43775625      -0.96301554
H       -0.16028705      -1.93563175       0.27702619
13
Frame=16 idx=002096 GeodesicLength=0.69767951648038 rxn_smarts="[C:1]([c:2]1[c:3]([H:10])[c:4]([H:11])[c:5]([H:12])[n:6]1[H:13])([H:7])([H:8])[H:9]>>[C:1]([C:2]1=[C:3]([H:10])[C:4]([H:11])=[C-:5][N+:6]1([H:12])[H:13])([H:7])([H:8])[H:9]"
C        1.84688086      -0.04521609      -0.13956636
C        0.36787017       0.07899455      -0.02316760
C       -0.42561337       1.12474450       0.30330312
C       -1.79659971       0.67985897       0.32751687
C       -1.85204068      -0.66654531       0.15305275
N       -0.47561963      -1.05341885      -0.10837838
H        2.27484066      -0.68586233       0.63689124
H        2.14254855      -0.45199684      -1.11069932
H        2.30929784       0.93560473      -0.03582432
H       -0.08709795       2.14579560       0.40738105
H       -2.65903624       1.32783503       0.27191864
H       -1.48489886      -1.45948835      -0.96365570
H       -0.16053164      -1.93030560       0.28122800
