15
Frame=0 idx=011792 GeodesicLength=0.0 rxn_smarts="[C:1]([N:2](/[C:3](=[N:4]\[H:12])[C:5](=[O:6])[C:7]([H:13])([H:14])[H:15])[H:11])([H:8])([H:9])[H:10]>>[C:1]([N:2]([c:3]1[n:4]([H:12])[o:6][c:5]1[C:7]([H:13])([H:14])[H:15])[H:11])([H:8])([H:9])[H:10]"
C       -2.27770489      -0.61640129       0.10135032
N       -1.04448189      -0.23193024      -0.55369986
C       -0.03507619       0.41183661       0.11460575
N       -0.19263352       1.35222602       1.13607866
C        1.32745340       0.43873133       0.06529104
O        1.56455741       1.54219392       0.75863013
C        2.39207796      -0.48924107      -0.37059061
H       -2.70634397      -1.48677464      -0.39981104
H       -3.03561224       0.17421477       0.11918279
H       -2.05468584      -0.89435573       1.13195569
H       -1.08819154      -0.10572527      -1.54978374
H       -0.85546946       2.09695641       0.85828869
H        1.95156505      -1.40010903      -0.77749322
H        3.04238864      -0.04304734      -1.12527845
H        3.01215708      -0.74857441       0.49127389
15
Frame=1 idx=011792 GeodesicLength=0.04811078402208774 rxn_smarts="[C:1]([N:2](/[C:3](=[N:4]\[H:12])[C:5](=[O:6])[C:7]([H:13])([H:14])[H:15])[H:11])([H:8])([H:9])[H:10]>>[C:1]([N:2]([c:3]1[n:4]([H:12])[o:6][c:5]1[C:7]([H:13])([H:14])[H:15])[H:11])([H:8])([H:9])[H:10]"
C       -2.27942221      -0.61737824       0.09435164
N       -1.04906032      -0.22157582      -0.55875206
C       -0.03511114       0.39933589       0.12246187
N       -0.17174747       1.32810206       1.15374101
C        1.32751010       0.45363571       0.02035969
O        1.56107523       1.59703877       0.64270587
C        2.39725066      -0.49519727      -0.35434368
H       -2.72324576      -1.46189265      -0.43664693
H       -3.02822975       0.18017836       0.14923465
H       -2.05212699      -0.93723752       1.11191165
H       -1.10087469      -0.05745755      -1.54905249
H       -0.86928054       2.05530178       0.92286610
H        1.96034594      -1.42661791      -0.71592351
H        3.05128270      -0.08578140      -1.12633757
H        3.01163421      -0.71045420       0.52342377
15
Frame=2 idx=011792 GeodesicLength=0.09700640706519985 rxn_smarts="[C:1]([N:2](/[C:3](=[N:4]\[H:12])[C:5](=[O:6])[C:7]([H:13])([H:14])[H:15])[H:11])([H:8])([H:9])[H:10]>>[C:1]([N:2]([c:3]1[n:4]([H:12])[o:6][c:5]1[C:7]([H:13])([H:14])[H:15])[H:11])([H:8])([H:9])[H:10]"
C       -2.28380119      -0.61621230       0.08845967
N       -1.05450680      -0.21458531      -0.56267010
C       -0.03483711       0.38248214       0.12988176
N       -0.15000653       1.30305998       1.16757973
C        1.32592488       0.46221420      -0.02242213
O        1.55036454       1.63966765       0.53196588
C        2.40493210      -0.49772239      -0.33866690
H       -2.74541095      -1.43304833      -0.46973997
H       -3.02041629       0.18945603       0.17886895
H       -2.05414952      -0.97643916       1.09202905
H       -1.11330750      -0.01522636      -1.54625435
H       -0.87597766       2.01319886       0.98072736
H        1.97570768      -1.44791762      -0.65803588
H        3.06173064      -0.11965783      -1.12407672
H        3.01375372      -0.66926955       0.55235366
15
Frame=3 idx=011792 GeodesicLength=0.14580820196600805 rxn_smarts="[C:1]([N:2](/[C:3](=[N:4]\[H:12])[C:5](=[O:6])[C:7]([H:13])([H:14])[H:15])[H:11])([H:8])([H:9])[H:10]>>[C:1]([N:2]([c:3]1[n:4]([H:12])[o:6][c:5]1[C:7]([H:13])([H:14])[H:15])[H:11])([H:8])([H:9])[H:10]"
C       -2.28914481      -0.61410263       0.08394667
N       -1.06030426      -0.20980069      -0.56586777
C       -0.03456126       0.36412395       0.13605014
N       -0.12893125       1.27916489       1.17734229
C        1.32296683       0.46587486      -0.06209287
O        1.53501058       1.67122943       0.42884694
C        2.41350486      -0.49778904      -0.32364125
H       -2.77018025      -1.40167449      -0.49905556
H       -3.01143224       0.19977667       0.20938172
H       -2.05801808      -1.01350750       1.07236455
H       -1.12506771       0.02148307      -1.54223068
H       -0.87709657       1.97368613       1.03024235
H        1.99419794      -1.46385045      -0.60620419
H        3.07381805      -0.14550451      -1.11788412
H        3.01523817      -0.62910968       0.57880178
15
Frame=4 idx=011792 GeodesicLength=0.19494488545005584 rxn_smarts="[C:1]([N:2](/[C:3](=[N:4]\[H:12])[C:5](=[O:6])[C:7]([H:13])([H:14])[H:15])[H:11])([H:8])([H:9])[H:10]>>[C:1]([N:2]([c:3]1[n:4]([H:12])[o:6][c:5]1[C:7]([H:13])([H:14])[H:15])[H:11])([H:8])([H:9])[H:10]"
C       -2.29579681      -0.61059628       0.08022779
N       -1.06626366      -0.20710361      -0.56831100
C       -0.03411047       0.34386070       0.14163656
N       -0.10814960       1.25504496       1.18473416
C        1.31914987       0.46544896      -0.09930552
O        1.51580289       1.69417148       0.33110836
C        2.42321546      -0.49576582      -0.30934374
H       -2.79687037      -1.36812923      -0.52500412
H       -3.00199639       0.21156490       0.23875108
H       -2.06518687      -1.04720447       1.05304094
H       -1.13565639       0.05339780      -1.53715078
H       -0.87436345       1.93483752       1.07486603
H        2.01606666      -1.47612845      -0.55815246
H        3.08687014      -0.16496177      -1.10986830
H        3.01728898      -0.58843667       0.60277099
15
Frame=5 idx=011792 GeodesicLength=0.24449072051547927 rxn_smarts="[C:1]([N:2](/[C:3](=[N:4]\[H:12])[C:5](=[O:6])[C:7]([H:13])([H:14])[H:15])[H:11])([H:8])([H:9])[H:10]>>[C:1]([N:2]([c:3]1[n:4]([H:12])[o:6][c:5]1[C:7]([H:13])([H:14])[H:15])[H:11])([H:8])([H:9])[H:10]"
C       -2.30313435      -0.60623087       0.07716605
N       -1.07242348      -0.20563195      -0.57052036
C       -0.03363346       0.32269570       0.14619389
N       -0.08771572       1.23095749       1.19000480
C        1.31466349       0.46183280      -0.13465775
O        1.49380417       1.70991485       0.23792309
C        2.43351306      -0.49218405      -0.29543248
H       -2.82471922      -1.33262427      -0.54832916
H       -2.99183728       0.22381311       0.26818398
H       -2.07423819      -1.07898611       1.03348245
H       -1.14562343       0.08207255      -1.53154324
H       -0.86849035       1.89701928       1.11537427
H        2.04009314      -1.48551151      -0.51266556
H        3.10067757      -0.17964173      -1.10022414
H        3.01906405      -0.54749529       0.62504416
15
Frame=6 idx=011792 GeodesicLength=0.29414912179265357 rxn_smarts="[C:1]([N:2](/[C:3](=[N:4]\[H:12])[C:5](=[O:6])[C:7]([H:13])([H:14])[H:15])[H:11])([H:8])([H:9])[H:10]>>[C:1]([N:2]([c:3]1[n:4]([H:12])[o:6][c:5]1[C:7]([H:13])([H:14])[H:15])[H:11])([H:8])([H:9])[H:10]"
C       -2.31073103      -0.60136268       0.07471126
N       -1.07858962      -0.20510587      -0.57252231
C       -0.03322292       0.30126651       0.14986266
N       -0.06804363       1.20737017       1.19341843
C        1.30974068       0.45562614      -0.16787648
O        1.47010925       1.71937658       0.14959928
C        2.44395006      -0.48737344      -0.28193773
H       -2.85303991      -1.29549964      -0.56927576
H       -2.98076237       0.23589504       0.29787195
H       -2.08460100      -1.10933882       1.01360628
H       -1.15474978       0.10777038      -1.52561381
H       -0.86022571       1.86088732       1.15159669
H        2.06521485      -1.49225733      -0.46987635
H        3.11481427      -0.19013014      -1.08929835
H        3.02013687      -0.50712422       0.64573424
15
Frame=7 idx=011792 GeodesicLength=0.3436607541582416 rxn_smarts="[C:1]([N:2](/[C:3](=[N:4]\[H:12])[C:5](=[O:6])[C:7]([H:13])([H:14])[H:15])[H:11])([H:8])([H:9])[H:10]>>[C:1]([N:2]([c:3]1[n:4]([H:12])[o:6][c:5]1[C:7]([H:13])([H:14])[H:15])[H:11])([H:8])([H:9])[H:10]"
C       -2.31834756      -0.59616044       0.07286428
N       -1.08462418      -0.20536858      -0.57428185
C       -0.03289254       0.27998622       0.15277878
N       -0.04930860       1.18448332       1.19532351
C        1.30460270       0.44741373      -0.19900587
O        1.44558473       1.72349850       0.06612732
C        2.45424764      -0.48158791      -0.26895177
H       -2.88104263      -1.25743440      -0.58777363
H       -2.96895375       0.24743159       0.32738090
H       -2.09610019      -1.13804129       0.99369853
H       -1.16290571       0.13065687      -1.51948780
H       -0.85021901       1.82666365       1.18379429
H        2.09074093      -1.49660257      -0.43039156
H        3.12924890      -0.19675584      -1.07719179
H        3.01996929      -0.46818287       0.66511666
15
Frame=8 idx=011792 GeodesicLength=0.39321956219881427 rxn_smarts="[C:1]([N:2](/[C:3](=[N:4]\[H:12])[C:5](=[O:6])[C:7]([H:13])([H:14])[H:15])[H:11])([H:8])([H:9])[H:10]>>[C:1]([N:2]([c:3]1[n:4]([H:12])[o:6][c:5]1[C:7]([H:13])([H:14])[H:15])[H:11])([H:8])([H:9])[H:10]"
C       -2.32594897      -0.59067350       0.07137107
N       -1.09054313      -0.20617931      -0.57593228
C       -0.03266465       0.25882115       0.15508241
N       -0.03131537       1.16199113       1.19611494
C        1.29933224       0.43746081      -0.22833962
O        1.42046027       1.72303924      -0.01344347
C        2.46436119      -0.47496504      -0.25632211
H       -2.90877012      -1.21816376      -0.60437083
H       -2.95632360       0.25831218       0.35690621
H       -2.10862760      -1.16555765       0.97332020
H       -1.17021417       0.15138833      -1.51328522
H       -0.83881750       1.79386501       1.21292236
H        2.11653969      -1.49907140      -0.39261048
H        3.14342230      -0.20049961      -1.06459261
H        3.01910944      -0.42976760       0.68317942
15
Frame=9 idx=011792 GeodesicLength=0.44285019343923065 rxn_smarts="[C:1]([N:2](/[C:3](=[N:4]\[H:12])[C:5](=[O:6])[C:7]([H:13])([H:14])[H:15])[H:11])([H:8])([H:9])[H:10]>>[C:1]([N:2]([c:3]1[n:4]([H:12])[o:6][c:5]1[C:7]([H:13])([H:14])[H:15])[H:11])([H:8])([H:9])[H:10]"
C       -2.33348234      -0.58493527       0.07024583
N       -1.09637473      -0.20744938      -0.57753305
C       -0.03252787       0.23782685       0.15673396
N       -0.01397510       1.13976162       1.19594511
C        1.29402089       0.42604781      -0.25625802
O        1.39507133       1.71857356      -0.08960612
C        2.47423672      -0.46759025      -0.24399356
H       -2.93601737      -1.17781351      -0.61910337
H       -2.94295956       0.26839822       0.38647057
H       -2.12209575      -1.19193596       0.95249775
H       -1.17685587       0.17029134      -1.50707414
H       -0.82625878       1.76230447       1.23934926
H        2.14249589      -1.49983601      -0.35653781
H        3.15749819      -0.20165121      -1.05141631
H        3.01722433      -0.39199226       0.70027991
15
Frame=10 idx=011792 GeodesicLength=0.4926608716169254 rxn_smarts="[C:1]([N:2](/[C:3](=[N:4]\[H:12])[C:5](=[O:6])[C:7]([H:13])([H:14])[H:15])[H:11])([H:8])([H:9])[H:10]>>[C:1]([N:2]([c:3]1[n:4]([H:12])[o:6][c:5]1[C:7]([H:13])([H:14])[H:15])[H:11])([H:8])([H:9])[H:10]"
C       -2.34091782      -0.57900957       0.06937513
N       -1.10213331      -0.20906101      -0.57915878
C       -0.03249983       0.21699176       0.15779495
N        0.00278858       1.11767254       1.19498592
C        1.28872301       0.41331719      -0.28292969
O        1.36960759       1.71052214      -0.16286807
C        2.48384213      -0.45953367      -0.23187434
H       -2.96285723      -1.13612111      -0.63225180
H       -2.92874925       0.27753016       0.41635082
H       -2.13642819      -1.21755370       0.93089916
H       -1.18292250       0.18772505      -1.50091133
H       -0.81273401       1.73179143       1.26347481
H        2.16851329      -1.49911184      -0.32132947
H        3.17121699      -0.20076233      -1.03797398
H        3.01455057      -0.35439704       0.71641668
15
Frame=11 idx=011792 GeodesicLength=0.5427506637969797 rxn_smarts="[C:1]([N:2](/[C:3](=[N:4]\[H:12])[C:5](=[O:6])[C:7]([H:13])([H:14])[H:15])[H:11])([H:8])([H:9])[H:10]>>[C:1]([N:2]([c:3]1[n:4]([H:12])[o:6][c:5]1[C:7]([H:13])([H:14])[H:15])[H:11])([H:8])([H:9])[H:10]"
C       -2.34828882      -0.57285698       0.06868615
N       -1.10784246      -0.21096309      -0.58083600
C       -0.03257434       0.19621124       0.15832228
N        0.01908353       1.09550959       1.19339991
C        1.28347903       0.39933881      -0.30853085
O        1.34415461       1.69916822      -0.23365361
C        2.49319464      -0.45080721      -0.21992669
H       -2.98925114      -1.09298581      -0.64391779
H       -2.91373224       0.28566979       0.44652394
H       -2.15172234      -1.24241094       0.90839891
H       -1.18847020       0.20389582      -1.49482072
H       -0.79835947       1.70201774       1.28570825
H        2.19464274      -1.49699200      -0.28649646
H        3.18448667      -0.19815589      -1.02445337
H        3.01119979      -0.31663930       0.73159605
15
Frame=12 idx=011792 GeodesicLength=0.5931700129793327 rxn_smarts="[C:1]([N:2](/[C:3](=[N:4]\[H:12])[C:5](=[O:6])[C:7]([H:13])([H:14])[H:15])[H:11])([H:8])([H:9])[H:10]>>[C:1]([N:2]([c:3]1[n:4]([H:12])[o:6][c:5]1[C:7]([H:13])([H:14])[H:15])[H:11])([H:8])([H:9])[H:10]"
C       -2.35554829      -0.56656366       0.06815945
N       -1.11348519      -0.21316869      -0.58257750
C       -0.03276173       0.17549809       0.15835442
N        0.03489515       1.07324573       1.19126435
C        1.27833062       0.38421969      -0.33313576
O        1.31889945       1.68477142      -0.30220801
C        2.50225454      -0.44143928      -0.20810744
H       -3.01528707      -1.04805229      -0.65419192
H       -2.89770760       0.29262313       0.47727512
H       -2.16797768      -1.26681217       0.88474273
H       -1.19350726       0.21883805      -1.48884743
H       -0.78326848       1.67299144       1.30610778
H        2.22075419      -1.49349767      -0.25175430
H        3.19723227      -0.19407081      -1.01092940
H        3.00717707      -0.27858297       0.74584790
15
Frame=13 idx=011792 GeodesicLength=0.6436247133609967 rxn_smarts="[C:1]([N:2](/[C:3](=[N:4]\[H:12])[C:5](=[O:6])[C:7]([H:13])([H:14])[H:15])[H:11])([H:8])([H:9])[H:10]>>[C:1]([N:2]([c:3]1[n:4]([H:12])[o:6][c:5]1[C:7]([H:13])([H:14])[H:15])[H:11])([H:8])([H:9])[H:10]"
C       -2.36261614      -0.56011753       0.06777879
N       -1.11893510      -0.21558410      -0.58424512
C       -0.03304806       0.15507459       0.15814641
N        0.05013234       1.05110099       1.18885138
C        1.27336214       0.36823751      -0.35651615
O        1.29416601       1.66773293      -0.36827713
C        2.51088270      -0.43157197      -0.19660442
H       -3.04017282      -1.00241916      -0.66288864
H       -2.88119717       0.29841000       0.50763330
H       -2.18518005      -1.28996618       0.86053649
H       -1.19780918       0.23248899      -1.48299190
H       -0.76778473       1.64480828       1.32489917
H        2.24648516      -1.48870275      -0.21791794
H        3.20935791      -0.18848916      -0.99752621
H        3.00235700      -0.24100244       0.75912197
15
Frame=14 idx=011792 GeodesicLength=0.6941651623538585 rxn_smarts="[C:1]([N:2](/[C:3](=[N:4]\[H:12])[C:5](=[O:6])[C:7]([H:13])([H:14])[H:15])[H:11])([H:8])([H:9])[H:10]>>[C:1]([N:2]([c:3]1[n:4]([H:12])[o:6][c:5]1[C:7]([H:13])([H:14])[H:15])[H:11])([H:8])([H:9])[H:10]"
C       -2.36944683      -0.55361753       0.06755106
N       -1.12416481      -0.21829386      -0.58583730
C       -0.03343204       0.13494301       0.15773003
N        0.06477562       1.02906255       1.18621912
C        1.26859315       0.35150139      -0.37875166
O        1.27006406       1.64828371      -0.43211635
C        2.51906506      -0.42122331      -0.18537357
H       -3.06407702      -0.95565212      -0.67011882
H       -2.86395764       0.30290792       0.53791904
H       -2.20334841      -1.31221077       0.83557274
H       -1.20138486       0.24477579      -1.47730226
H       -0.75201249       1.61751342       1.34208718
H        2.27174489      -1.48265113      -0.18483379
H        3.22084687      -0.18153947      -0.98424977
H        2.99673444      -0.20379959       0.77150435
15
Frame=15 idx=011792 GeodesicLength=0.7449409100655916 rxn_smarts="[C:1]([N:2](/[C:3](=[N:4]\[H:12])[C:5](=[O:6])[C:7]([H:13])([H:14])[H:15])[H:11])([H:8])([H:9])[H:10]>>[C:1]([N:2]([c:3]1[n:4]([H:12])[o:6][c:5]1[C:7]([H:13])([H:14])[H:15])[H:11])([H:8])([H:9])[H:10]"
C       -2.37613412      -0.54694177       0.06738938
N       -1.12925606      -0.22119453      -0.58742136
C       -0.03390738       0.11493319       0.15708474
N        0.07898481       1.00686004       1.18344002
C        1.26402385       0.33394743      -0.40004279
O        1.24650274       1.62646766      -0.49413710
C        2.52687476      -0.41035694      -0.17436056
H       -3.08699885      -0.90768472      -0.67594672
H       -2.84611407       0.30612448       0.56816135
H       -2.22255668      -1.33346900       0.80967475
H       -1.20437642       0.25600572      -1.47179026
H       -0.73594198       1.59066647       1.35812647
H        2.29675122      -1.47536563      -0.15183750
H        3.23165661      -0.17355316      -0.97127169
H        2.99049158      -0.16643924       0.78293127
15
Frame=16 idx=011792 GeodesicLength=0.7960297366383267 rxn_smarts="[C:1]([N:2](/[C:3](=[N:4]\[H:12])[C:5](=[O:6])[C:7]([H:13])([H:14])[H:15])[H:11])([H:8])([H:9])[H:10]>>[C:1]([N:2]([c:3]1[n:4]([H:12])[o:6][c:5]1[C:7]([H:13])([H:14])[H:15])[H:11])([H:8])([H:9])[H:10]"
C       -2.38266012      -0.54014342       0.06730101
N       -1.13421911      -0.22430914      -0.58901625
C       -0.03447508       0.09502054       0.15620096
N        0.09276769       0.98446886       1.18051114
C        1.25967066       0.31559594      -0.42048161
O        1.22354624       1.60237126      -0.55460070
C        2.53430991      -0.39897072      -0.16350973
H       -3.10903758      -0.85809700      -0.68036617
H       -2.82748634       0.30783709       0.59870374
H       -2.24283890      -1.35399979       0.78254855
H       -1.20684197       0.26620588      -1.46648510
H       -0.71961785       1.56427527       1.37301072
H        2.32147653      -1.46682543      -0.11871015
H        3.24181562      -0.16466361      -0.95855900
H        2.98359028      -0.12876572       0.79345261
