11
Frame=0 idx=002073 GeodesicLength=0.0 rxn_smarts="[C:1]([c:2]1[c:3]([H:10])[o:4][c:5]([H:11])[n:6]1)([H:7])([H:8])[H:9]>>[C:1](=[C:2]1[C-:3]([H:10])[O+:4]=[C:5]([H:11])[N:6]1[H:7])([H:8])[H:9]"
C       -1.75394413      -0.33756252      -0.10210382
C       -0.39863102       0.21072525       0.00572274
C        0.42611434       1.24653951       0.27881415
O        1.73994670       0.78840672       0.27356562
C        1.69123640      -0.49391615      -0.01154716
N        0.46502442      -0.87395535      -0.17296601
H       -0.45834729      -1.57757189      -0.19225087
H       -2.13312667      -0.26086968      -1.12394557
H       -2.47661376       0.07772841       0.59799888
H        0.29659384       2.28877996       0.50264597
H        2.60174719      -1.06830429      -0.05593390
11
Frame=1 idx=002073 GeodesicLength=0.05796401943374538 rxn_smarts="[C:1]([c:2]1[c:3]([H:10])[o:4][c:5]([H:11])[n:6]1)([H:7])([H:8])[H:9]>>[C:1](=[C:2]1[C-:3]([H:10])[O+:4]=[C:5]([H:11])[N:6]1[H:7])([H:8])[H:9]"
C       -1.74875821      -0.33405205      -0.09972879
C       -0.39476805       0.21810460      -0.03068319
C        0.42742451       1.24791597       0.27643010
O        1.73977210       0.78867575       0.28290061
C        1.69222721      -0.49325333      -0.00360656
N        0.46809877      -0.87283265      -0.18600923
H       -0.47483634      -1.57952985      -0.19333467
H       -2.14491787      -0.29229190      -1.11675323
H       -2.46012368       0.09851841       0.60135292
H        0.29218650       2.28441916       0.52245834
H        2.60369506      -1.06567411      -0.05302629
11
Frame=2 idx=002073 GeodesicLength=0.11590393957309363 rxn_smarts="[C:1]([c:2]1[c:3]([H:10])[o:4][c:5]([H:11])[n:6]1)([H:7])([H:8])[H:9]>>[C:1](=[C:2]1[C-:3]([H:10])[O+:4]=[C:5]([H:11])[N:6]1[H:7])([H:8])[H:9]"
C       -1.74311126      -0.33003229      -0.09797891
C       -0.39083840       0.22438409      -0.06333622
C        0.42812815       1.24855821       0.27539272
O        1.73959181       0.78995391       0.28720746
C        1.69322471      -0.49210157       0.00156775
N        0.47125801      -0.87190971      -0.19884541
H       -0.49161430      -1.58167232      -0.19320602
H       -2.15444202      -0.32075933      -1.10937847
H       -2.44432172       0.11815200       0.60338539
H        0.28678185       2.27893010       0.54256566
H        2.60534317      -1.06350309      -0.04737396
11
Frame=3 idx=002073 GeodesicLength=0.17383448811323987 rxn_smarts="[C:1]([c:2]1[c:3]([H:10])[o:4][c:5]([H:11])[n:6]1)([H:7])([H:8])[H:9]>>[C:1](=[C:2]1[C-:3]([H:10])[O+:4]=[C:5]([H:11])[N:6]1[H:7])([H:8])[H:9]"
C       -1.73723383      -0.32564177      -0.09686346
C       -0.38693190       0.22974985      -0.09254240
C        0.42847292       1.24878844       0.27469986
O        1.73938539       0.79170727       0.28913075
C        1.69430609      -0.49050972       0.00446296
N        0.47445736      -0.87122460      -0.21103757
H       -0.50873653      -1.58400556      -0.19111413
H       -2.16185713      -0.34706397      -1.10215885
H       -2.42945733       0.13710521       0.60383572
H        0.28069128       2.27248713       0.56286243
H        2.60690369      -1.06139228      -0.04127531
11
Frame=4 idx=002073 GeodesicLength=0.23174907243173073 rxn_smarts="[C:1]([c:2]1[c:3]([H:10])[o:4][c:5]([H:11])[n:6]1)([H:7])([H:8])[H:9]>>[C:1](=[C:2]1[C-:3]([H:10])[O+:4]=[C:5]([H:11])[N:6]1[H:7])([H:8])[H:9]"
C       -1.73125225      -0.32105291      -0.09625141
C       -0.38308043       0.23434471      -0.11869808
C        0.42857339       1.24866211       0.27445045
O        1.73900069       0.79330629       0.29151295
C        1.69548650      -0.48865076       0.00586700
N        0.47771283      -0.87072748      -0.22272998
H       -0.52618116      -1.58647058      -0.18750876
H       -2.16759828      -0.37141050      -1.09506236
H       -2.41545722       0.15522643       0.60312658
H        0.27424308       2.26581326       0.58158651
H        2.60855283      -1.05904057      -0.03629289
11
Frame=5 idx=002073 GeodesicLength=0.2896812860397622 rxn_smarts="[C:1]([c:2]1[c:3]([H:10])[o:4][c:5]([H:11])[n:6]1)([H:7])([H:8])[H:9]>>[C:1](=[C:2]1[C-:3]([H:10])[O+:4]=[C:5]([H:11])[N:6]1[H:7])([H:8])[H:9]"
C       -1.72519245      -0.31634959      -0.09602454
C       -0.37929875       0.23840730      -0.14266698
C        0.42852266       1.24841553       0.27402639
O        1.73859705       0.79510485       0.29295484
C        1.69682311      -0.48644141       0.00561733
N        0.48107700      -0.87024344      -0.23453723
H       -0.54385752      -1.58893330      -0.18281255
H       -2.17224508      -0.39418180      -1.08789410
H       -2.40200333       0.17255315       0.60170710
H        0.26746181       2.25852083       0.60015360
H        2.61011550      -1.05685211      -0.03052386
11
Frame=6 idx=002073 GeodesicLength=0.3475946927555867 rxn_smarts="[C:1]([c:2]1[c:3]([H:10])[o:4][c:5]([H:11])[n:6]1)([H:7])([H:8])[H:9]>>[C:1](=[C:2]1[C-:3]([H:10])[O+:4]=[C:5]([H:11])[N:6]1[H:7])([H:8])[H:9]"
C       -1.71912465      -0.31156904      -0.09621950
C       -0.37557670       0.24199521      -0.16467175
C        0.42835967       1.24797774       0.27379693
O        1.73814288       0.79688753       0.29434966
C        1.69827824      -0.48405338       0.00447569
N        0.48453531      -0.86983471      -0.24616067
H       -0.56180705      -1.59140005      -0.17688981
H       -2.17585429      -0.41560520      -1.08083260
H       -2.38916998       0.18922224       0.59948778
H        0.26048786       2.25092199       0.61798503
H        2.61172871      -1.05454233      -0.02532078
11
Frame=7 idx=002073 GeodesicLength=0.4055279160411836 rxn_smarts="[C:1]([c:2]1[c:3]([H:10])[o:4][c:5]([H:11])[n:6]1)([H:7])([H:8])[H:9]>>[C:1](=[C:2]1[C-:3]([H:10])[O+:4]=[C:5]([H:11])[N:6]1[H:7])([H:8])[H:9]"
C       -1.71304233      -0.30674392      -0.09675995
C       -0.37192390       0.24525450      -0.18525304
C        0.42812624       1.24748763       0.27338330
O        1.73772933       0.79888765       0.29483291
C        1.69990348      -0.48137556       0.00211953
N        0.48812197      -0.86938386      -0.25799955
H       -0.57997054      -1.59377663      -0.16993648
H       -2.17875438      -0.43593525      -1.07373092
H       -2.37674573       0.20529507       0.59671640
H        0.25331407       2.24267092       0.63599973
H        2.61324178      -1.05238056      -0.01937193
11
Frame=8 idx=002073 GeodesicLength=0.4634537082461599 rxn_smarts="[C:1]([c:2]1[c:3]([H:10])[o:4][c:5]([H:11])[n:6]1)([H:7])([H:8])[H:9]>>[C:1](=[C:2]1[C-:3]([H:10])[O+:4]=[C:5]([H:11])[N:6]1[H:7])([H:8])[H:9]"
C       -1.70698998      -0.30187714      -0.09770209
C       -0.36831124       0.24818354      -0.20448158
C        0.42783061       1.24685983       0.27311756
O        1.73729731       0.80087683       0.29531689
C        1.70164032      -0.47860255      -0.00067378
N        0.49181824      -0.86898621      -0.26968596
H       -0.59841951      -1.59607733      -0.16175702
H       -2.18089946      -0.45531230      -1.06676623
H       -2.36482581       0.22091855       0.59322224
H        0.24602260       2.23405772       0.65358161
H        2.61483692      -1.05004094      -0.01417162
11
Frame=9 idx=002073 GeodesicLength=0.521393235185595 rxn_smarts="[C:1]([c:2]1[c:3]([H:10])[o:4][c:5]([H:11])[n:6]1)([H:7])([H:8])[H:9]>>[C:1](=[C:2]1[C-:3]([H:10])[O+:4]=[C:5]([H:11])[N:6]1[H:7])([H:8])[H:9]"
C       -1.70096252      -0.29699625      -0.09899618
C       -0.36474398       0.25085930      -0.22263051
C        0.42748724       1.24613983       0.27289533
O        1.73688573       0.80294969       0.29545201
C        1.70351723      -0.47566798      -0.00410286
N        0.49564520      -0.86857091      -0.28145762
H       -0.61712004      -1.59824398      -0.15248290
H       -2.18246433      -0.47386188      -1.05985967
H       -2.35330093       0.23609716       0.58915726
H        0.23863068       2.22495875       0.67107297
H        2.61642572      -1.04766372      -0.00904782
11
Frame=10 idx=002073 GeodesicLength=0.5793352154489091 rxn_smarts="[C:1]([c:2]1[c:3]([H:10])[o:4][c:5]([H:11])[n:6]1)([H:7])([H:8])[H:9]>>[C:1](=[C:2]1[C-:3]([H:10])[O+:4]=[C:5]([H:11])[N:6]1[H:7])([H:8])[H:9]"
C       -1.69496437      -0.29213011      -0.10061089
C       -0.36122581       0.25333136      -0.23985382
C        0.42710522       1.24532942       0.27273586
O        1.73651429       0.80514025       0.29513506
C        1.70554601      -0.47254675      -0.00823354
N        0.49961415      -0.86809844      -0.29343809
H       -0.63605042      -1.60023373      -0.14218701
H       -2.18354550      -0.49166038      -1.05299241
H       -2.34212315       0.25082410       0.58461330
H        0.23117293       2.21534946       0.68855784
H        2.61795665      -1.04530520      -0.00372632
11
Frame=11 idx=002073 GeodesicLength=0.6372820606324954 rxn_smarts="[C:1]([c:2]1[c:3]([H:10])[o:4][c:5]([H:11])[n:6]1)([H:7])([H:8])[H:9]>>[C:1](=[C:2]1[C-:3]([H:10])[O+:4]=[C:5]([H:11])[N:6]1[H:7])([H:8])[H:9]"
C       -1.68900892      -0.28728342      -0.10256236
C       -0.35774193       0.25560676      -0.25622076
C        0.42668603       1.24440388       0.27272710
O        1.73616813       0.80738824       0.29460184
C        1.70770186      -0.46931326      -0.01275576
N        0.50372347      -0.86759659      -0.30551658
H       -0.65524962      -1.60202865      -0.13079676
H       -2.18414419      -0.50879406      -1.04622645
H       -2.33131423       0.26517439       0.57952557
H        0.22367858       2.20529920       0.70591376
H        2.61950080      -1.04285649       0.00131041
11
Frame=12 idx=002073 GeodesicLength=0.6952324862263146 rxn_smarts="[C:1]([c:2]1[c:3]([H:10])[o:4][c:5]([H:11])[n:6]1)([H:7])([H:8])[H:9]>>[C:1](=[C:2]1[C-:3]([H:10])[O+:4]=[C:5]([H:11])[N:6]1[H:7])([H:8])[H:9]"
C       -1.68309994      -0.28246822      -0.10484208
C       -0.35428728       0.25770837      -0.27182574
C        0.42623480       1.24335966       0.27288376
O        1.73584896       0.80968740       0.29388400
C        1.70997979      -0.46597850      -0.01760801
N        0.50797829      -0.86705519      -0.31771892
H       -0.67472669      -1.60359465      -0.11829684
H       -2.18429902      -0.52534066      -1.03957107
H       -2.32086150       0.27918567       0.57389697
H        0.21616583       2.19480435       0.72317197
H        2.62106677      -1.04030823       0.00602596
11
Frame=13 idx=002073 GeodesicLength=0.7531873244050771 rxn_smarts="[C:1]([c:2]1[c:3]([H:10])[o:4][c:5]([H:11])[n:6]1)([H:7])([H:8])[H:9]>>[C:1](=[C:2]1[C-:3]([H:10])[O+:4]=[C:5]([H:11])[N:6]1[H:7])([H:8])[H:9]"
C       -1.67723830      -0.27770442      -0.10743488
C       -0.35085500       0.25964892      -0.28672527
C        0.42574945       1.24217958       0.27326075
O        1.73554386       0.81199949       0.29312840
C        1.71236478      -0.46257808      -0.02264920
N        0.51238712      -0.86646802      -0.33006460
H       -0.69450136      -1.60490554      -0.10473950
H       -2.18404601      -0.54133102      -1.03303419
H       -2.31074592       0.29284784       0.56776778
H        0.20865581       2.18394741       0.74020426
H        2.62268559      -1.03763615       0.01028644
11
Frame=14 idx=002073 GeodesicLength=0.8111449217259317 rxn_smarts="[C:1]([c:2]1[c:3]([H:10])[o:4][c:5]([H:11])[n:6]1)([H:7])([H:8])[H:9]>>[C:1](=[C:2]1[C-:3]([H:10])[O+:4]=[C:5]([H:11])[N:6]1[H:7])([H:8])[H:9]"
C       -1.67142302      -0.27300415      -0.11032962
C       -0.34744240       0.26144827      -0.30099384
C        0.42523431       1.24086309       0.27385248
O        1.73525566       0.81432617       0.29232809
C        1.71485537      -0.45911014      -0.02787494
N        0.51695706      -0.86581792      -0.34260159
H       -0.71458193      -1.60592282      -0.09010536
H       -2.18341324      -0.55683311      -1.02661614
H       -2.30095492       0.30619011       0.56114005
H        0.20115720       2.17271140       0.75707261
H        2.62435590      -1.03485089       0.01412826
11
Frame=15 idx=002073 GeodesicLength=0.8691051986756382 rxn_smarts="[C:1]([c:2]1[c:3]([H:10])[o:4][c:5]([H:11])[n:6]1)([H:7])([H:8])[H:9]>>[C:1](=[C:2]1[C-:3]([H:10])[O+:4]=[C:5]([H:11])[N:6]1[H:7])([H:8])[H:9]"
C       -1.66565169      -0.26838385      -0.11351282
C       -0.34404431       0.26311776      -0.31467874
C        0.42468892       1.23939922       0.27468380
O        1.73497659       0.81664385       0.29156596
C        1.71744103      -0.45559540      -0.03320485
N        0.52169720      -0.86509342      -0.35536129
H       -0.73498877      -1.60661421      -0.07441397
H       -2.18242328      -0.57188544      -1.02032041
H       -2.29147455       0.31921433       0.55403347
H        0.19367935       2.16114189       0.77372493
H        2.62609950      -1.03194474       0.01748391
11
Frame=16 idx=002073 GeodesicLength=0.9270658279857307 rxn_smarts="[C:1]([c:2]1[c:3]([H:10])[o:4][c:5]([H:11])[n:6]1)([H:7])([H:8])[H:9]>>[C:1](=[C:2]1[C-:3]([H:10])[O+:4]=[C:5]([H:11])[N:6]1[H:7])([H:8])[H:9]"
C       -1.65992135      -0.26385853      -0.11697248
C       -0.34065630       0.26466788      -0.32782200
C        0.42411382       1.23777794       0.27577170
O        1.73470045       0.81893186       0.29090726
C        1.72011230      -0.45204987      -0.03858041
N        0.52661656      -0.86428128      -0.36837757
H       -0.75574310      -1.60694386      -0.05766427
H       -2.18109025      -0.58653127      -1.01415157
H       -2.28229599       0.33192980       0.54645471
H        0.18622650       2.14927155       0.79013620
H        2.62793736      -1.02891422       0.02029842
