13
Frame=0 idx=008530 GeodesicLength=0.0 rxn_smarts="[O:1]=[C:2]1[C:3]([H:8])([H:9])[O:4][C@@:5]2([H:10])[C:6]([H:11])([H:12])[C@@:7]12[H:13]>>[O:1]=[C:2]1[C:3]([H:8])([H:9])[O:4][C:5]([H:10])=[C:7]([H:13])[C:6]1([H:11])[H:12]"
O        1.02460971       1.72876219       0.92322436
C        0.58450376       0.78290174       0.32611098
C        1.37791630      -0.36118733      -0.28188088
O        0.53153589      -0.89434553      -1.29598911
C       -0.63267374      -0.29307100      -1.21236764
C       -1.06094803      -0.23192098       1.14507082
C       -0.91326751       0.56766661      -0.09918814
H        1.58074258      -1.12695972       0.46499146
H        2.29986723      -0.03501365      -0.76182852
H       -1.27380187      -0.47524184      -2.06881249
H       -0.68066691       0.16903059       2.07177267
H       -1.31073654      -1.28208144       1.08426563
H       -1.52708092       1.45146041      -0.29536920
13
Frame=1 idx=008530 GeodesicLength=0.08146848271957129 rxn_smarts="[O:1]=[C:2]1[C:3]([H:8])([H:9])[O:4][C@@:5]2([H:10])[C:6]([H:11])([H:12])[C@@:7]12[H:13]>>[O:1]=[C:2]1[C:3]([H:8])([H:9])[O:4][C:5]([H:10])=[C:7]([H:13])[C:6]1([H:11])[H:12]"
O        1.04955515       1.71070517       0.95340613
C        0.59598121       0.77908282       0.34368415
C        1.38593509      -0.35481530      -0.28686291
O        0.53166274      -0.90131405      -1.28575868
C       -0.64076718      -0.30895500      -1.19685730
C       -1.05470844      -0.23037759       1.12483888
C       -0.91257073       0.58220835      -0.10989122
H        1.61481257      -1.11822424       0.45512415
H        2.29393113      -0.01290389      -0.78303857
H       -1.28220365      -0.49709053      -2.05155050
H       -0.69840481       0.16369071       2.06420879
H       -1.34824192      -1.26971909       1.08050106
H       -1.53498116       1.45771265      -0.30780396
13
Frame=2 idx=008530 GeodesicLength=0.1629781683312166 rxn_smarts="[O:1]=[C:2]1[C:3]([H:8])([H:9])[O:4][C@@:5]2([H:10])[C:6]([H:11])([H:12])[C@@:7]12[H:13]>>[O:1]=[C:2]1[C:3]([H:8])([H:9])[O:4][C:5]([H:10])=[C:7]([H:13])[C:6]1([H:11])[H:12]"
O        1.07447871       1.69115387       0.98426008
C        0.60762295       0.77431670       0.36186344
C        1.39413533      -0.34835529      -0.29222838
O        0.53233269      -0.90783126      -1.27603015
C       -0.64840191      -0.32474644      -1.18127560
C       -1.04805469      -0.22905590       1.10501827
C       -0.91132178       0.59573750      -0.12079548
H        1.64964293      -1.10958563       0.44352370
H        2.28727039       0.01015422      -0.80422922
H       -1.29020622      -0.51885875      -2.03412815
H       -0.71731870       0.15964170       2.05623076
H       -1.38699863      -1.25489507       1.07797525
H       -1.54318107       1.46232436      -0.32018451
13
Frame=3 idx=008530 GeodesicLength=0.24447305254226323 rxn_smarts="[O:1]=[C:2]1[C:3]([H:8])([H:9])[O:4][C@@:5]2([H:10])[C:6]([H:11])([H:12])[C@@:7]12[H:13]>>[O:1]=[C:2]1[C:3]([H:8])([H:9])[O:4][C:5]([H:10])=[C:7]([H:13])[C:6]1([H:11])[H:12]"
O        1.09934932       1.67007046       1.01573556
C        0.61937948       0.76858510       0.38061502
C        1.40243770      -0.34181927      -0.29790070
O        0.53348503      -0.91396628      -1.26674053
C       -0.65558789      -0.34041959      -1.16567553
C       -1.04105631      -0.22798822       1.08563804
C       -0.90959998       0.60825249      -0.13188900
H        1.68513220      -1.10097016       0.43026562
H        2.27979940       0.03410917      -0.82524037
H       -1.29779073      -0.54051873      -2.01661796
H       -0.73724361       0.15681787       2.04774844
H       -1.42660959      -1.23745435       1.07654238
H       -1.55169502       1.46530152      -0.33248097
13
Frame=4 idx=008530 GeodesicLength=0.3258927357113717 rxn_smarts="[O:1]=[C:2]1[C:3]([H:8])([H:9])[O:4][C@@:5]2([H:10])[C:6]([H:11])([H:12])[C@@:7]12[H:13]>>[O:1]=[C:2]1[C:3]([H:8])([H:9])[O:4][C:5]([H:10])=[C:7]([H:13])[C:6]1([H:11])[H:12]"
O        1.12412828       1.64744090       1.04776144
C        0.63118668       0.76188748       0.39989617
C        1.41073858      -0.33523741      -0.30377832
O        0.53503286      -0.91979743      -1.25780833
C       -0.66235850      -0.35592919      -1.15012105
C       -1.03382185      -0.22716817       1.06671709
C       -0.90750730       0.61977933      -0.14316760
H        1.72112506      -1.09231088       0.41547007
H        2.27143224       0.05885513      -0.84587971
H       -1.30495500      -0.56201447      -1.99911403
H       -0.75798740       0.15515959       2.03867555
H       -1.46647770      -1.21736100       1.07603064
H       -1.56053594       1.46669614      -0.34468193
13
Frame=5 idx=008530 GeodesicLength=0.40714478470979415 rxn_smarts="[O:1]=[C:2]1[C:3]([H:8])([H:9])[O:4][C@@:5]2([H:10])[C:6]([H:11])([H:12])[C@@:7]12[H:13]>>[O:1]=[C:2]1[C:3]([H:8])([H:9])[O:4][C:5]([H:10])=[C:7]([H:13])[C:6]1([H:11])[H:12]"
O        1.14876208       1.62327996       1.08022127
C        0.64296561       0.75424744       0.41964306
C        1.41890806      -0.32865013      -0.30973740
O        0.53686688      -0.92539985      -1.24912643
C       -0.66876203      -0.37120914      -1.13467315
C       -1.02647622      -0.22654197       1.04827720
C       -0.90515528       0.63037016      -0.15463439
H        1.75740427      -1.08353712       0.39931345
H        2.26207810       0.08423932      -0.86593602
H       -1.31170045      -0.58325860      -1.98171333
H       -0.77930143       0.15459207       2.02893528
H       -1.50589344      -1.19473132       1.07623273
H       -1.56969616       1.46659918      -0.35680226
13
Frame=6 idx=008530 GeodesicLength=0.48811890676916136 rxn_smarts="[O:1]=[C:2]1[C:3]([H:8])([H:9])[O:4][C@@:5]2([H:10])[C:6]([H:11])([H:12])[C@@:7]12[H:13]>>[O:1]=[C:2]1[C:3]([H:8])([H:9])[O:4][C:5]([H:10])=[C:7]([H:13])[C:6]1([H:11])[H:12]"
O        1.17319460       1.59761903       1.11300499
C        0.65462119       0.74571747       0.43978514
C        1.42679386      -0.32212150      -0.31565148
O        0.53885806      -0.93085091      -1.24059435
C       -0.67486197      -0.38616216      -1.11939743
C       -1.01919218      -0.22598094       1.03033044
C       -0.90266786       0.64012212      -0.16630432
H        1.79368515      -1.07460559       0.38199449
H        2.25166877       0.11003881      -0.88520099
H       -1.31803780      -0.60413853      -1.96451691
H       -0.80100432       0.15512824       2.01846875
H       -1.54390703      -1.16993501       1.07695550
H       -1.57915046       1.46516895      -0.36887381
13
Frame=7 idx=008530 GeodesicLength=0.5689096270639193 rxn_smarts="[O:1]=[C:2]1[C:3]([H:8])([H:9])[O:4][C@@:5]2([H:10])[C:6]([H:11])([H:12])[C@@:7]12[H:13]>>[O:1]=[C:2]1[C:3]([H:8])([H:9])[O:4][C:5]([H:10])=[C:7]([H:13])[C:6]1([H:11])[H:12]"
O        1.19742255       1.57046376       1.14603243
C        0.66611153       0.73632441       0.46028538
C        1.43432363      -0.31566358      -0.32139252
O        0.54091108      -0.93619390      -1.23208505
C       -0.68073775      -0.40071514      -1.10435263
C       -1.01210085      -0.22536244       1.01283017
C       -0.90014031       0.64913936      -0.17821010
H        1.82982782      -1.06544194       0.36366276
H        2.24016415       0.13616797      -0.90346597
H       -1.32409843      -0.62472455      -1.94751157
H       -0.82278332       0.15666784       2.00727221
H       -1.58003172      -1.14323718       1.07792679
H       -1.58886839       1.46257539      -0.38099191
13
Frame=8 idx=008530 GeodesicLength=0.6494009146783313 rxn_smarts="[O:1]=[C:2]1[C:3]([H:8])([H:9])[O:4][C@@:5]2([H:10])[C:6]([H:11])([H:12])[C@@:7]12[H:13]>>[O:1]=[C:2]1[C:3]([H:8])([H:9])[O:4][C:5]([H:10])=[C:7]([H:13])[C:6]1([H:11])[H:12]"
O        1.22139120       1.54192579       1.17915727
C        0.67735185       0.72617929       0.48105063
C        1.44136344      -0.30933898      -0.32684956
O        0.54291131      -0.94148432      -1.22352336
C       -0.68646127      -0.41478169      -1.08958571
C       -1.00531639      -0.22450919       0.99580726
C       -0.89768065       0.65754802      -0.19038061
H        1.86552783      -1.05601928       0.34456050
H        2.22754909       0.16238058      -0.92057034
H       -1.32989180      -0.64488530      -1.93080086
H       -0.84441860       0.15923335       1.99536827
H       -1.61352605      -1.11527573       1.07898639
H       -1.59879996       1.45902747      -0.39321989
13
Frame=9 idx=008530 GeodesicLength=0.7296666343405188 rxn_smarts="[O:1]=[C:2]1[C:3]([H:8])([H:9])[O:4][C@@:5]2([H:10])[C:6]([H:11])([H:12])[C@@:7]12[H:13]>>[O:1]=[C:2]1[C:3]([H:8])([H:9])[O:4][C:5]([H:10])=[C:7]([H:13])[C:6]1([H:11])[H:12]"
O        1.24511263       1.51209483       1.21229182
C        0.68832279       0.71536358       0.50202806
C        1.44789381      -0.30316625      -0.33194780
O        0.54480855      -0.94674836      -1.21486916
C       -0.69211378      -0.42832976      -1.07513812
C       -0.99891568      -0.22328776       0.97924849
C       -0.89538230       0.66544652      -0.20283813
H        1.90065854      -1.04629219       0.32482826
H        2.21390554       0.18854916      -0.93638715
H       -1.33551193      -0.66463554      -1.91442471
H       -0.86569075       0.16280896       1.98283709
H       -1.64414818      -1.08649661       1.07998430
H       -1.60893925       1.45469343      -0.40561294
13
Frame=10 idx=008530 GeodesicLength=0.8096340422937677 rxn_smarts="[O:1]=[C:2]1[C:3]([H:8])([H:9])[O:4][C@@:5]2([H:10])[C:6]([H:11])([H:12])[C@@:7]12[H:13]>>[O:1]=[C:2]1[C:3]([H:8])([H:9])[O:4][C:5]([H:10])=[C:7]([H:13])[C:6]1([H:11])[H:12]"
O        1.26850518       1.48099125       1.24526136
C        0.69894614       0.70393111       0.52312987
C        1.45378182      -0.29717592      -0.33659309
O        0.54650840      -0.95195109      -1.20602869
C       -0.69772714      -0.44126055      -1.06100747
C       -0.99292238      -0.22156785       0.96307749
C       -0.89327611       0.67294212      -0.21564971
H        1.93490599      -1.03627391       0.30462938
H        2.19918289       0.21452268      -0.95077335
H       -1.34094071      -0.68386078      -1.89835716
H       -0.88648754       0.16746122       1.96967699
H       -1.67129251      -1.05751166       1.08089872
H       -1.61918403       1.44975339      -0.41826433
13
Frame=11 idx=008530 GeodesicLength=0.8894182517701383 rxn_smarts="[O:1]=[C:2]1[C:3]([H:8])([H:9])[O:4][C@@:5]2([H:10])[C:6]([H:11])([H:12])[C@@:7]12[H:13]>>[O:1]=[C:2]1[C:3]([H:8])([H:9])[O:4][C:5]([H:10])=[C:7]([H:13])[C:6]1([H:11])[H:12]"
O        1.29161324       1.44867514       1.27803612
C        0.70926562       0.69196208       0.54430813
C        1.45911271      -0.29132307      -0.34078700
O        0.54805376      -0.95705956      -1.19703887
C       -0.70334236      -0.45362447      -1.04718693
C       -0.98726251      -0.21928017       0.94732458
C       -0.89142033       0.68007227      -0.22880715
H        1.96834086      -1.02584950       0.28403245
H        2.18352810       0.24029313      -0.96369667
H       -1.34630215      -0.70273308      -1.88253231
H       -0.90651911       0.17304913       1.95599959
H       -1.69553882      -1.02846858       1.08156217
H       -1.62952900       1.44428669      -0.43121411
13
Frame=12 idx=008530 GeodesicLength=0.9690784696612714 rxn_smarts="[O:1]=[C:2]1[C:3]([H:8])([H:9])[O:4][C@@:5]2([H:10])[C:6]([H:11])([H:12])[C@@:7]12[H:13]>>[O:1]=[C:2]1[C:3]([H:8])([H:9])[O:4][C:5]([H:10])=[C:7]([H:13])[C:6]1([H:11])[H:12]"
O        1.31449450       1.41512143       1.31069805
C        0.71931294       0.67949472       0.56557452
C        1.46395206      -0.28558336      -0.34457086
O        0.54947400      -0.96209125      -1.18795656
C       -0.70898472      -0.46547046      -1.03368146
C       -0.98195860      -0.21638772       0.93197104
C       -0.88983522       0.68688295      -0.24232999
H        2.00099000      -1.01498757       0.26299230
H        2.16705862       0.26590338      -0.97520384
H       -1.35165275      -0.72138369      -1.86692226
H       -0.92587449       0.17969258       1.94189115
H       -1.71704478      -0.99960381       1.08202551
H       -1.63993158       1.43841279      -0.44448758
13
Frame=13 idx=008530 GeodesicLength=1.0486073876953992 rxn_smarts="[O:1]=[C:2]1[C:3]([H:8])([H:9])[O:4][C@@:5]2([H:10])[C:6]([H:11])([H:12])[C@@:7]12[H:13]>>[O:1]=[C:2]1[C:3]([H:8])([H:9])[O:4][C:5]([H:10])=[C:7]([H:13])[C:6]1([H:11])[H:12]"
O        1.33708184       1.38018955       1.34317625
C        0.72905395       0.66649251       0.58689771
C        1.46824094      -0.27992092      -0.34791619
O        0.55074823      -0.96694642      -1.17874175
C       -0.71463817      -0.47677430      -1.02044777
C       -0.97690620      -0.21286309       0.91695887
C       -0.88849691       0.69337814      -0.25627872
H        2.03272699      -1.00363622       0.24155877
H        2.14969170       0.29136716      -0.98525080
H       -1.35696914      -0.73981026      -1.85142124
H       -0.94448526       0.18743717       1.92733429
H       -1.73574376      -0.97106352       1.08231906
H       -1.65030420       1.43215021      -0.45818847
13
Frame=14 idx=008530 GeodesicLength=1.1280203978682561 rxn_smarts="[O:1]=[C:2]1[C:3]([H:8])([H:9])[O:4][C@@:5]2([H:10])[C:6]([H:11])([H:12])[C@@:7]12[H:13]>>[O:1]=[C:2]1[C:3]([H:8])([H:9])[O:4][C:5]([H:10])=[C:7]([H:13])[C:6]1([H:11])[H:12]"
O        1.35938149       1.34404692       1.37535092
C        0.73852367       0.65308348       0.60818807
C        1.47204782      -0.27433230      -0.35082788
O        0.55192128      -0.97159596      -1.16947375
C       -0.72032897      -0.48758820      -1.00747676
C       -0.97202952      -0.20870656       0.90227856
C       -0.88748479       0.69958415      -0.27063812
H        2.06350587      -0.99178188       0.21983280
H        2.13165679       0.31660250      -0.99377645
H       -1.36228662      -0.75805206      -1.83602637
H       -0.96214243       0.19613361       1.91240690
H       -1.75204860      -0.94296539       1.08241341
H       -1.66071600       1.42557169      -0.47225135
13
Frame=15 idx=008530 GeodesicLength=1.2073533246591075 rxn_smarts="[O:1]=[C:2]1[C:3]([H:8])([H:9])[O:4][C@@:5]2([H:10])[C:6]([H:11])([H:12])[C@@:7]12[H:13]>>[O:1]=[C:2]1[C:3]([H:8])([H:9])[O:4][C:5]([H:10])=[C:7]([H:13])[C:6]1([H:11])[H:12]"
O        1.38143052       1.30661988       1.40726784
C        0.74775500       0.63925103       0.62947689
C        1.47542582      -0.26878331      -0.35333376
O        0.55301945      -0.97600497      -1.16021337
C       -0.72606391      -0.49794930      -0.99476973
C       -0.96730794      -0.20390568       0.88790027
C       -0.88679997       0.70550314      -0.28544367
H        2.09334505      -0.97939453       0.19778477
H        2.11303107       0.34166810      -1.00081058
H       -1.36764123      -0.77620511      -1.82070531
H       -0.97892531       0.20587123       1.89716074
H       -1.76610712      -0.91536377       1.08239540
H       -1.67116145       1.41869330      -0.48670949
13
Frame=16 idx=008530 GeodesicLength=1.2866498152917085 rxn_smarts="[O:1]=[C:2]1[C:3]([H:8])([H:9])[O:4][C@@:5]2([H:10])[C:6]([H:11])([H:12])[C@@:7]12[H:13]>>[O:1]=[C:2]1[C:3]([H:8])([H:9])[O:4][C:5]([H:10])=[C:7]([H:13])[C:6]1([H:11])[H:12]"
O        1.40322539       1.26774597       1.43897750
C        0.75676755       0.62497396       0.65076574
C        1.47841218      -0.26322111      -0.35546954
O        0.55408222      -0.98013563      -1.15098535
C       -0.73182502      -0.50791218      -0.98228134
C       -0.96266472      -0.19847301       0.87379538
C       -0.88644269       0.71111782      -0.30072084
H        2.12230096      -0.96639171       0.17537844
H        2.09382355       0.36665646      -1.00637745
H       -1.37304383      -0.79439042      -1.80534354
H       -0.99480545       0.21666577       1.88158537
H       -1.77820488      -0.88815076       1.08228332
H       -1.68162527       1.41151482      -0.50160770
