14
Frame=0 idx=005731 GeodesicLength=0.0 rxn_smarts="[C:1]([C@@:2]1([H:10])[C:3]([H:11])([H:12])[C:4]([H:13])([H:14])[C:5]1=[O:6])([H:7])([H:8])[H:9]>>[C:1]([C:2](=[C:5]=[O:6])[H:10])([H:7])([H:8])[H:9].[C:3](=[C:4]([H:13])[H:14])([H:11])[H:12]"
C        2.11184526      -0.19313461       0.52510284
C        0.77472310       0.20670958       0.00026508
C       -1.41996007      -0.29574170      -1.08530337
C       -1.74909780       0.63779859      -0.10739231
C       -0.37938087      -0.21179654       0.61574787
O       -0.67792493      -0.99960721       1.48782983
H        2.51508847       0.55661720       1.21349613
H        2.03953015      -1.13534830       1.06910862
H        2.82991958      -0.30427458      -0.28969777
H        0.71212827       0.97822371      -0.75256554
H       -0.93044297      -0.01796809      -2.00702821
H       -1.74757115      -1.32283574      -0.99399663
H       -1.56012696       1.68709562      -0.29273734
H       -2.51873005       0.41426207       0.61717079
14
Frame=1 idx=005731 GeodesicLength=0.08214525607698618 rxn_smarts="[C:1]([C@@:2]1([H:10])[C:3]([H:11])([H:12])[C:4]([H:13])([H:14])[C:5]1=[O:6])([H:7])([H:8])[H:9]>>[C:1]([C:2](=[C:5]=[O:6])[H:10])([H:7])([H:8])[H:9].[C:3](=[C:4]([H:13])[H:14])([H:11])[H:12]"
C        2.11355007      -0.20941821       0.51115131
C        0.77063703       0.21106902       0.01393659
C       -1.39299092      -0.29858845      -1.08788815
C       -1.76419445       0.63204195      -0.11905716
C       -0.37867327      -0.18617915       0.65702829
O       -0.67684662      -0.95607937       1.54229556
H        2.53675621       0.52817554       1.20041244
H        2.04089084      -1.15685655       1.04606464
H        2.81646793      -0.32010861      -0.31680563
H        0.71149633       1.01057443      -0.71014057
H       -0.92317253      -0.00612825      -2.01564385
H       -1.70484768      -1.33115904      -1.00002297
H       -1.60145768       1.68533167      -0.30880798
H       -2.54761526       0.39732501       0.58747748
14
Frame=2 idx=005731 GeodesicLength=0.16417774714170003 rxn_smarts="[C:1]([C@@:2]1([H:10])[C:3]([H:11])([H:12])[C:4]([H:13])([H:14])[C:5]1=[O:6])([H:7])([H:8])[H:9]>>[C:1]([C:2](=[C:5]=[O:6])[H:10])([H:7])([H:8])[H:9].[C:3](=[C:4]([H:13])[H:14])([H:11])[H:12]"
C        2.11432931      -0.22526805       0.49776929
C        0.76671850       0.21475809       0.02667807
C       -1.36643109      -0.29981514      -1.09065715
C       -1.77815192       0.62569519      -0.12998485
C       -0.37726120      -0.16072575       0.69696538
O       -0.67489450      -0.91199965       1.59550849
H        2.55663052       0.50100008       1.18680773
H        2.04067796      -1.17709584       1.02484304
H        2.80260953      -0.33626097      -0.34237463
H        0.71193784       1.04010345      -0.66916655
H       -0.91789581       0.00652434      -2.02486733
H       -1.66255031      -1.33766015      -1.00659900
H       -1.64216730       1.68240085      -0.32409829
H       -2.57355154       0.37834354       0.55917579
14
Frame=3 idx=005731 GeodesicLength=0.246139182401851 rxn_smarts="[C:1]([C@@:2]1([H:10])[C:3]([H:11])([H:12])[C:4]([H:13])([H:14])[C:5]1=[O:6])([H:7])([H:8])[H:9]>>[C:1]([C:2](=[C:5]=[O:6])[H:10])([H:7])([H:8])[H:9].[C:3](=[C:4]([H:13])[H:14])([H:11])[H:12]"
C        2.11428525      -0.24073562       0.48497977
C        0.76293000       0.21788773       0.03860974
C       -1.34034953      -0.29947325      -1.09373915
C       -1.79110754       0.61880165      -0.14022641
C       -0.37513609      -0.13544108       0.73564561
O       -0.67206549      -0.86722736       1.64761974
H        2.57485775       0.47494255       1.17286777
H        2.03909893      -1.19622636       1.00532160
H        2.78842689      -0.35268539      -0.36645319
H        0.71344238       1.06690154      -0.62973317
H       -0.91452230       0.01986942      -2.03466178
H       -1.62069103      -1.34239157      -1.01391046
H       -1.68243433       1.67831616      -0.33856464
H       -2.59673490       0.35746157       0.53224456
14
Frame=4 idx=005731 GeodesicLength=0.32801324044802277 rxn_smarts="[C:1]([C@@:2]1([H:10])[C:3]([H:11])([H:12])[C:4]([H:13])([H:14])[C:5]1=[O:6])([H:7])([H:8])[H:9]>>[C:1]([C:2](=[C:5]=[O:6])[H:10])([H:7])([H:8])[H:9].[C:3](=[C:4]([H:13])[H:14])([H:11])[H:12]"
C        2.11352493      -0.25584289       0.47283144
C        0.75925236       0.22041611       0.04975331
C       -1.31485305      -0.29758381      -1.09725677
C       -1.80316540       0.61140083      -0.14980566
C       -0.37228003      -0.11038789       0.77311135
O       -0.66834568      -0.82171869       1.69868824
H        2.59150891       0.45000360       1.15872657
H        2.03638261      -1.21431531       0.98753296
H        2.77406600      -0.36938507      -0.38900914
H        0.71600434       1.09098664      -0.59197275
H       -0.91304009       0.03388100      -2.04502062
H       -1.57938281      -1.34536993      -1.02216153
H       -1.72236558       1.67309326      -0.35212795
H       -2.61730650       0.33482216       0.50671054
14
Frame=5 idx=005731 GeodesicLength=0.40983522749974044 rxn_smarts="[C:1]([C@@:2]1([H:10])[C:3]([H:11])([H:12])[C:4]([H:13])([H:14])[C:5]1=[O:6])([H:7])([H:8])[H:9]>>[C:1]([C:2](=[C:5]=[O:6])[H:10])([H:7])([H:8])[H:9].[C:3](=[C:4]([H:13])[H:14])([H:11])[H:12]"
C        2.11208680      -0.27070388       0.46128841
C        0.75565067       0.22259302       0.06030679
C       -1.28987105      -0.29419963      -1.10127809
C       -1.81447763       0.60346935      -0.15879644
C       -0.36870848      -0.08540078       0.80953937
O       -0.66373384      -0.77517808       1.74893738
H        2.60681592       0.42587917       1.14448833
H        2.03257509      -1.23157281       0.97124759
H        2.75945609      -0.38641488      -0.41019647
H        0.71959060       1.11259093      -0.55582944
H       -0.91325780       0.04851348      -2.05587497
H       -1.53839657      -1.34665518      -1.03146258
H       -1.76226022       1.66666995      -0.36484085
H       -2.63546959       0.31040935       0.48247098
14
Frame=6 idx=005731 GeodesicLength=0.49164211899930443 rxn_smarts="[C:1]([C@@:2]1([H:10])[C:3]([H:11])([H:12])[C:4]([H:13])([H:14])[C:5]1=[O:6])([H:7])([H:8])[H:9]>>[C:1]([C:2](=[C:5]=[O:6])[H:10])([H:7])([H:8])[H:9].[C:3](=[C:4]([H:13])[H:14])([H:11])[H:12]"
C        2.11003241      -0.28538607       0.45036026
C        0.75210778       0.22439679       0.07032293
C       -1.26540773      -0.28933534      -1.10588792
C       -1.82514201       0.59499609      -0.16724562
C       -0.36441514      -0.06042506       0.84503089
O       -0.65822233      -0.72744180       1.79844738
H        2.62088445       0.40247467       1.13023007
H        2.02779086      -1.24812823       0.95645242
H        2.74464034      -0.40383630      -0.43008000
H        0.72417649       1.13194096      -0.52129609
H       -0.91508942       0.06376644      -2.06719973
H       -1.49772442      -1.34626565      -1.04193942
H       -1.80228879       1.65901013      -0.37669411
H       -2.65134249       0.28423337       0.45949894
14
Frame=7 idx=005731 GeodesicLength=0.573467873096491 rxn_smarts="[C:1]([C@@:2]1([H:10])[C:3]([H:11])([H:12])[C:4]([H:13])([H:14])[C:5]1=[O:6])([H:7])([H:8])[H:9]>>[C:1]([C:2](=[C:5]=[O:6])[H:10])([H:7])([H:8])[H:9].[C:3](=[C:4]([H:13])[H:14])([H:11])[H:12]"
C        2.10736900      -0.30000097       0.44002656
C        0.74860570       0.22596608       0.07992127
C       -1.24138423      -0.28299707      -1.11115034
C       -1.83526180       0.58591997      -0.17520704
C       -0.35940032      -0.03527443       0.87972931
O       -0.65179987      -0.67821282       1.84735718
H        2.63388029       0.37955529       1.11599310
H        2.02201991      -1.26414763       0.94304409
H        2.72952039      -0.42177428      -0.44877875
H        0.72974203       1.14930899      -0.48829972
H       -0.91839925       0.07966864      -2.07894347
H       -1.45715897      -1.34419451      -1.05371295
H       -1.84273602       1.64999295      -0.38772289
H       -2.66499686       0.25618979       0.43774366
14
Frame=8 idx=005731 GeodesicLength=0.6553377458096129 rxn_smarts="[C:1]([C@@:2]1([H:10])[C:3]([H:11])([H:12])[C:4]([H:13])([H:14])[C:5]1=[O:6])([H:7])([H:8])[H:9]>>[C:1]([C:2](=[C:5]=[O:6])[H:10])([H:7])([H:8])[H:9].[C:3](=[C:4]([H:13])[H:14])([H:11])[H:12]"
C        2.10411605      -0.31462012       0.43029086
C        0.74512868       0.22730987       0.08915527
C       -1.21776751      -0.27515889      -1.11712134
C       -1.84490918       0.57620707      -0.18271113
C       -0.35365427      -0.00985679       0.91372142
O       -0.64444877      -0.62732147       1.89570794
H        2.64588739       0.35701383       1.10180556
H        2.01528707      -1.27972364       0.93100429
H        2.71408319      -0.44030249      -0.46633703
H        0.73629054       1.16485222      -0.45680191
H       -0.92309319       0.09629303      -2.09109307
H       -1.41665382      -1.34043315      -1.06688130
H       -1.88376235       1.63952165      -0.39795727
H       -2.67650382       0.22621887       0.41721770
14
Frame=9 idx=005731 GeodesicLength=0.7369974117755318 rxn_smarts="[C:1]([C@@:2]1([H:10])[C:3]([H:11])([H:12])[C:4]([H:13])([H:14])[C:5]1=[O:6])([H:7])([H:8])[H:9]>>[C:1]([C:2](=[C:5]=[O:6])[H:10])([H:7])([H:8])[H:9].[C:3](=[C:4]([H:13])[H:14])([H:11])[H:12]"
C        2.10027392      -0.32937092       0.42116747
C        0.74168217       0.22843087       0.09807885
C       -1.19456385      -0.26569862      -1.12378425
C       -1.85413507       0.56565300      -0.18981023
C       -0.34719898       0.01610274       0.94707420
O       -0.63611829      -0.57416055       1.94358858
H        2.65705804       0.33463202       1.08765861
H        2.00753932      -1.29492727       0.92035834
H        2.69822243      -0.45964048      -0.48284205
H        0.74375686       1.17864107      -0.42671543
H       -0.92912415       0.11400403      -2.10353999
H       -1.37609399      -1.33485976      -1.08160519
H       -1.92562092       1.62724203      -0.40730293
H       -2.68567747       0.19395184       0.39767402
14
Frame=10 idx=005731 GeodesicLength=0.8186654964957514 rxn_smarts="[C:1]([C@@:2]1([H:10])[C:3]([H:11])([H:12])[C:4]([H:13])([H:14])[C:5]1=[O:6])([H:7])([H:8])[H:9]>>[C:1]([C:2](=[C:5]=[O:6])[H:10])([H:7])([H:8])[H:9].[C:3](=[C:4]([H:13])[H:14])([H:11])[H:12]"
C        2.09579098      -0.34431198       0.41266642
C        0.73821722       0.22943381       0.10674190
C       -1.17170417      -0.25461389      -1.13125150
C       -1.86298359       0.55428141      -0.19649848
C       -0.33996062       0.04268815       0.97986895
O       -0.62677337      -0.51876467       1.99092875
H        2.66738149       0.31231026       1.07360295
H        1.99871049      -1.30985909       0.91110132
H        2.68187829      -0.47986792      -0.49827063
H        0.75224715       1.19093634      -0.39810953
H       -0.93644979       0.13267176      -2.11630160
H       -1.33529919      -1.32744213      -1.09804446
H       -1.96849322       1.61307790      -0.41574217
H       -2.69256168       0.15946005       0.37930808
14
Frame=11 idx=005731 GeodesicLength=0.9003542971963183 rxn_smarts="[C:1]([C@@:2]1([H:10])[C:3]([H:11])([H:12])[C:4]([H:13])([H:14])[C:5]1=[O:6])([H:7])([H:8])[H:9]>>[C:1]([C:2](=[C:5]=[O:6])[H:10])([H:7])([H:8])[H:9].[C:3](=[C:4]([H:13])[H:14])([H:11])[H:12]"
C        2.09062035      -0.35952864       0.40479020
C        0.73470816       0.23038346       0.11519580
C       -1.14915069      -0.24182895      -1.13954332
C       -1.87148459       0.54198303      -0.20279355
C       -0.33190650       0.07010947       1.01218324
O       -0.61637571      -0.46087062       2.03772120
H        2.67691169       0.28989541       1.05963129
H        1.98870799      -1.32459797       0.90324791
H        2.66493018      -0.50114399      -0.51264752
H        0.76178532       1.20185582      -0.37097509
H       -0.94501796       0.15243807      -2.12932124
H       -1.29409210      -1.31805671      -1.11634970
H       -2.01256749       1.59679887      -0.42320267
H       -2.69706866       0.12256276       0.36206346
14
Frame=12 idx=005731 GeodesicLength=0.9820129367845452 rxn_smarts="[C:1]([C@@:2]1([H:10])[C:3]([H:11])([H:12])[C:4]([H:13])([H:14])[C:5]1=[O:6])([H:7])([H:8])[H:9]>>[C:1]([C:2](=[C:5]=[O:6])[H:10])([H:7])([H:8])[H:9].[C:3](=[C:4]([H:13])[H:14])([H:11])[H:12]"
C        2.08469226      -0.37514429       0.39758639
C        0.73114827       0.23130432       0.12344106
C       -1.12687886      -0.22717122      -1.14872230
C       -1.87965011       0.52857699      -0.20870164
C       -0.32298671       0.09862064       1.04402497
O       -0.60484217      -0.40002769       2.08393203
H        2.68565920       0.26719649       1.04572925
H        1.97740637      -1.33919874       0.89692308
H        2.64723991      -0.52372928      -0.52592970
H        0.77245215       1.21152055      -0.34535264
H       -0.95486677       0.17358758      -2.14252524
H       -1.25231079      -1.30647004      -1.13676657
H       -2.05814132       1.57801825      -0.42955449
H       -2.69892142       0.08291645       0.34591581
14
Frame=13 idx=005731 GeodesicLength=1.063644722607722 rxn_smarts="[C:1]([C@@:2]1([H:10])[C:3]([H:11])([H:12])[C:4]([H:13])([H:14])[C:5]1=[O:6])([H:7])([H:8])[H:9]>>[C:1]([C:2](=[C:5]=[O:6])[H:10])([H:7])([H:8])[H:9].[C:3](=[C:4]([H:13])[H:14])([H:11])[H:12]"
C        2.07792365      -0.39127331       0.39110478
C        0.72751268       0.23222456       0.13149117
C       -1.10488507      -0.21046301      -1.15882465
C       -1.88748814       0.51388078      -0.21422798
C       -0.31315336       0.12845433       1.07540431
O       -0.59209304      -0.33581659       2.12945582
H        2.69363835       0.24406749       1.03187731
H        1.96465820      -1.35370328       0.89225968
H        2.62866555      -0.54786141      -0.53807997
H        0.78431069       1.21996686      -0.32127995
H       -0.96601736       0.19643908      -2.15582663
H       -1.20979956      -1.29246343      -1.15953752
H       -2.10540907       1.55636192      -0.43466403
H       -2.69786353       0.04018600       0.33084764
14
Frame=14 idx=005731 GeodesicLength=1.1452800009196635 rxn_smarts="[C:1]([C@@:2]1([H:10])[C:3]([H:11])([H:12])[C:4]([H:13])([H:14])[C:5]1=[O:6])([H:7])([H:8])[H:9]>>[C:1]([C:2](=[C:5]=[O:6])[H:10])([H:7])([H:8])[H:9].[C:3](=[C:4]([H:13])[H:14])([H:11])[H:12]"
C        2.07019030      -0.40802917       0.38537847
C        0.72378012       0.23325895       0.13939354
C       -1.08313484      -0.19150464      -1.16985675
C       -1.89498528       0.49769630      -0.21935980
C       -0.30233732       0.15995118       1.10634647
O       -0.57807097      -0.26787178       2.17414447
H        2.70085883       0.22028867       1.01805951
H        1.95022645      -1.36816261       0.88935780
H        2.60896294      -0.57381016      -0.54908066
H        0.79746650       1.22728213      -0.29880147
H       -0.97847437       0.22129967      -2.16912616
H       -1.16631400      -1.27574478      -1.18487844
H       -2.15459931       1.53130447      -0.43842605
H       -2.69356907      -0.00595823       0.31684905
14
Frame=15 idx=005731 GeodesicLength=1.2269666962413162 rxn_smarts="[C:1]([C@@:2]1([H:10])[C:3]([H:11])([H:12])[C:4]([H:13])([H:14])[C:5]1=[O:6])([H:7])([H:8])[H:9]>>[C:1]([C:2](=[C:5]=[O:6])[H:10])([H:7])([H:8])[H:9].[C:3](=[C:4]([H:13])[H:14])([H:11])[H:12]"
C        2.06135552      -0.42552671       0.38046268
C        0.71992536       0.23449704       0.14717025
C       -1.06163316      -0.17006237      -1.18180969
C       -1.90209825       0.47979590      -0.22408904
C       -0.29046196       0.19345896       1.13684470
O       -0.56271808      -0.19583686       2.21779619
H        2.70731157       0.19566824       1.00426575
H        1.93385446      -1.38261114       0.88836197
H        2.58790362      -0.60185231      -0.55889046
H        0.81202622       1.23350947      -0.27798909
H       -0.99227632       0.24853000      -2.18231379
H       -1.12164207      -1.25599289      -1.21301697
H       -2.20587642       1.50229253      -0.44069706
H       -2.68567048      -0.05586988       0.30390455
14
Frame=16 idx=005731 GeodesicLength=1.3087302815511082 rxn_smarts="[C:1]([C@@:2]1([H:10])[C:3]([H:11])([H:12])[C:4]([H:13])([H:14])[C:5]1=[O:6])([H:7])([H:8])[H:9]>>[C:1]([C:2](=[C:5]=[O:6])[H:10])([H:7])([H:8])[H:9].[C:3](=[C:4]([H:13])[H:14])([H:11])[H:12]"
C        2.05124530      -0.44393632       0.37645094
C        0.71593319       0.23603714       0.15481453
C       -1.04042061      -0.14578003      -1.19469002
C       -1.90876773       0.45984063      -0.22838461
C       -0.27743453       0.22942336       1.16682530
O       -0.54595728      -0.11911546       2.26016529
H        2.71296125       0.16996150       0.99049594
H        1.91518664      -1.39709073       0.88952097
H        2.56522305      -0.63241201      -0.56740895
H        0.82816607       1.23868145      -0.25898109
H       -1.00757211       0.27867305      -2.19524030
H       -1.07552849      -1.23268754      -1.24432639
H       -2.25947110       1.46850380      -0.44124846
H       -2.67356365      -0.11009884       0.29200686
