16
Frame=0 idx=001783 GeodesicLength=0.0 rxn_smarts="[C:1]([C@@:2]1([H:10])[C:3]([H:11])([H:12])[C@:4]([O:5][H:14])([H:13])[C:6]1([H:15])[H:16])([H:7])([H:8])[H:9]>>[C:1]([C@@:2]1([H:10])[C:3]([H:12])=[C:4]([H:13])[C:6]1([H:15])[H:16])([H:7])([H:8])[H:9].[O:5]([H:11])[H:14]"
C        1.85027887       0.04613844      -0.61853983
C        0.84981790       0.14461517       0.51647180
C       -0.37930195       1.04090332       0.32503609
C       -1.27449384      -0.03070475       0.59572561
O       -1.84729276      -0.17088448      -1.20050824
C       -0.15616752      -1.03531361       0.69731134
H        2.37531176       0.99444147      -0.75459618
H        1.34602201      -0.19491827      -1.55763626
H        2.59919497      -0.72616461      -0.42397846
H        1.37384968       0.33928493       1.45678852
H       -0.99397647       0.69326151      -0.90046175
H       -0.50415948       2.08782164       0.57766982
H       -2.25157477      -0.07808177       1.06316142
H       -2.71928470       0.20791761      -1.36412347
H       -0.11775972      -1.52455000       1.67234508
H       -0.15046394      -1.79376654      -0.08466542
16
Frame=1 idx=001783 GeodesicLength=0.0509824135391493 rxn_smarts="[C:1]([C@@:2]1([H:10])[C:3]([H:11])([H:12])[C@:4]([O:5][H:14])([H:13])[C:6]1([H:15])[H:16])([H:7])([H:8])[H:9]>>[C:1]([C@@:2]1([H:10])[C:3]([H:12])=[C:4]([H:13])[C:6]1([H:15])[H:16])([H:7])([H:8])[H:9].[O:5]([H:11])[H:14]"
C        1.85123216       0.04613589      -0.61623470
C        0.84931857       0.14359473       0.51761046
C       -0.38014969       1.03792186       0.32200401
C       -1.27441011      -0.03496270       0.59639041
O       -1.86116476      -0.17411871      -1.20372136
C       -0.15403078      -1.03770711       0.69970537
H        2.37543921       0.99481752      -0.75285861
H        1.34786603      -0.19660136      -1.55544242
H        2.60095784      -0.72492589      -0.42019729
H        1.37035008       0.34327002       1.45846785
H       -0.99563937       0.69736913      -0.91438640
H       -0.50352131       2.08466516       0.57689661
H       -2.24224537      -0.07256346       1.08350530
H       -2.72505389       0.21730361      -1.37786210
H       -0.11252420      -1.53167888       1.67214147
H       -0.14642441      -1.79251982      -0.08601860
16
Frame=2 idx=001783 GeodesicLength=0.10194604523140918 rxn_smarts="[C:1]([C@@:2]1([H:10])[C:3]([H:11])([H:12])[C@:4]([O:5][H:14])([H:13])[C:6]1([H:15])[H:16])([H:7])([H:8])[H:9]>>[C:1]([C@@:2]1([H:10])[C:3]([H:12])=[C:4]([H:13])[C:6]1([H:15])[H:16])([H:7])([H:8])[H:9].[O:5]([H:11])[H:14]"
C        1.85209833       0.04613667      -0.61392883
C        0.84876986       0.14256280       0.51878186
C       -0.38107003       1.03488267       0.31901994
C       -1.27440182      -0.03926505       0.59720496
O       -1.87515412      -0.17721413      -1.20682672
C       -0.15191762      -1.04012418       0.70215398
H        2.37546910       0.99520022      -0.75113079
H        1.34960441      -0.19827743      -1.55323508
H        2.60264164      -0.72367811      -0.41644490
H        1.36679887       0.34723635       1.46014577
H       -0.99727620       0.70161406      -0.92841130
H       -0.50293508       2.08146418       0.57610988
H       -2.23239086      -0.06699127       1.10406455
H       -2.73053559       0.22657380      -1.39211054
H       -0.10721219      -1.53886718       1.67193096
H       -0.14248869      -1.79125340      -0.08732372
16
Frame=3 idx=001783 GeodesicLength=0.15288091560545466 rxn_smarts="[C:1]([C@@:2]1([H:10])[C:3]([H:11])([H:12])[C@:4]([O:5][H:14])([H:13])[C:6]1([H:15])[H:16])([H:7])([H:8])[H:9]>>[C:1]([C@@:2]1([H:10])[C:3]([H:12])=[C:4]([H:13])[C:6]1([H:15])[H:16])([H:7])([H:8])[H:9].[O:5]([H:11])[H:14]"
C        1.85286391       0.04613908      -0.61163167
C        0.84817237       0.14152000       0.51998911
C       -0.38206142       1.03179152       0.31610529
C       -1.27447065      -0.04360473       0.59818193
O       -1.88923085      -0.18015902      -1.20983159
C       -0.14983060      -1.04255955       0.70466904
H        2.37539246       0.99558474      -0.74942470
H        1.35121098      -0.19994028      -1.55101910
H        2.60422928      -0.72243011      -0.41274530
H        1.36320917       0.35117742       1.46182017
H       -0.99888093       0.70602821      -0.94252178
H       -0.50239605       2.07822331       0.57533844
H       -2.22201471      -0.06138224       1.12479663
H       -2.73570151       0.23568158      -1.40689073
H       -0.10182758      -1.54610205       1.67172742
H       -0.13866386      -1.78996788      -0.08856317
16
Frame=4 idx=001783 GeodesicLength=0.20377875143500557 rxn_smarts="[C:1]([C@@:2]1([H:10])[C:3]([H:11])([H:12])[C@:4]([O:5][H:14])([H:13])[C:6]1([H:15])[H:16])([H:7])([H:8])[H:9]>>[C:1]([C@@:2]1([H:10])[C:3]([H:12])=[C:4]([H:13])[C:6]1([H:15])[H:16])([H:7])([H:8])[H:9].[O:5]([H:11])[H:14]"
C        1.85351757       0.04614139      -0.60935256
C        0.84752746       0.14046673       0.52123514
C       -0.38312206       1.02865466       0.31328053
C       -1.27461786      -0.04797507       0.59933459
O       -1.90336672      -0.18294247      -1.21274339
C       -0.14777171      -1.04500884       0.70726217
H        2.37520245       0.99596687      -0.74775215
H        1.35266234      -0.20158405      -1.54879965
H        2.60570665      -0.72119072      -0.40912156
H        1.35959448       0.35508680       1.46348926
H       -1.00044878       0.71064431      -0.95670303
H       -0.50189953       2.07494818       0.57460993
H       -2.21112510      -0.05575204       1.14565722
H       -2.74052910       0.24458127      -1.42222109
H       -0.09637423      -1.55337218       1.67154459
H       -0.13495588      -1.78866484      -0.08971999
16
Frame=5 idx=001783 GeodesicLength=0.25462646358206753 rxn_smarts="[C:1]([C@@:2]1([H:10])[C:3]([H:11])([H:12])[C@:4]([O:5][H:14])([H:13])[C:6]1([H:15])[H:16])([H:7])([H:8])[H:9]>>[C:1]([C@@:2]1([H:10])[C:3]([H:12])=[C:4]([H:13])[C:6]1([H:15])[H:16])([H:7])([H:8])[H:9].[O:5]([H:11])[H:14]"
C        1.85404818       0.04614183      -0.60709917
C        0.84683613       0.13940417       0.52252220
C       -0.38424872       1.02547903       0.31056439
C       -1.27484438      -0.05236691       0.60067353
O       -1.91753410      -0.18555411      -1.21557013
C       -0.14574405      -1.04746570       0.70994168
H        2.37489387       0.99634115      -0.74612122
H        1.35393616      -0.20320263      -1.54658081
H        2.60705824      -0.71996859      -0.40559416
H        1.35596741       0.35895877       1.46515121
H       -1.00197267       0.71549455      -0.97094094
H       -0.50143723       2.07164421       0.57394984
H       -2.19972964      -0.05011897       1.16660053
H       -2.74499857       0.25322076      -1.43810768
H       -0.09085772      -1.56066465       1.67139225
H       -0.13137290      -1.78734292      -0.09078152
16
Frame=6 idx=001783 GeodesicLength=0.3054131261896781 rxn_smarts="[C:1]([C@@:2]1([H:10])[C:3]([H:11])([H:12])[C@:4]([O:5][H:14])([H:13])[C:6]1([H:15])[H:16])([H:7])([H:8])[H:9]>>[C:1]([C@@:2]1([H:10])[C:3]([H:12])=[C:4]([H:13])[C:6]1([H:15])[H:16])([H:7])([H:8])[H:9].[O:5]([H:11])[H:14]"
C        1.85444655       0.04613842      -0.60487739
C        0.84609959       0.13833395       0.52385224
C       -0.38543745       1.02227344       0.30797356
C       -1.27515330      -0.05676422       0.60220635
O       -1.93170806      -0.18797957      -1.21832487
C       -0.14375255      -1.04992050       0.71271266
H        2.37446497       0.99670005      -0.74453630
H        1.35501259      -0.20478825      -1.54436651
H        2.60827003      -0.71877296      -0.40218026
H        1.35234060       0.36278594       1.46680551
H       -1.00344023       0.72060902      -0.98522675
H       -0.50099785       2.06831626       0.57338110
H       -2.18783809      -0.04450583       1.18758200
H       -2.74909562       0.26153531      -1.45453782
H       -0.08528561      -1.56796648       1.67127777
H       -0.12792556      -1.78599459      -0.09174129
16
Frame=7 idx=001783 GeodesicLength=0.3562002989530297 rxn_smarts="[C:1]([C@@:2]1([H:10])[C:3]([H:11])([H:12])[C@:4]([O:5][H:14])([H:13])[C:6]1([H:15])[H:16])([H:7])([H:8])[H:9]>>[C:1]([C@@:2]1([H:10])[C:3]([H:12])=[C:4]([H:13])[C:6]1([H:15])[H:16])([H:7])([H:8])[H:9].[O:5]([H:11])[H:14]"
C        1.85474311       0.04612873      -0.60270428
C        0.84532273       0.13725517       0.52522864
C       -0.38670375       1.01907018       0.30551108
C       -1.27558219      -0.06113019       0.60394728
O       -1.94587577      -0.19017264      -1.22104255
C       -0.14181023      -1.05237628       0.71559217
H        2.37396003       0.99704418      -0.74302116
H        1.35592051      -0.20632150      -1.54218553
H        2.60938056      -0.71763290      -0.39889445
H        1.34872109       0.36654760       1.46846660
H       -1.00481235       0.72603034      -0.99958897
H       -0.50059567       2.06500129       0.57290410
H       -2.17550299      -0.03896346       1.20859656
H       -2.75287004       0.26944363      -1.47145324
H       -0.07967828      -1.57530864       1.67123958
H       -0.12461676      -1.78461553      -0.09259583
16
Frame=8 idx=001783 GeodesicLength=0.4068071213120989 rxn_smarts="[C:1]([C@@:2]1([H:10])[C:3]([H:11])([H:12])[C@:4]([O:5][H:14])([H:13])[C:6]1([H:15])[H:16])([H:7])([H:8])[H:9]>>[C:1]([C@@:2]1([H:10])[C:3]([H:12])=[C:4]([H:13])[C:6]1([H:15])[H:16])([H:7])([H:8])[H:9].[O:5]([H:11])[H:14]"
C        1.85482393       0.04611270      -0.60056986
C        0.84449822       0.13616791       0.52663415
C       -0.38801078       1.01577147       0.30319572
C       -1.27598256      -0.06559762       0.60591364
O       -1.95998887      -0.19223843      -1.22364050
C       -0.13985598      -1.05483773       0.71857280
H        2.37321869       0.99736940      -0.74156997
H        1.35652550      -0.20786774      -1.53997595
H        2.61025859      -0.71647687      -0.39575877
H        1.34512400       0.37030756       1.47006804
H       -1.00617889       0.73176496      -1.01392445
H       -0.50020943       2.06158639       0.57258638
H       -2.16279461      -0.03337748       1.22953593
H       -2.75603640       0.27714518      -1.48899773
H       -0.07396899      -1.58257487       1.67121595
H       -0.12142241      -1.78325483      -0.09328541
16
Frame=9 idx=001783 GeodesicLength=0.45740933833604885 rxn_smarts="[C:1]([C@@:2]1([H:10])[C:3]([H:11])([H:12])[C@:4]([O:5][H:14])([H:13])[C:6]1([H:15])[H:16])([H:7])([H:8])[H:9]>>[C:1]([C@@:2]1([H:10])[C:3]([H:12])=[C:4]([H:13])[C:6]1([H:15])[H:16])([H:7])([H:8])[H:9].[O:5]([H:11])[H:14]"
C        1.85479358       0.04608781      -0.59849262
C        0.84363078       0.13507239       0.52808525
C       -0.38939928       1.01247847       0.30101786
C       -1.27650763      -0.07002514       0.60810998
O       -1.97408660      -0.19405750      -1.22620586
C       -0.13795578      -1.05729636       0.72166601
H        2.37238756       0.99767823      -0.74020472
H        1.35694650      -0.20937277      -1.53780509
H        2.61103032      -0.71537617      -0.39276134
H        1.34154107       0.37400505       1.47167386
H       -1.00744001       0.73785298      -1.02832470
H       -0.49985588       2.05818722       0.57237071
H       -2.14967005      -0.02789052       1.25046414
H       -2.75880793       0.28439492      -1.50699724
H       -0.06822594      -1.58987573       1.67127083
H       -0.11838071      -1.78186289      -0.09386705
16
Frame=10 idx=001783 GeodesicLength=0.5079463197559779 rxn_smarts="[C:1]([C@@:2]1([H:10])[C:3]([H:11])([H:12])[C@:4]([O:5][H:14])([H:13])[C:6]1([H:15])[H:16])([H:7])([H:8])[H:9]>>[C:1]([C@@:2]1([H:10])[C:3]([H:12])=[C:4]([H:13])[C:6]1([H:15])[H:16])([H:7])([H:8])[H:9].[O:5]([H:11])[H:14]"
C        1.85462659       0.04605631      -0.59645621
C        0.84272411       0.13396619       0.52957917
C       -0.39084512       1.00915552       0.29897929
C       -1.27709353      -0.07445688       0.61055992
O       -1.98818426      -0.19565790      -1.22867385
C       -0.13608346      -1.05975759       0.72486069
H        2.37142473       0.99797293      -0.73890631
H        1.35716248      -0.21085901      -1.53564095
H        2.61166377      -0.71429901      -0.38988560
H        1.33797379       0.37765798       1.47326682
H       -1.00862847       0.74427752      -1.04275467
H       -0.49951568       2.05477082       0.57225335
H       -2.13612325      -0.02244491       1.27135187
H       -2.76119842       0.29125737      -1.52555582
H       -0.06241917      -1.59719311       1.67135902
H       -0.11548411      -1.78044623      -0.09433671
16
Frame=11 idx=001783 GeodesicLength=0.5584502209860766 rxn_smarts="[C:1]([C@@:2]1([H:10])[C:3]([H:11])([H:12])[C@:4]([O:5][H:14])([H:13])[C:6]1([H:15])[H:16])([H:7])([H:8])[H:9]>>[C:1]([C@@:2]1([H:10])[C:3]([H:12])=[C:4]([H:13])[C:6]1([H:15])[H:16])([H:7])([H:8])[H:9].[O:5]([H:11])[H:14]"
C        1.85432869       0.04601615      -0.59446470
C        0.84177100       0.13285098       0.53111497
C       -0.39236013       1.00581437       0.29707418
C       -1.27776203      -0.07887267       0.61327308
O       -2.00231960      -0.19702682      -1.23104308
C       -0.13425163      -1.06222089       0.72815037
H        2.37033453       0.99825581      -0.73767741
H        1.35718364      -0.21233014      -1.53349432
H        2.61217355      -0.71324755      -0.38712461
H        1.33441035       0.38126905       1.47485461
H       -1.00974239       0.75103806      -1.05722926
H       -0.49919158       2.05135200       0.57222423
H       -2.12214168      -0.01706021       1.29222356
H       -2.76313705       0.29770664      -1.54464402
H       -0.05654879      -1.60454342       1.67147662
H       -0.11274689      -1.77900136      -0.09471423
16
Frame=12 idx=001783 GeodesicLength=0.6088917914649568 rxn_smarts="[C:1]([C@@:2]1([H:10])[C:3]([H:11])([H:12])[C@:4]([O:5][H:14])([H:13])[C:6]1([H:15])[H:16])([H:7])([H:8])[H:9]>>[C:1]([C@@:2]1([H:10])[C:3]([H:12])=[C:4]([H:13])[C:6]1([H:15])[H:16])([H:7])([H:8])[H:9].[O:5]([H:11])[H:14]"
C        1.85387999       0.04596764      -0.59251009
C        0.84077463       0.13172020       0.53269126
C       -0.39393763       1.00242939       0.29530556
C       -1.27848946      -0.08328981       0.61627063
O       -2.01651107      -0.19816546      -1.23327306
C       -0.13244856      -1.06468370       0.73153315
H        2.36909126       0.99851935      -0.73650489
H        1.35698006      -0.21378557      -1.53134813
H        2.61253745      -0.71220327      -0.38447530
H        1.33086160       0.38483465       1.47642839
H       -1.01080240       0.75814271      -1.07171941
H       -0.49887125       2.04789619       0.57228889
H       -2.10770684      -0.01169516       1.31306280
H       -2.76460016       0.30374053      -1.56435598
H       -0.05058310      -1.61191178       1.67160277
H       -0.11017453      -1.77751591      -0.09499658
16
Frame=13 idx=001783 GeodesicLength=0.6593213964572782 rxn_smarts="[C:1]([C@@:2]1([H:10])[C:3]([H:11])([H:12])[C@:4]([O:5][H:14])([H:13])[C:6]1([H:15])[H:16])([H:7])([H:8])[H:9]>>[C:1]([C@@:2]1([H:10])[C:3]([H:12])=[C:4]([H:13])[C:6]1([H:15])[H:16])([H:7])([H:8])[H:9].[O:5]([H:11])[H:14]"
C        1.85330146       0.04590884      -0.59061210
C        0.83973357       0.13057866       0.53430837
C       -0.39558773       0.99902657       0.29367557
C       -1.27929102      -0.08769846       0.61956937
O       -2.03075231      -0.19904796      -1.23537431
C       -0.13068241      -1.06716013       0.73502060
H        2.36771371       0.99877869      -0.73542684
H        1.35657935      -0.21523751      -1.52922610
H        2.61278661      -0.71118208      -0.38195261
H        1.32732228       0.38835949       1.47799399
H       -1.01178429       0.76563441      -1.08624417
H       -0.49857031       2.04444223       0.57246187
H       -2.09288699      -0.00638098       1.33388282
H       -2.76557001       0.30932019      -1.58465605
H       -0.04454621      -1.61932799       1.67175914
H       -0.10776570      -1.77601396      -0.09517956
16
Frame=14 idx=001783 GeodesicLength=0.7096814382358496 rxn_smarts="[C:1]([C@@:2]1([H:10])[C:3]([H:11])([H:12])[C@:4]([O:5][H:14])([H:13])[C:6]1([H:15])[H:16])([H:7])([H:8])[H:9]>>[C:1]([C@@:2]1([H:10])[C:3]([H:12])=[C:4]([H:13])[C:6]1([H:15])[H:16])([H:7])([H:8])[H:9].[O:5]([H:11])[H:14]"
C        1.85256487       0.04583546      -0.58875357
C        0.83864898       0.12942640       0.53596472
C       -0.39729676       0.99559314       0.29218440
C       -1.28014306      -0.09207867       0.62315626
O       -2.04503224      -0.19964258      -1.23735924
C       -0.12894791      -1.06962110       0.73859876
H        2.36616828       0.99900821      -0.73442840
H        1.35593959      -0.21669064      -1.52710046
H        2.61288826      -0.71017038      -0.37953771
H        1.32380781       0.39183305       1.47954330
H       -1.01267079       0.77352331      -1.10080152
H       -0.49826154       2.04095411       0.57275117
H       -2.07766786      -0.00114440       1.35463489
H       -2.76603383       0.31437838      -1.60549950
H       -0.03842874      -1.62675558       1.67191765
H       -0.10553506      -1.77444872      -0.09527077
16
Frame=15 idx=001783 GeodesicLength=0.7600248684779554 rxn_smarts="[C:1]([C@@:2]1([H:10])[C:3]([H:11])([H:12])[C@:4]([O:5][H:14])([H:13])[C:6]1([H:15])[H:16])([H:7])([H:8])[H:9]>>[C:1]([C@@:2]1([H:10])[C:3]([H:12])=[C:4]([H:13])[C:6]1([H:15])[H:16])([H:7])([H:8])[H:9].[O:5]([H:11])[H:14]"
C        1.85168194       0.04575004      -0.58695766
C        0.83751946       0.12826138       0.53766167
C       -0.39907933       0.99213759       0.29084542
C       -1.28106159      -0.09644724       0.62707219
O       -2.05937903      -0.19994992      -1.23919060
C       -0.12724876      -1.07209225       0.74228612
H        2.36446800       0.99922856      -0.73353602
H        1.35507316      -0.21814144      -1.52499755
H        2.61285969      -0.70917874      -0.37726470
H        1.32031610       0.39526226       1.48107906
H       -1.01347751       0.78184281      -1.11537428
H       -0.49796665       2.03745747       0.57317181
H       -2.06207565       0.00404189       1.37535188
H       -2.76591806       0.31891292      -1.62698814
H       -0.03222835      -1.63422625       1.67209910
H       -0.10348341      -1.77285910      -0.09525830
16
Frame=16 idx=001783 GeodesicLength=0.8103464919184913 rxn_smarts="[C:1]([C@@:2]1([H:10])[C:3]([H:11])([H:12])[C@:4]([O:5][H:14])([H:13])[C:6]1([H:15])[H:16])([H:7])([H:8])[H:9]>>[C:1]([C@@:2]1([H:10])[C:3]([H:12])=[C:4]([H:13])[C:6]1([H:15])[H:16])([H:7])([H:8])[H:9].[O:5]([H:11])[H:14]"
C        1.85063980       0.04565160      -0.58522194
C        0.83634230       0.12708465       0.53939814
C       -0.40093572       0.98865835       0.28966237
C       -1.28203989      -0.10079298       0.63133447
O       -2.07381763      -0.19993964      -1.24084151
C       -0.12558547      -1.07456558       0.74607588
H        2.36260374       0.99943104      -0.73274134
H        1.35396101      -0.21958656      -1.52291226
H        2.61268123      -0.70821031      -0.37513307
H        1.31684957       0.39864590       1.48259850
H       -1.01420204       0.79060797      -1.12995477
H       -0.49767776       2.03394569       0.57372623
H       -2.04609429       0.00917375       1.39605557
H       -2.76516730       0.32286058      -1.64917489
H       -0.02592943      -1.64174093       1.67228289
H       -0.10162812      -1.77122354      -0.09515429
