21
Frame=0 idx=008660 GeodesicLength=0.0 rxn_smarts="[C:1]([O:2][C:3]([C:4]([C:5]([H:13])([H:14])[H:15])([C:6]([H:16])([H:17])[H:18])[C:7]([H:19])([H:20])[H:21])([H:11])[H:12])([H:8])([H:9])[H:10]>>[C:1]([H:8])([H:9])([H:10])[H:19].[C:4]([C:5]([H:13])([H:14])[H:15])([C:6]([H:16])([H:17])[H:18])=[C:7]([H:20])[H:21].[O:2]=[C:3]([H:11])[H:12]"
C        1.87677406      -1.76924321       0.39769206
O        1.56816966      -0.22272939      -1.16667617
C        0.81844188       0.79983155      -0.85705711
C       -0.58089106       0.42579499      -0.00919895
C       -1.13411947       1.78326196       0.40782065
C       -1.50088183      -0.31072850      -0.97339162
C       -0.18573108      -0.40325607       1.11603067
H        1.64967975      -2.36170117       1.28609813
H        2.80881501      -1.22875381       0.46506499
H        1.76420828      -2.32216157      -0.52185548
H        0.34069268       1.27055590      -1.73555587
H        1.31480180       1.58584529      -0.24931784
H       -0.48470669       2.27659376       1.13334908
H       -2.12688984       1.68503606       0.85265826
H       -1.21781654       2.43466089      -0.46722313
H       -0.99590452      -1.18667270      -1.38551455
H       -1.77946418       0.33430244      -1.80942742
H       -2.41858194      -0.63848148      -0.47818871
H        0.86627489      -0.95176424       0.65484577
H       -0.75331586      -1.30535040       1.33000505
H        0.17044491       0.10495977       2.00984210
21
Frame=1 idx=008660 GeodesicLength=0.13179770150194797 rxn_smarts="[C:1]([O:2][C:3]([C:4]([C:5]([H:13])([H:14])[H:15])([C:6]([H:16])([H:17])[H:18])[C:7]([H:19])([H:20])[H:21])([H:11])[H:12])([H:8])([H:9])[H:10]>>[C:1]([H:8])([H:9])([H:10])[H:19].[C:4]([C:5]([H:13])([H:14])[H:15])([C:6]([H:16])([H:17])[H:18])=[C:7]([H:20])[H:21].[O:2]=[C:3]([H:11])[H:12]"
C        1.90561121      -1.76237845       0.38425032
O        1.55022835      -0.24146926      -1.18225588
C        0.83071756       0.79473503      -0.84987869
C       -0.59679827       0.42610910      -0.00404493
C       -1.14571607       1.78681455       0.40601455
C       -1.51463434      -0.30441908      -0.97445787
C       -0.20974672      -0.40364040       1.12185761
H        1.73675195      -2.32388197       1.30555480
H        2.84239292      -1.22424479       0.39966110
H        1.77621763      -2.35837498      -0.50649267
H        0.37448992       1.30042214      -1.71994529
H        1.34663255       1.54950367      -0.21994704
H       -0.50154834       2.27775899       1.13777990
H       -2.14351391       1.69628934       0.84123717
H       -1.21853757       2.43702390      -0.47087385
H       -1.02457404      -1.19747004      -1.36708395
H       -1.76462105       0.33481842      -1.82392567
H       -2.44764228      -0.60758579      -0.49241240
H        0.84580235      -0.98444456       0.65949625
H       -0.78469584      -1.30039997       1.33847003
H        0.14318399       0.10483416       2.01699653
21
Frame=2 idx=008660 GeodesicLength=0.2632388059004087 rxn_smarts="[C:1]([O:2][C:3]([C:4]([C:5]([H:13])([H:14])[H:15])([C:6]([H:16])([H:17])[H:18])[C:7]([H:19])([H:20])[H:21])([H:11])[H:12])([H:8])([H:9])[H:10]>>[C:1]([H:8])([H:9])([H:10])[H:19].[C:4]([C:5]([H:13])([H:14])[H:15])([C:6]([H:16])([H:17])[H:18])=[C:7]([H:20])[H:21].[O:2]=[C:3]([H:11])[H:12]"
C        1.93331384      -1.75465758       0.36962463
O        1.53250237      -0.25888584      -1.19705579
C        0.84364977       0.78963372      -0.84164625
C       -0.61273617       0.42633023       0.00145130
C       -1.15765435       1.79023873       0.40398727
C       -1.52777029      -0.29875288      -0.97530429
C       -0.23343643      -0.40378558       1.12807296
H        1.82343766      -2.28113123       1.32046414
H        2.87430108      -1.22303958       0.33110597
H        1.78885367      -2.39380732      -0.48918161
H        0.41043104       1.33016265      -1.70206103
H        1.37796456       1.51191785      -0.19002248
H       -0.51907045       2.27917263       1.14193659
H       -2.16039362       1.70727647       0.82935143
H       -1.21947980       2.43880787      -0.47495011
H       -1.05304019      -1.20832700      -1.34799586
H       -1.74866013       0.33374071      -1.83784227
H       -2.47553101      -0.57706771      -0.50730269
H        0.82442470      -1.01971073       0.66447778
H       -0.81770273      -1.29350645       1.34873728
H        0.11659649       0.10539106       2.02415304
21
Frame=3 idx=008660 GeodesicLength=0.394297750413881 rxn_smarts="[C:1]([O:2][C:3]([C:4]([C:5]([H:13])([H:14])[H:15])([C:6]([H:16])([H:17])[H:18])[C:7]([H:19])([H:20])[H:21])([H:11])[H:12])([H:8])([H:9])[H:10]>>[C:1]([H:8])([H:9])([H:10])[H:19].[C:4]([C:5]([H:13])([H:14])[H:15])([C:6]([H:16])([H:17])[H:18])=[C:7]([H:20])[H:21].[O:2]=[C:3]([H:11])[H:12]"
C        1.95945605      -1.74641181       0.35351226
O        1.51533487      -0.27450315      -1.21098403
C        0.85735035       0.78483990      -0.83224535
C       -0.62856732       0.42650469       0.00734542
C       -1.17007424       1.79350752       0.40164178
C       -1.53995558      -0.29397974      -0.97583875
C       -0.25653148      -0.40350783       1.13480334
H        1.90872214      -2.23387283       1.33017337
H        2.90399328      -1.22595239       0.25931033
H        1.80124954      -2.42834945      -0.47022154
H        0.44851942       1.35989992      -1.68171732
H        1.40876913       1.47349294      -0.15944619
H       -0.53755389       2.28098377       1.14572365
H       -2.17767847       1.71779732       0.81684168
H       -1.22083347       2.43990364      -0.47959774
H       -1.08074168      -1.21939032      -1.32808559
H       -1.73140301       0.33070767      -1.85107561
H       -2.50184991      -0.54738021      -0.52281517
H        0.80290894      -1.05667715       0.67034209
H       -0.85177868      -1.28457740       1.36086171
H        0.09066400       0.10696492       2.03147165
21
Frame=4 idx=008660 GeodesicLength=0.5249864966552935 rxn_smarts="[C:1]([O:2][C:3]([C:4]([C:5]([H:13])([H:14])[H:15])([C:6]([H:16])([H:17])[H:18])[C:7]([H:19])([H:20])[H:21])([H:11])[H:12])([H:8])([H:9])[H:10]>>[C:1]([H:8])([H:9])([H:10])[H:19].[C:4]([C:5]([H:13])([H:14])[H:15])([C:6]([H:16])([H:17])[H:18])=[C:7]([H:20])[H:21].[O:2]=[C:3]([H:11])[H:12]"
C        1.98373626      -1.73808244       0.33560953
O        1.49900698      -0.28790205      -1.22398911
C        0.87190833       0.78064672      -0.82157270
C       -0.64419202       0.42668944       0.01368475
C       -1.18310389       1.79662365       0.39886424
C       -1.55092272      -0.29031186      -0.97596892
C       -0.27885874      -0.40261553       1.14218514
H        1.99176582      -2.18283014       1.33404763
H        2.93082357      -1.23351066       0.18443349
H        1.81272145      -2.46197014      -0.44996574
H        0.48871881       1.38978400      -1.65872454
H        1.43905353       1.43457202      -0.12811884
H       -0.55724994       2.28335097       1.14902075
H       -2.19551328       1.72771785       0.80352378
H       -1.22274902       2.44023512      -0.48497755
H       -1.10719711      -1.23078707      -1.30719053
H       -1.71272364       0.32542597      -1.86351716
H       -2.52628484      -0.51893528      -0.53890298
H        0.78204220      -1.09433562       0.67765203
H       -0.88630457      -1.27364127       1.37480040
H        0.06532282       0.10987631       2.03910635
21
Frame=5 idx=008660 GeodesicLength=0.655369510762704 rxn_smarts="[C:1]([O:2][C:3]([C:4]([C:5]([H:13])([H:14])[H:15])([C:6]([H:16])([H:17])[H:18])[C:7]([H:19])([H:20])[H:21])([H:11])[H:12])([H:8])([H:9])[H:10]>>[C:1]([H:8])([H:9])([H:10])[H:19].[C:4]([C:5]([H:13])([H:14])[H:15])([C:6]([H:16])([H:17])[H:18])=[C:7]([H:20])[H:21].[O:2]=[C:3]([H:11])[H:12]"
C        2.00600749      -1.73013884       0.31565446
O        1.48372095      -0.29876453      -1.23605974
C        0.88738732       0.77728120      -0.80954070
C       -0.65956417       0.42693864       0.02050161
C       -1.19683490       1.79962067       0.39554067
C       -1.56051612      -0.28790037      -0.97561867
C       -0.30036151      -0.40094128       1.15034569
H        2.07204021      -2.12887334       1.33155205
H        2.95414938      -1.24585616       0.10687858
H        1.82288985      -2.49468666      -0.42877901
H        0.53097522       1.41994760      -1.63289711
H        1.46886023       1.39539317      -0.09596319
H       -0.57834049       2.28642105       1.15170854
H       -2.21401576       1.73699302       0.78920867
H       -1.22529586       2.43977446      -0.49124115
H       -1.13208155      -1.24260757      -1.28519220
H       -1.69257531       0.31770970      -1.87506256
H       -2.54865444      -0.49205675      -0.55552519
H        0.76245640      -1.13182293       0.68685824
H       -0.92074690      -1.26081728       1.39045137
H        0.04049997       0.11438621       2.04717962
21
Frame=6 idx=008660 GeodesicLength=0.7855037814105281 rxn_smarts="[C:1]([O:2][C:3]([C:4]([C:5]([H:13])([H:14])[H:15])([C:6]([H:16])([H:17])[H:18])[C:7]([H:19])([H:20])[H:21])([H:11])[H:12])([H:8])([H:9])[H:10]>>[C:1]([H:8])([H:9])([H:10])[H:19].[C:4]([C:5]([H:13])([H:14])[H:15])([C:6]([H:16])([H:17])[H:18])=[C:7]([H:20])[H:21].[O:2]=[C:3]([H:11])[H:12]"
C        2.02625381      -1.72295865       0.29348310
O        1.46956266      -0.30691063      -1.24722746
C        0.90380331       0.77486364      -0.79608961
C       -0.67468932       0.42729735       0.02780931
C       -1.21129518       1.80254636       0.39155823
C       -1.56869987      -0.28680953      -0.97471799
C       -0.32107186      -0.39835530       1.15937671
H        2.14920947      -2.07304062       1.32224362
H        2.97342411      -1.26263182       0.02727757
H        1.83191297      -2.52651855      -0.40700731
H        0.57519841       1.45045562      -1.60405837
H        1.49822749       1.35604374      -0.06294649
H       -0.60089896       2.29029722       1.15365525
H       -2.23323025       1.74566012       0.77372030
H       -1.22844244       2.43852103      -0.49852432
H       -1.15526062      -1.25488370      -1.26199911
H       -1.67099874       0.30750318      -1.88559570
H       -2.56890499      -0.46693789      -0.57263502
H        0.74448654      -1.16858567       0.69823034
H       -0.95473661      -1.24622553       1.40770125
H        0.01615008       0.12066964       2.05574568
21
Frame=7 idx=008660 GeodesicLength=0.9153963989499209 rxn_smarts="[C:1]([O:2][C:3]([C:4]([C:5]([H:13])([H:14])[H:15])([C:6]([H:16])([H:17])[H:18])[C:7]([H:19])([H:20])[H:21])([H:11])[H:12])([H:8])([H:9])[H:10]>>[C:1]([H:8])([H:9])([H:10])[H:19].[C:4]([C:5]([H:13])([H:14])[H:15])([C:6]([H:16])([H:17])[H:18])=[C:7]([H:20])[H:21].[O:2]=[C:3]([H:11])[H:12]"
C        2.04451379      -1.71681008       0.26901870
O        1.45653755      -0.31225320      -1.25752940
C        0.92114026       0.77342500      -0.78116451
C       -0.68960309       0.42779189       0.03560308
C       -1.22646451       1.80543716       0.38680952
C       -1.57551102      -0.28703610      -0.97321027
C       -0.34106805      -0.39477720       1.16932223
H        2.22314988      -2.01626088       1.30585419
H        2.98825235      -1.28323239      -0.05372992
H        1.84017004      -2.55745341      -0.38493611
H        0.62127969       1.48130781      -1.57201665
H        1.52718545       1.31648624      -0.02906810
H       -0.62492751       2.29501522       1.15473227
H       -2.25314341       1.75379264       0.75688464
H       -1.23208280       2.43648098      -0.50693052
H       -1.17672161      -1.26758884      -1.23755919
H       -1.64808742       0.29485222      -1.89499459
H       -2.58705604      -0.44366284      -0.59019254
H        0.72825895      -1.20434998       0.71188774
H       -0.98805320      -1.22997562       1.42641953
H       -0.00776931       0.12881137       2.06479991
21
Frame=8 idx=008660 GeodesicLength=1.0451772972635804 rxn_smarts="[C:1]([O:2][C:3]([C:4]([C:5]([H:13])([H:14])[H:15])([C:6]([H:16])([H:17])[H:18])[C:7]([H:19])([H:20])[H:21])([H:11])[H:12])([H:8])([H:9])[H:10]>>[C:1]([H:8])([H:9])([H:10])[H:19].[C:4]([C:5]([H:13])([H:14])[H:15])([C:6]([H:16])([H:17])[H:18])=[C:7]([H:20])[H:21].[O:2]=[C:3]([H:11])[H:12]"
C        2.06083541      -1.71187350       0.24223543
O        1.44464418      -0.31474994      -1.26703574
C        0.93940317       0.77296611      -0.76472999
C       -0.70435994       0.42843424       0.04387371
C       -1.24229514       1.80834202       0.38121580
C       -1.58103680      -0.28858068      -0.97106465
C       -0.36046748      -0.39016087       1.18022453
H        2.29382961      -1.95933007       1.28226254
H        2.99841183      -1.30694762      -0.13560026
H        1.84812487      -2.58747208      -0.36284611
H        0.66915716       1.51248295      -1.53660425
H        1.55580188       1.27665732       0.00564999
H       -0.65038410       2.30061864       1.15485588
H       -2.27372750       1.76148961       0.73856933
H       -1.23605287       2.43368644      -0.51653446
H       -1.19652867      -1.28071926      -1.21187271
H       -1.62396086       0.27981381      -1.90317745
H       -2.60319880      -0.42230704      -0.60816277
H        0.71376600      -1.23903663       0.72786434
H       -1.02063337      -1.21217938       1.44651855
H       -0.03132860       0.13886594       2.07435828
21
Frame=9 idx=008660 GeodesicLength=1.1749099404719456 rxn_smarts="[C:1]([O:2][C:3]([C:4]([C:5]([H:13])([H:14])[H:15])([C:6]([H:16])([H:17])[H:18])[C:7]([H:19])([H:20])[H:21])([H:11])[H:12])([H:8])([H:9])[H:10]>>[C:1]([H:8])([H:9])([H:10])[H:19].[C:4]([C:5]([H:13])([H:14])[H:15])([C:6]([H:16])([H:17])[H:18])=[C:7]([H:20])[H:21].[O:2]=[C:3]([H:11])[H:12]"
C        2.07522581      -1.70823141       0.21313069
O        1.43388345      -0.31436291      -1.27578258
C        0.95859224       0.77344957      -0.74672243
C       -0.71901025       0.42922579       0.05261479
C       -1.25873100       1.81128175       0.37469551
C       -1.58533386      -0.29143497      -0.96824076
C       -0.37938982      -0.38445330       1.19210990
H        2.36124698      -1.90292683       1.25141130
H        3.00378302      -1.33311402      -0.21795997
H        1.85616545      -2.61647126      -0.34102952
H        0.71876623       1.54389014      -1.49761683
H        1.58410484       1.23644678       0.04119096
H       -0.67724014       2.30711194       1.15393571
H       -2.29493560       1.76883020       0.71862393
H       -1.24016499       2.43013187      -0.52739296
H       -1.21471531      -1.29425209      -1.18493675
H       -1.59870306       0.26245494      -1.91003888
H       -2.61738178      -0.40293200      -0.62650322
H        0.70093966      -1.27264967       0.74618075
H       -1.05247646      -1.19288408       1.46791871
H       -0.05462542       0.15088955       2.08441166
21
Frame=10 idx=008660 GeodesicLength=1.3046406312815324 rxn_smarts="[C:1]([O:2][C:3]([C:4]([C:5]([H:13])([H:14])[H:15])([C:6]([H:16])([H:17])[H:18])[C:7]([H:19])([H:20])[H:21])([H:11])[H:12])([H:8])([H:9])[H:10]>>[C:1]([H:8])([H:9])([H:10])[H:19].[C:4]([C:5]([H:13])([H:14])[H:15])([C:6]([H:16])([H:17])[H:18])=[C:7]([H:20])[H:21].[O:2]=[C:3]([H:11])[H:12]"
C        2.08767962      -1.70587575       0.18176381
O        1.42421669      -0.31105990      -1.28380406
C        0.97869371       0.77482744      -0.72708572
C       -0.73360879       0.43016337       0.06181256
C       -1.27569279       1.81427225       0.36715371
C       -1.58848841      -0.29557672      -0.96470157
C       -0.39793169      -0.37762967       1.20499579
H        2.42535699      -1.84778355       1.21333715
H        3.00433598      -1.36097689      -0.30049495
H        1.86479115      -2.64433248      -0.31977413
H        0.77001036       1.57544408      -1.45484542
H        1.61211930       1.19571637       0.07752477
H       -0.70542035       2.31448569       1.15185890
H       -2.31668797       1.77588883       0.69688669
H       -1.24421740       2.42581577      -0.53957404
H       -1.23136350      -1.30816501      -1.15672955
H       -1.57242608       0.24286441      -1.91549416
H       -2.62968728      -0.38557506      -0.64517799
H        0.68966167      -1.30528333       0.76683511
H       -1.08361687      -1.17212234       1.49057081
H       -0.07772432       0.16490251       2.09494230
21
Frame=11 idx=008660 GeodesicLength=1.4343183397869972 rxn_smarts="[C:1]([O:2][C:3]([C:4]([C:5]([H:13])([H:14])[H:15])([C:6]([H:16])([H:17])[H:18])[C:7]([H:19])([H:20])[H:21])([H:11])[H:12])([H:8])([H:9])[H:10]>>[C:1]([H:8])([H:9])([H:10])[H:19].[C:4]([C:5]([H:13])([H:14])[H:15])([C:6]([H:16])([H:17])[H:18])=[C:7]([H:20])[H:21].[O:2]=[C:3]([H:11])[H:12]"
C        2.09814914      -1.70472821       0.14820438
O        1.41560362      -0.30479317      -1.29108842
C        0.99968033       0.77702360      -0.70573367
C       -0.74819615       0.43123507       0.07145374
C       -1.29309763       1.81729705       0.35848680
C       -1.59053580      -0.30097251      -0.96039337
C       -0.41617235      -0.36966330       1.21887345
H        2.48611742      -1.79445845       1.16815164
H        3.00004293      -1.38991180      -0.38306628
H        1.87436014      -2.67086763      -0.29936612
H        0.82276239       1.60699949      -1.40803426
H        1.63981700       1.15428581       0.11462528
H       -0.73487053       2.32268460       1.14849104
H       -2.33888333       1.78270818       0.67316939
H       -1.24800366       2.42069969      -0.55312379
H       -1.24649282      -1.32240913      -1.12721321
H       -1.54519763       0.22114529      -1.91941951
H       -2.64012694      -0.37026248      -0.66414049
H        0.67983483      -1.33703820       0.78983491
H       -1.11408092      -1.14989115       1.51439665
H       -0.10071005       0.18091727       2.10589184
21
Frame=12 idx=008660 GeodesicLength=1.5641326778473708 rxn_smarts="[C:1]([O:2][C:3]([C:4]([C:5]([H:13])([H:14])[H:15])([C:6]([H:16])([H:17])[H:18])[C:7]([H:19])([H:20])[H:21])([H:11])[H:12])([H:8])([H:9])[H:10]>>[C:1]([H:8])([H:9])([H:10])[H:19].[C:4]([C:5]([H:13])([H:14])[H:15])([C:6]([H:16])([H:17])[H:18])=[C:7]([H:20])[H:21].[O:2]=[C:3]([H:11])[H:12]"
C        2.10656936      -1.70468076       0.11249992
O        1.40807637      -0.29547895      -1.29765634
C        1.02159477       0.78000617      -0.68258433
C       -0.76281610       0.43242729       0.08154047
C       -1.31087217       1.82036607       0.34861376
C       -1.59150908      -0.30766471      -0.95528346
C       -0.43421831      -0.36051802       1.23379092
H        2.54349450      -1.74345926       1.11601410
H        2.99090419      -1.41938116      -0.46569645
H        1.88509436      -2.69589579      -0.28018741
H        0.87698231       1.63845959      -1.35694131
H        1.66723805       1.11204128       0.15248057
H       -0.76555290       2.33173166       1.14374672
H       -2.36146190       1.78932788       0.64730813
H       -1.25129672       2.41476861      -0.56809012
H       -1.26012074      -1.33703830      -1.09636044
H       -1.51704364       0.19730847      -1.92176014
H       -2.64875025      -0.35711115      -0.68336028
H        0.67137658      -1.36801476       0.81523490
H       -1.14398205      -1.12619804       1.53940173
H       -0.12370662       0.19900389       2.11728908
21
Frame=13 idx=008660 GeodesicLength=1.6940073136506313 rxn_smarts="[C:1]([O:2][C:3]([C:4]([C:5]([H:13])([H:14])[H:15])([C:6]([H:16])([H:17])[H:18])[C:7]([H:19])([H:20])[H:21])([H:11])[H:12])([H:8])([H:9])[H:10]>>[C:1]([H:8])([H:9])([H:10])[H:19].[C:4]([C:5]([H:13])([H:14])[H:15])([C:6]([H:16])([H:17])[H:18])=[C:7]([H:20])[H:21].[O:2]=[C:3]([H:11])[H:12]"
C        2.11278128      -1.70554871       0.07470351
O        1.40168197      -0.28294968      -1.30344889
C        1.04445898       0.78376254      -0.65752296
C       -0.77747153       0.43371910       0.09208050
C       -1.32892052       1.82341989       0.33740787
C       -1.59136404      -0.31572860      -0.94930788
C       -0.45211471      -0.35009425       1.24982238
H        2.59731691      -1.69560012       1.05715538
H        2.97687011      -1.44876748      -0.54824802
H        1.89684911      -2.71897378      -0.26297217
H        0.93257477       1.66965834      -1.30134621
H        1.69439454       1.06889759       0.19106911
H       -0.79742901       2.34160257       1.13747058
H       -2.38430166       1.79569543       0.61907846
H       -1.25389216       2.40789450      -0.58456582
H       -1.27213692      -1.35207602      -1.06412158
H       -1.48798408       0.17130992      -1.92243520
H       -2.65548454      -0.34632468      -0.70274726
H        0.66427844      -1.39820591       0.84314573
H       -1.17333255      -1.10099116       1.56561840
H       -0.14677438       0.21930051       2.12916407
21
Frame=14 idx=008660 GeodesicLength=1.824077575141411 rxn_smarts="[C:1]([O:2][C:3]([C:4]([C:5]([H:13])([H:14])[H:15])([C:6]([H:16])([H:17])[H:18])[C:7]([H:19])([H:20])[H:21])([H:11])[H:12])([H:8])([H:9])[H:10]>>[C:1]([H:8])([H:9])([H:10])[H:19].[C:4]([C:5]([H:13])([H:14])[H:15])([C:6]([H:16])([H:17])[H:18])=[C:7]([H:20])[H:21].[O:2]=[C:3]([H:11])[H:12]"
C        2.11672069      -1.70711163       0.03490005
O        1.39643211      -0.26712917      -1.30841672
C        1.06828929       0.78820423      -0.63044343
C       -0.79220266       0.43509001       0.10307178
C       -1.34715665       1.82644200       0.32476395
C       -1.59010171      -0.32516872      -0.94239675
C       -0.46994343      -0.33837695       1.26696175
H        2.64758503      -1.65115613       0.99188764
H        2.95787611      -1.47759562      -0.63092020
H        1.90979630      -2.73993863      -0.24812278
H        0.98941100       1.70042772      -1.24093370
H        1.72124508       1.02465224       0.23035556
H       -0.83044687       2.35226888       1.12950521
H       -2.40730322       1.80182716       0.58828019
H       -1.25555299       2.40004068      -0.60256910
H       -1.28253596      -1.36754929      -1.03039559
H       -1.45798240       0.14320580      -1.92132494
H       -2.66033888      -0.33796191      -0.72226048
H        0.65847642      -1.42776199       0.87360850
H       -1.20223613      -1.07424093       1.59299816
H       -0.17003111       0.24183225       2.14145089
21
Frame=15 idx=008660 GeodesicLength=1.9543164383530096 rxn_smarts="[C:1]([O:2][C:3]([C:4]([C:5]([H:13])([H:14])[H:15])([C:6]([H:16])([H:17])[H:18])[C:7]([H:19])([H:20])[H:21])([H:11])[H:12])([H:8])([H:9])[H:10]>>[C:1]([H:8])([H:9])([H:10])[H:19].[C:4]([C:5]([H:13])([H:14])[H:15])([C:6]([H:16])([H:17])[H:18])=[C:7]([H:20])[H:21].[O:2]=[C:3]([H:11])[H:12]"
C        2.11822341      -1.70909153      -0.00684726
O        1.39236682      -0.24784382      -1.31245123
C        1.09311121       0.79327933      -0.60120432
C       -0.80700773       0.43650869       0.11452518
C       -1.36546857       1.82935307       0.31054326
C       -1.58763953      -0.33605435      -0.93446218
C       -0.48774003      -0.32528813       1.28525464
H        2.69420051      -1.61058277       0.92054690
H        2.93375482      -1.50532837      -0.71376942
H        1.92366310      -2.75842398      -0.23639567
H        1.04735351       1.73056228      -1.17540409
H        1.74775505       0.97914886       0.27031198
H       -0.86456661       2.36367709       1.11966007
H       -2.43031707       1.80764235       0.55464673
H       -1.25603935       2.39106725      -0.62215875
H       -1.29118885      -1.38349374      -0.99506776
H       -1.42696876       0.11295917      -1.91831027
H       -2.66320920      -0.33220382      -0.74181907
H        0.65398437      -1.45672428       0.90672677
H       -1.23072585      -1.04587245       1.62155132
H       -0.19354125       0.26670915       2.15412317
21
Frame=16 idx=008660 GeodesicLength=2.084789957830252 rxn_smarts="[C:1]([O:2][C:3]([C:4]([C:5]([H:13])([H:14])[H:15])([C:6]([H:16])([H:17])[H:18])[C:7]([H:19])([H:20])[H:21])([H:11])[H:12])([H:8])([H:9])[H:10]>>[C:1]([H:8])([H:9])([H:10])[H:19].[C:4]([C:5]([H:13])([H:14])[H:15])([C:6]([H:16])([H:17])[H:18])=[C:7]([H:20])[H:21].[O:2]=[C:3]([H:11])[H:12]"
C        2.11713139      -1.71116538      -0.05047546
O        1.38953565      -0.22491312      -1.31542593
C        1.11896975       0.79892566      -0.56965302
C       -0.82188651       0.43793578       0.12645582
C       -1.38373076       1.83206516       0.29461172
C       -1.58388235      -0.34846583      -0.92541794
C       -0.50555415      -0.31076336       1.30474884
H        2.73713138      -1.57407330       0.84346095
H        2.90424619      -1.53147354      -0.79696663
H        1.93806742      -2.77413831      -0.22850820
H        1.10628290       1.75984935      -1.10442483
H        1.77388906       0.93221087       0.31090797
H       -0.89973526       2.37576801       1.10774559
H       -2.45317864       1.81303820       0.51790866
H       -1.25508038       2.38082974      -0.64337457
H       -1.29797850      -1.39996934      -0.95800052
H       -1.39480775       0.08050951      -1.91327871
H       -2.66399053      -0.32923080      -0.76136945
H        0.65082845      -1.48515106       0.94260778
H       -1.25887250      -1.01581707       1.65129103
H       -0.21738486       0.29402883       2.16715687
