13
Frame=0 idx=003282 GeodesicLength=0.0 rxn_smarts="[C:1]([C@@:2]1([C:5](=[O:6])[H:13])[C:3]([H:10])([H:11])[N:4]1[H:12])([H:7])([H:8])[H:9]>>[C:1]([C:5](=[O:6])[H:13])([H:7])([H:8])[H:9].[C:2]1[C:3]([H:10])([H:11])[N:4]1[H:12]"
C        1.15001884      -1.09483448       0.12357865
C       -0.49732017       0.32434208      -0.01388019
C       -0.32452438       1.75704580       0.26697252
N       -0.65625493       1.12928331      -1.01699620
C       -0.52821443      -1.11362912       0.22642761
O       -1.08781218      -1.85987925      -0.63941281
H        1.33631074      -2.15528749       0.28051318
H        1.45880384      -0.82700613      -0.88588025
H        1.67490157      -0.50812106       0.87992999
H       -1.10563968       2.24269125       0.84480295
H        0.65696214       2.21532100       0.30502094
H       -1.40875022       1.18110605      -1.68792254
H       -0.66848109      -1.29103191       1.31684615
13
Frame=1 idx=003282 GeodesicLength=0.10078253044179394 rxn_smarts="[C:1]([C@@:2]1([C:5](=[O:6])[H:13])[C:3]([H:10])([H:11])[N:4]1[H:12])([H:7])([H:8])[H:9]>>[C:1]([C:5](=[O:6])[H:13])([H:7])([H:8])[H:9].[C:2]1[C:3]([H:10])([H:11])[N:4]1[H:12]"
C        1.15688213      -1.10400806       0.12007192
C       -0.46147824       0.34031000       0.00033439
C       -0.33065373       1.78240280       0.25956867
N       -0.64689034       1.13133376      -1.01414778
C       -0.53348617      -1.12192030       0.22947932
O       -1.11852933      -1.83330417      -0.64248165
H        1.34037504      -2.16836029       0.25588349
H        1.48407761      -0.82685195      -0.88107437
H        1.68086716      -0.54267938       0.89599847
H       -1.12492855       2.25292186       0.83178571
H        0.64243497       2.25854611       0.29664664
H       -1.41507522       1.14129829      -1.66968858
H       -0.67359535      -1.30968867       1.31762377
13
Frame=2 idx=003282 GeodesicLength=0.20139398588297663 rxn_smarts="[C:1]([C@@:2]1([C:5](=[O:6])[H:13])[C:3]([H:10])([H:11])[N:4]1[H:12])([H:7])([H:8])[H:9]>>[C:1]([C:5](=[O:6])[H:13])([H:7])([H:8])[H:9].[C:2]1[C:3]([H:10])([H:11])[N:4]1[H:12]"
C        1.16381072      -1.11338214       0.11577525
C       -0.42438488       0.35655872       0.01365664
C       -0.33793345       1.80671273       0.25234448
N       -0.63667727       1.13338189      -1.01142809
C       -0.53882172      -1.12941965       0.23285755
O       -1.15031590      -1.80547469      -0.64278397
H        1.34384603      -2.18124327       0.23107145
H        1.50967729      -0.82789135      -0.87676758
H        1.68706003      -0.57794571       0.91023558
H       -1.14579038       2.26033090       0.81900712
H        0.62543880       2.30248576       0.28867401
H       -1.41777683       1.10255796      -1.65152664
H       -0.67813245      -1.32667116       1.31888421
13
Frame=3 idx=003282 GeodesicLength=0.30176665258348784 rxn_smarts="[C:1]([C@@:2]1([C:5](=[O:6])[H:13])[C:3]([H:10])([H:11])[N:4]1[H:12])([H:7])([H:8])[H:9]>>[C:1]([C:5](=[O:6])[H:13])([H:7])([H:8])[H:9].[C:2]1[C:3]([H:10])([H:11])[N:4]1[H:12]"
C        1.17074122      -1.12276796       0.11079236
C       -0.38631764       0.37305139       0.02601510
C       -0.34614403       1.82976460       0.24526868
N       -0.62571164       1.13542223      -1.00889772
C       -0.54428100      -1.13621636       0.23653190
O       -1.18296981      -1.77646406      -0.64043657
H        1.34679622      -2.19376120       0.20613483
H        1.53565163      -0.82983961      -0.87279118
H        1.69318524      -0.61363196       0.92285681
H       -1.16771319       2.26488457       0.80653760
H        0.60622450       2.34660915       0.28091279
H       -1.41724336       1.06508040      -1.63352746
H       -0.68221814      -1.34213119       1.32060286
13
Frame=4 idx=003282 GeodesicLength=0.40186189883109513 rxn_smarts="[C:1]([C@@:2]1([C:5](=[O:6])[H:13])[C:3]([H:10])([H:11])[N:4]1[H:12])([H:7])([H:8])[H:9]>>[C:1]([C:5](=[O:6])[H:13])([H:7])([H:8])[H:9].[C:2]1[C:3]([H:10])([H:11])[N:4]1[H:12]"
C        1.17761017      -1.13195102       0.10525254
C       -0.34762443       0.38973619       0.03737380
C       -0.35501625       1.85138775       0.23829169
N       -0.61418270       1.13743650      -1.00659707
C       -0.54993371      -1.14245871       0.24042865
O       -1.21625203      -1.74639471      -0.63564779
H        1.34935313      -2.20570616       0.18114663
H        1.56205926      -0.83235159      -0.86892353
H        1.69891013      -0.64941482       0.93411880
H       -1.19009399       2.26668468       0.79446308
H        0.58516109       2.39033345       0.27311715
H       -1.41397592       1.02901619      -1.61572400
H       -0.68601475      -1.35631775       1.32270005
13
Frame=5 idx=003282 GeodesicLength=0.5015930259439157 rxn_smarts="[C:1]([C@@:2]1([C:5](=[O:6])[H:13])[C:3]([H:10])([H:11])[N:4]1[H:12])([H:7])([H:8])[H:9]>>[C:1]([C:5](=[O:6])[H:13])([H:7])([H:8])[H:9].[C:2]1[C:3]([H:10])([H:11])[N:4]1[H:12]"
C        1.18434309      -1.14069986       0.09927693
C       -0.30866044       0.40652547       0.04776515
C       -0.36426167       1.87147133       0.23136967
N       -0.60229295       1.13935792      -1.00452212
C       -0.55584550      -1.14833626       0.24445384
O       -1.24996635      -1.71540698      -0.62864059
H        1.35163898      -2.21683750       0.15610527
H        1.58892439      -0.83504676      -0.86490460
H        1.70389763      -0.68498770       0.94428521
H       -1.21234770       2.26595490       0.78284126
H        0.56266702       2.43314576       0.26504701
H       -1.40844626       0.99439266      -1.59811735
H       -0.68965024      -1.36953298       1.32504032
13
Frame=6 idx=003282 GeodesicLength=0.6009400030761921 rxn_smarts="[C:1]([C@@:2]1([C:5](=[O:6])[H:13])[C:3]([H:10])([H:11])[N:4]1[H:12])([H:7])([H:8])[H:9]>>[C:1]([C:5](=[O:6])[H:13])([H:7])([H:8])[H:9].[C:2]1[C:3]([H:10])([H:11])[N:4]1[H:12]"
C        1.19091260      -1.14875500       0.09307876
C       -0.26989632       0.42333910       0.05711246
C       -0.37349517       1.88990555       0.22438497
N       -0.59048268       1.14113695      -1.00271047
C       -0.56211524      -1.15411481       0.24837361
O       -1.28376152      -1.68377428      -0.61990772
H        1.35393601      -2.22687089       0.13128977
H        1.61638300      -0.83750438      -0.86037926
H        1.70778045      -0.71990648       0.95368351
H       -1.23364375       2.26299392       0.77187545
H        0.53943623       2.47433072       0.25629326
H       -1.40160568       0.96138607      -1.58047144
H       -0.69344794      -1.38216649       1.32737709
13
Frame=7 idx=003282 GeodesicLength=0.7001900047379527 rxn_smarts="[C:1]([C@@:2]1([C:5](=[O:6])[H:13])[C:3]([H:10])([H:11])[N:4]1[H:12])([H:7])([H:8])[H:9]>>[C:1]([C:5](=[O:6])[H:13])([H:7])([H:8])[H:9].[C:2]1[C:3]([H:10])([H:11])[N:4]1[H:12]"
C        1.19737548      -1.15607317       0.08674862
C       -0.23162265       0.44014258       0.06546329
C       -0.38256313       1.90681402       0.21729545
N       -0.57900218       1.14281938      -1.00121591
C       -0.56880484      -1.16004145       0.25210780
O       -1.31754046      -1.65164950      -0.60967725
H        1.35651938      -2.23581153       0.10672644
H        1.64459475      -0.83955573      -0.85518709
H        1.71043380      -0.75408686       0.96254661
H       -1.25370992       2.25827782       0.76166239
H        0.51584009       2.51365513       0.24667493
H       -1.39397975       0.93009125      -1.56282853
H       -0.69754055      -1.39458194       1.32968327
13
Frame=8 idx=003282 GeodesicLength=0.7986030518514023 rxn_smarts="[C:1]([C@@:2]1([C:5](=[O:6])[H:13])[C:3]([H:10])([H:11])[N:4]1[H:12])([H:7])([H:8])[H:9]>>[C:1]([C:5](=[O:6])[H:13])([H:7])([H:8])[H:9].[C:2]1[C:3]([H:10])([H:11])[N:4]1[H:12]"
C        1.20346288      -1.16228925       0.08033860
C       -0.19400729       0.45676900       0.07297525
C       -0.39111765       1.92212145       0.21009588
N       -0.56789081       1.14406703      -0.99976343
C       -0.57591592      -1.16630538       0.25541998
O       -1.35112720      -1.61925211      -0.59815136
H        1.35920153      -2.24316769       0.08237432
H        1.67319134      -0.84086193      -0.84895314
H        1.71145437      -0.78698712       0.97085213
H       -1.27196635       2.25201283       0.75207017
H        0.49231045       2.55082859       0.23614909
H       -1.38573504       0.90003826      -1.54485853
H       -0.70186031      -1.40697367       1.33145106
13
Frame=9 idx=003282 GeodesicLength=0.8971102293844931 rxn_smarts="[C:1]([C@@:2]1([C:5](=[O:6])[H:13])[C:3]([H:10])([H:11])[N:4]1[H:12])([H:7])([H:8])[H:9]>>[C:1]([C:5](=[O:6])[H:13])([H:7])([H:8])[H:9].[C:2]1[C:3]([H:10])([H:11])[N:4]1[H:12]"
C        1.20950058      -1.16766878       0.07390060
C       -0.15718670       0.47333679       0.07954879
C       -0.39925775       1.93610127       0.20275899
N       -0.55741934       1.14519687      -0.99863963
C       -0.58353825      -1.17310248       0.25832208
O       -1.38463481      -1.58655243      -0.58545504
H        1.36250716      -2.24935085       0.05838773
H        1.70266366      -0.84157747      -0.84176197
H        1.71110787      -0.81893774       0.97883456
H       -1.28861373       2.24464111       0.74333991
H        0.46898646       2.58591962       0.22459645
H       -1.37746342       0.87162952      -1.52682317
H       -0.70665174      -1.41963543       1.33299071
13
Frame=10 idx=003282 GeodesicLength=0.9951222451031224 rxn_smarts="[C:1]([C@@:2]1([C:5](=[O:6])[H:13])[C:3]([H:10])([H:11])[N:4]1[H:12])([H:7])([H:8])[H:9]>>[C:1]([C:5](=[O:6])[H:13])([H:7])([H:8])[H:9].[C:2]1[C:3]([H:10])([H:11])[N:4]1[H:12]"
C        1.21527943      -1.17196493       0.06750281
C       -0.12122266       0.48978536       0.08513585
C       -0.40670964       1.94874502       0.19525423
N       -0.54771088       1.14595219      -0.99765313
C       -0.59164889      -1.18059006       0.26052777
O       -1.41781409      -1.55382777      -0.57181867
H        1.36627529      -2.25403665       0.03485102
H        1.73274248      -0.84147352      -0.83320934
H        1.70907291      -0.84951528       0.98645297
H       -1.30311170       2.23625868       0.73550851
H        0.44623197       2.61878219       0.21193367
H       -1.36948412       0.84452082      -1.50831069
H       -0.71190010      -1.43263606       1.33382500
13
Frame=11 idx=003282 GeodesicLength=1.0931689590933962 rxn_smarts="[C:1]([C@@:2]1([C:5](=[O:6])[H:13])[C:3]([H:10])([H:11])[N:4]1[H:12])([H:7])([H:8])[H:9]>>[C:1]([C:5](=[O:6])[H:13])([H:7])([H:8])[H:9].[C:2]1[C:3]([H:10])([H:11])[N:4]1[H:12]"
C        1.22102089      -1.17540697       0.06112260
C       -0.08610691       0.50615149       0.08981799
C       -0.41362111       1.96034941       0.18759622
N       -0.53882452       1.14652527      -0.99693672
C       -0.60030186      -1.18892244       0.26205364
O       -1.45083803      -1.52096806      -0.55724066
H        1.37082874      -2.25755515       0.01181695
H        1.76364810      -0.84085035      -0.82343085
H        1.70562539      -0.87896829       0.99378417
H       -1.31584101       2.22730779       0.72863570
H        0.42402419       2.64965933       0.19821084
H       -1.36198536       0.81888167      -1.48957581
H       -0.71762849      -1.44620369       1.33414593
13
Frame=12 idx=003282 GeodesicLength=1.1909370993399797 rxn_smarts="[C:1]([C@@:2]1([C:5](=[O:6])[H:13])[C:3]([H:10])([H:11])[N:4]1[H:12])([H:7])([H:8])[H:9]>>[C:1]([C:5](=[O:6])[H:13])([H:7])([H:8])[H:9].[C:2]1[C:3]([H:10])([H:11])[N:4]1[H:12]"
C        1.22656234      -1.17783635       0.05471243
C       -0.05171449       0.52242961       0.09367870
C       -0.41990510       1.97090828       0.17979355
N       -0.53060276       1.14675630      -0.99629415
C       -0.60951309      -1.19815188       0.26277434
O       -1.48370365      -1.48796648      -0.54159241
H        1.37593562      -2.25969394      -0.01071966
H        1.79508482      -0.83967810      -0.81228881
H        1.70063201      -0.90703172       1.00062737
H       -1.32670662       2.21768739       0.72257926
H        0.40240809       2.67862326       0.18353231
H       -1.35475771       0.79433343      -1.47045257
H       -0.72371946      -1.46037980       1.33364963
13
Frame=13 idx=003282 GeodesicLength=1.288538016290791 rxn_smarts="[C:1]([C@@:2]1([C:5](=[O:6])[H:13])[C:3]([H:10])([H:11])[N:4]1[H:12])([H:7])([H:8])[H:9]>>[C:1]([C:5](=[O:6])[H:13])([H:7])([H:8])[H:9].[C:2]1[C:3]([H:10])([H:11])[N:4]1[H:12]"
C        1.23198012      -1.17938403       0.04829410
C       -0.01798828       0.53870632       0.09653634
C       -0.42557897       1.98055488       0.17187319
N       -0.52317140       1.14673625      -0.99580193
C       -0.61927637      -1.20839183       0.26255533
O       -1.51631331      -1.45490154      -0.52494958
H        1.38171923      -2.26064648      -0.03261905
H        1.82710514      -0.83807982      -0.79970069
H        1.69418791      -0.93379978       1.00700858
H       -1.33570594       2.20755038       0.71748070
H        0.38137641       2.70584108       0.16790487
H       -1.34809888       0.77094898      -1.45091778
H       -0.73023567      -1.47513441       1.33233592
13
Frame=14 idx=003282 GeodesicLength=1.386114964100554 rxn_smarts="[C:1]([C@@:2]1([C:5](=[O:6])[H:13])[C:3]([H:10])([H:11])[N:4]1[H:12])([H:7])([H:8])[H:9]>>[C:1]([C:5](=[O:6])[H:13])([H:7])([H:8])[H:9].[C:2]1[C:3]([H:10])([H:11])[N:4]1[H:12]"
C        1.23733868      -1.18016513       0.04180961
C        0.01521875       0.55503913       0.09846058
C       -0.43076958       1.98945974       0.16386472
N       -0.51643216       1.14652539      -0.99548433
C       -0.62961729      -1.21968695       0.26136457
O       -1.54876438      -1.42158141      -0.50715639
H        1.38822035      -2.26058898      -0.05387414
H        1.85967575      -0.83633405      -0.78574424
H        1.68641620      -0.95936537       1.01289064
H       -1.34312118       2.19701154       0.71332621
H        0.36075771       2.73156817       0.15144250
H       -1.34187204       0.74865396      -1.43112078
H       -0.73705081      -1.49053602       1.33022105
13
Frame=15 idx=003282 GeodesicLength=1.4836200590506277 rxn_smarts="[C:1]([C@@:2]1([C:5](=[O:6])[H:13])[C:3]([H:10])([H:11])[N:4]1[H:12])([H:7])([H:8])[H:9]>>[C:1]([C:5](=[O:6])[H:13])([H:7])([H:8])[H:9].[C:2]1[C:3]([H:10])([H:11])[N:4]1[H:12]"
C        1.24260245      -1.18018201       0.03523790
C        0.04802987       0.57149290       0.09937838
C       -0.43547718       1.99767695       0.15577248
N       -0.51037038       1.14612005      -0.99530403
C       -0.64056187      -1.23208622       0.25907273
O       -1.58097211      -1.38799408      -0.48812692
H        1.39537708      -2.25954637      -0.07441243
H        1.89269376      -0.83452235      -0.77032873
H        1.67728942      -0.98367529       1.01820603
H       -1.34892338       2.18603680       0.71014471
H        0.34050204       2.75592364       0.13418267
H       -1.33607744       0.72733065      -1.41099297
H       -0.74411225      -1.50657466       1.32717018
13
Frame=16 idx=003282 GeodesicLength=1.581083732087436 rxn_smarts="[C:1]([C@@:2]1([C:5](=[O:6])[H:13])[C:3]([H:10])([H:11])[N:4]1[H:12])([H:7])([H:8])[H:9]>>[C:1]([C:5](=[O:6])[H:13])([H:7])([H:8])[H:9].[C:2]1[C:3]([H:10])([H:11])[N:4]1[H:12]"
C        1.24777436      -1.17947569       0.02855554
C        0.08057454       0.58813998       0.09922365
C       -0.43973585       2.00528191       0.14761980
N       -0.50496726       1.14555300      -0.99525986
C       -0.65215293      -1.24563824       0.25556517
O       -1.61285807      -1.35408987      -0.46778432
H        1.40317448      -2.25760598      -0.09411844
H        1.92604905      -0.83281138      -0.75345644
H        1.66683618      -1.00667581       1.02290960
H       -1.35315466       2.17462257       0.70798585
H        0.32052265       2.77905099       0.11619371
H       -1.33069564       0.70689961      -1.39053669
H       -0.75136685      -1.52325109       1.32310245
