10
Frame=0 idx=002485 GeodesicLength=0.0 rxn_smarts="[O:1]([c:2]1[c:3]([H:8])[n:4]([H:9])[c:5]([H:10])[n:6]1)[H:7]>>[O:1]([C:2]1=[C:3]([H:8])[N:4]([H:9])[C:5][N:6]1[H:10])[H:7]"
O        2.12202182      -0.20551947      -0.02291769
C        0.78559274      -0.06605510      -0.05993451
C       -0.16192235      -1.01787711       0.10461958
N       -1.36479612      -0.34848926       0.03538438
C       -1.20290804       0.95855598      -0.27256634
N        0.18359864       1.13975361      -0.33260387
H        2.50963757       0.62310203      -0.31830213
H       -0.07821328      -2.08401637       0.22759819
H       -2.26539139      -0.77260138       0.16679488
H       -0.52761959       1.77314706       0.47192750
10
Frame=1 idx=002485 GeodesicLength=0.03446766891154376 rxn_smarts="[O:1]([c:2]1[c:3]([H:8])[n:4]([H:9])[c:5]([H:10])[n:6]1)[H:7]>>[O:1]([C:2]1=[C:3]([H:8])[N:4]([H:9])[C:5][N:6]1[H:10])[H:7]"
O        2.12070533      -0.19179197       0.01834548
C        0.78504562      -0.06353505      -0.06089479
C       -0.16023831      -1.02048153       0.08803433
N       -1.36437039      -0.35071685       0.03072766
C       -1.20222826       0.95785362      -0.26853706
N        0.17979933       1.14202925      -0.32335543
H        2.51479827       0.59996744      -0.35803803
H       -0.07460150      -2.08395660       0.23057603
H       -2.26443779      -0.77554643       0.16275216
H       -0.53447231       1.78617811       0.48038965
10
Frame=2 idx=002485 GeodesicLength=0.06922796077487564 rxn_smarts="[O:1]([c:2]1[c:3]([H:8])[n:4]([H:9])[c:5]([H:10])[n:6]1)[H:7]>>[O:1]([C:2]1=[C:3]([H:8])[N:4]([H:9])[C:5][N:6]1[H:10])[H:7]"
O        2.11832395      -0.17771440       0.05334773
C        0.78435996      -0.06057255      -0.06201791
C       -0.15819035      -1.02277925       0.07127475
N       -1.36374395      -0.35310865       0.02668909
C       -1.20198682       0.95655259      -0.26557229
N        0.17545118       1.14398455      -0.31622882
H        2.52067245       0.57526724      -0.38781040
H       -0.07038497      -2.08372411       0.22983019
H       -2.26272179      -0.77805698       0.16468381
H       -0.54177965       1.80015156       0.48580384
10
Frame=3 idx=002485 GeodesicLength=0.10417262794602433 rxn_smarts="[O:1]([c:2]1[c:3]([H:8])[n:4]([H:9])[c:5]([H:10])[n:6]1)[H:7]>>[O:1]([C:2]1=[C:3]([H:8])[N:4]([H:9])[C:5][N:6]1[H:10])[H:7]"
O        2.11593902      -0.16313687       0.08441637
C        0.78378411      -0.05669260      -0.05863482
C       -0.15562737      -1.02399663       0.06153903
N       -1.36288319      -0.35527444       0.02632230
C       -1.20195013       0.95457585      -0.26335078
N        0.17088158       1.14556763      -0.31004201
H        2.52628340       0.54805578      -0.41464520
H       -0.06556433      -2.08461226       0.22060408
H       -2.26090499      -0.78123165       0.16662058
H       -0.54995812       1.81674520       0.48717045
10
Frame=4 idx=002485 GeodesicLength=0.1393175548802076 rxn_smarts="[O:1]([c:2]1[c:3]([H:8])[n:4]([H:9])[c:5]([H:10])[n:6]1)[H:7]>>[O:1]([C:2]1=[C:3]([H:8])[N:4]([H:9])[C:5][N:6]1[H:10])[H:7]"
O        2.11308107      -0.14809689       0.11298237
C        0.78308686      -0.05258696      -0.05563821
C       -0.15288488      -1.02490295       0.05296307
N       -1.36197295      -0.35746816       0.02733983
C       -1.20231580       0.95226867      -0.26141414
N        0.16587616       1.14693792      -0.30553755
H        2.53233338       0.51972920      -0.43589481
H       -0.06027830      -2.08596097       0.20711810
H       -2.25874818      -0.78431417       0.17209789
H       -0.55817735       1.83439431       0.48598346
10
Frame=5 idx=002485 GeodesicLength=0.17460049788371373 rxn_smarts="[O:1]([c:2]1[c:3]([H:8])[n:4]([H:9])[c:5]([H:10])[n:6]1)[H:7]>>[O:1]([C:2]1=[C:3]([H:8])[N:4]([H:9])[C:5][N:6]1[H:10])[H:7]"
O        2.11095764      -0.13256643       0.13733665
C        0.78254128      -0.04740075      -0.04807007
C       -0.14959031      -1.02487923       0.04887952
N       -1.36077254      -0.35948789       0.02952961
C       -1.20255791       0.95002430      -0.25881808
N        0.16094352       1.14879500      -0.29898395
H        2.53701953       0.48787932      -0.45959174
H       -0.05414711      -2.08689831       0.19374551
H       -2.25678090      -0.78871113       0.17117062
H       -0.56761319       1.85324512       0.48480192
10
Frame=6 idx=002485 GeodesicLength=0.21001574154907568 rxn_smarts="[O:1]([c:2]1[c:3]([H:8])[n:4]([H:9])[c:5]([H:10])[n:6]1)[H:7]>>[O:1]([C:2]1=[C:3]([H:8])[N:4]([H:9])[C:5][N:6]1[H:10])[H:7]"
O        2.10834233      -0.11686877       0.15960336
C        0.78182634      -0.04236462      -0.04300364
C       -0.14629803      -1.02491944       0.04330433
N       -1.35959273      -0.36161082       0.03212239
C       -1.20320719       0.94774586      -0.25576346
N        0.15557395       1.15057298      -0.29384984
H        2.54219877       0.45583979      -0.47786730
H       -0.04775095      -2.08768858       0.17971891
H       -2.25452953      -0.79299410       0.17318726
H       -0.57656295       1.87228770       0.48254797
10
Frame=7 idx=002485 GeodesicLength=0.24555776313627464 rxn_smarts="[O:1]([c:2]1[c:3]([H:8])[n:4]([H:9])[c:5]([H:10])[n:6]1)[H:7]>>[O:1]([C:2]1=[C:3]([H:8])[N:4]([H:9])[C:5][N:6]1[H:10])[H:7]"
O        2.10559295      -0.10088907       0.17985403
C        0.78104570      -0.03716267      -0.03855763
C       -0.14287469      -1.02475944       0.03800453
N       -1.35835752      -0.36376967       0.03537728
C       -1.20412544       0.94543233      -0.25223646
N        0.14990964       1.15240227      -0.28921452
H        2.54743758       0.42275028      -0.49318014
H       -0.04097686      -2.08832776       0.16468067
H       -2.25211853      -0.79750496       0.17591106
H       -0.58553283       1.89182871       0.47936118
10
Frame=8 idx=002485 GeodesicLength=0.2812187149891629 rxn_smarts="[O:1]([c:2]1[c:3]([H:8])[n:4]([H:9])[c:5]([H:10])[n:6]1)[H:7]>>[O:1]([C:2]1=[C:3]([H:8])[N:4]([H:9])[C:5][N:6]1[H:10])[H:7]"
O        2.10329168      -0.08451216       0.19756774
C        0.78030084      -0.03144338      -0.03264936
C       -0.13915305      -1.02413509       0.03480401
N       -1.35697322      -0.36586657       0.03964857
C       -1.20513313       0.94313841      -0.24802046
N        0.14412084       1.15446420      -0.28393735
H        2.55189890       0.38758678      -0.50819181
H       -0.03362790      -2.08865065       0.14913455
H       -2.24974009      -0.80272570       0.17601388
H       -0.59498487       1.91214416       0.47563024
10
Frame=9 idx=002485 GeodesicLength=0.31708368740486315 rxn_smarts="[O:1]([c:2]1[c:3]([H:8])[n:4]([H:9])[c:5]([H:10])[n:6]1)[H:7]>>[O:1]([C:2]1=[C:3]([H:8])[N:4]([H:9])[C:5][N:6]1[H:10])[H:7]"
O        2.10050246      -0.06749903       0.21489535
C        0.77942882      -0.02565366      -0.02822767
C       -0.13535311      -1.02345252       0.03105485
N       -1.35555145      -0.36810217       0.04449666
C       -1.20654683       0.94064379      -0.24373080
N        0.13788934       1.15642376      -0.28002101
H        2.55693767       0.35135633      -0.51879128
H       -0.02594339      -2.08901241       0.12998082
H       -2.24692224      -0.80770840       0.18038483
H       -0.60444125       1.93300432       0.46995826
10
Frame=10 idx=002485 GeodesicLength=0.35306332095959253 rxn_smarts="[O:1]([c:2]1[c:3]([H:8])[n:4]([H:9])[c:5]([H:10])[n:6]1)[H:7]>>[O:1]([C:2]1=[C:3]([H:8])[N:4]([H:9])[C:5][N:6]1[H:10])[H:7]"
O        2.09825280      -0.04997226       0.23026381
C        0.77861337      -0.01932587      -0.02192200
C       -0.13120834      -1.02232969       0.02996814
N       -1.35395823      -0.37033237       0.05032151
C       -1.20800714       0.93802735      -0.23913523
N        0.13156781       1.15850809      -0.27561404
H        2.56098338       0.31288007      -0.52874867
H       -0.01764890      -2.08905431       0.10831479
H       -2.24400509      -0.81315956       0.18361312
H       -0.61458965       1.95475855       0.46293857
10
Frame=11 idx=002485 GeodesicLength=0.3892225369761772 rxn_smarts="[O:1]([c:2]1[c:3]([H:8])[n:4]([H:9])[c:5]([H:10])[n:6]1)[H:7]>>[O:1]([C:2]1=[C:3]([H:8])[N:4]([H:9])[C:5][N:6]1[H:10])[H:7]"
O        2.09541282      -0.03201897       0.24504386
C        0.77767769      -0.01306353      -0.01785511
C       -0.12704943      -1.02128156       0.02731438
N       -1.35231164      -0.37273240       0.05652290
C       -1.20987737       0.93529889      -0.23409612
N        0.12479413       1.16051600      -0.27246450
H        2.56576534       0.27373630      -0.53404749
H       -0.00920486      -2.08878270       0.08429429
H       -2.24063561      -0.81844725       0.19086476
H       -0.62457107       1.97677522       0.45442304
10
Frame=12 idx=002485 GeodesicLength=0.4254826537872724 rxn_smarts="[O:1]([c:2]1[c:3]([H:8])[n:4]([H:9])[c:5]([H:10])[n:6]1)[H:7]>>[O:1]([C:2]1=[C:3]([H:8])[N:4]([H:9])[C:5][N:6]1[H:10])[H:7]"
O        2.09285574      -0.01381875       0.25757175
C        0.77677163      -0.00656650      -0.01394969
C       -0.12270754      -1.02001228       0.02541212
N       -1.35053517      -0.37515307       0.06347425
C       -1.21190549       0.93262881      -0.22805520
N        0.11781516       1.16268388      -0.26902628
H        2.57009724       0.23324294      -0.53788232
H       -0.00046175      -2.08785597       0.06041269
H       -2.23720102      -0.82429840       0.19656325
H       -0.63472880       1.99914932       0.44547943
10
Frame=13 idx=002485 GeodesicLength=0.4617827834050972 rxn_smarts="[O:1]([c:2]1[c:3]([H:8])[n:4]([H:9])[c:5]([H:10])[n:6]1)[H:7]>>[O:1]([C:2]1=[C:3]([H:8])[N:4]([H:9])[C:5][N:6]1[H:10])[H:7]"
O        2.09003780       0.00427884       0.26850608
C        0.77584059      -0.00018841      -0.01201588
C       -0.11837688      -1.01878661       0.02214689
N       -1.34867750      -0.37769321       0.07056986
C       -1.21416657       0.93001628      -0.22116632
N        0.11055709       1.16487686      -0.26604366
H        2.57476216       0.19266879      -0.53829430
H        0.00823477      -2.08649453       0.03662550
H       -2.23349920      -0.83022959       0.20366714
H       -0.64471226       2.02155159       0.43600470
10
Frame=14 idx=002485 GeodesicLength=0.4981144255238592 rxn_smarts="[O:1]([c:2]1[c:3]([H:8])[n:4]([H:9])[c:5]([H:10])[n:6]1)[H:7]>>[O:1]([C:2]1=[C:3]([H:8])[N:4]([H:9])[C:5][N:6]1[H:10])[H:7]"
O        2.08718796       0.02232071       0.27767397
C        0.77492467       0.00618186      -0.01135893
C       -0.11400101      -1.01751409       0.01824014
N       -1.34669703      -0.38032228       0.07800347
C       -1.21658793       0.92745861      -0.21336380
N        0.10308092       1.16713166      -0.26318765
H        2.57943753       0.15172043      -0.53605359
H        0.01692000      -2.08468911       0.01290309
H       -2.22958335      -0.83638483       0.21115400
H       -0.65468177       2.04409704       0.42598930
10
Frame=15 idx=002485 GeodesicLength=0.534473182678819 rxn_smarts="[O:1]([c:2]1[c:3]([H:8])[n:4]([H:9])[c:5]([H:10])[n:6]1)[H:7]>>[O:1]([C:2]1=[C:3]([H:8])[N:4]([H:9])[C:5][N:6]1[H:10])[H:7]"
O        2.08425933       0.04029292       0.28520648
C        0.77402831       0.01252934      -0.01212130
C       -0.10959549      -1.01620237       0.01350236
N       -1.34457438      -0.38305191       0.08573244
C       -1.21915753       0.92495419      -0.20462875
N        0.09538370       1.16944214      -0.26050352
H        2.58417191       0.11047568      -0.53100355
H        0.02553532      -2.08249208      -0.01089968
H       -2.22540577      -0.84271946       0.21934322
H       -0.66464541       2.06677155       0.41537230
10
Frame=16 idx=002485 GeodesicLength=0.5708521228175656 rxn_smarts="[O:1]([c:2]1[c:3]([H:8])[n:4]([H:9])[c:5]([H:10])[n:6]1)[H:7]>>[O:1]([C:2]1=[C:3]([H:8])[N:4]([H:9])[C:5][N:6]1[H:10])[H:7]"
O        2.08126974       0.05818925       0.29112708
C        0.77316235       0.01886579      -0.01427741
C       -0.10516095      -1.01483747       0.00795939
N       -1.34228167      -0.38588350       0.09378152
C       -1.22184382       0.92250038      -0.19491777
N        0.08747847       1.17180997      -0.25795598
H        2.58891229       0.06893520      -0.52315226
H        0.03404402      -2.07992848      -0.03489674
H       -2.22093942      -0.84923561       0.22823573
H       -0.67464101       2.08958448       0.40409645
