19
Frame=0 idx=008406 GeodesicLength=0.0 rxn_smarts="[C:1]([O:2][C@@:3]1([H:11])[C:4]([H:12])([H:13])[C:5]([H:14])([H:15])[C@:6]1([C:7]([H:17])([H:18])[H:19])[H:16])([H:8])([H:9])[H:10]>>[C:1]([O+:2]=[C-:3][C:4]([C:5]([C:6]([C:7]([H:17])([H:18])[H:19])([H:11])[H:16])([H:14])[H:15])([H:12])[H:13])([H:8])([H:9])[H:10]"
C        2.51730432      -0.83216054       0.01145721
O        1.50792136      -0.09215833      -0.65228704
C        0.81108517       0.73569824       0.14043355
C       -0.22240243       1.52851028      -0.62827933
C       -1.44115718       1.24695335       0.24746999
C       -1.04290562      -0.14400352       0.71625231
C       -1.26555298      -1.29216803      -0.22516416
H        2.06403650      -1.56579794       0.68632864
H        3.16438361      -0.16722927       0.58606876
H        3.08872290      -1.35485456      -0.75381384
H        0.30846169       0.21912897       1.09666270
H        0.05594555       2.57552633      -0.76432932
H       -0.36689770       1.09231384      -1.62280659
H       -2.40588444       1.30475736      -0.26294614
H       -1.47550892       1.93179551       1.09687155
H       -1.30791982      -0.39037579       1.74703610
H       -2.33421458      -1.44277545      -0.41360590
H       -0.78269928      -1.12936410      -1.19230562
H       -0.87271813      -2.22379635       0.18695720
19
Frame=1 idx=008406 GeodesicLength=0.09098068575355871 rxn_smarts="[C:1]([O:2][C@@:3]1([H:11])[C:4]([H:12])([H:13])[C:5]([H:14])([H:15])[C@:6]1([C:7]([H:17])([H:18])[H:19])[H:16])([H:8])([H:9])[H:10]>>[C:1]([O+:2]=[C-:3][C:4]([C:5]([C:6]([C:7]([H:17])([H:18])[H:19])([H:11])[H:16])([H:14])[H:15])([H:12])[H:13])([H:8])([H:9])[H:10]"
C        2.55531883      -0.81101695       0.00985919
O        1.50567474      -0.12041376      -0.64434498
C        0.80474973       0.70387349       0.14865949
C       -0.21134010       1.51588313      -0.62258999
C       -1.43868082       1.24664129       0.24611776
C       -1.05931384      -0.15112770       0.71408479
C       -1.30356686      -1.29266551      -0.23216587
H        2.14578218      -1.52270000       0.73429699
H        3.21238779      -0.10893228       0.52635461
H        3.10651611      -1.35626063      -0.75463204
H        0.29175576       0.18814955       1.12031072
H        0.08277598       2.56023205      -0.74593722
H       -0.35592756       1.08827166      -1.62072965
H       -2.39901706       1.31670761      -0.27070567
H       -1.46887905       1.93052791       1.09643242
H       -1.34705895      -0.39563354       1.73928626
H       -2.37498926      -1.42529616      -0.41755597
H       -0.82287393      -1.13431667      -1.20104199
H       -0.92331371      -2.23192349       0.17430114
19
Frame=2 idx=008406 GeodesicLength=0.17856163644927497 rxn_smarts="[C:1]([O:2][C@@:3]1([H:11])[C:4]([H:12])([H:13])[C:5]([H:14])([H:15])[C@:6]1([C:7]([H:17])([H:18])[H:19])[H:16])([H:8])([H:9])[H:10]>>[C:1]([O+:2]=[C-:3][C:4]([C:5]([C:6]([C:7]([H:17])([H:18])[H:19])([H:11])[H:16])([H:14])[H:15])([H:12])[H:13])([H:8])([H:9])[H:10]"
C        2.59203749      -0.78901019       0.00777446
O        1.50409043      -0.14941705      -0.63544234
C        0.79855241       0.67136973       0.15729604
C       -0.19958221       1.50250005      -0.61646902
C       -1.43549093       1.24582924       0.24499434
C       -1.07540597      -0.15863293       0.71202735
C       -1.34127406      -1.29291277      -0.23930111
H        2.22703511      -1.47406713       0.78011896
H        3.25536422      -0.05107904       0.46320391
H        3.12422477      -1.35867250      -0.75251615
H        0.27446847       0.15636735       1.14442106
H        0.11034375       2.54379445      -0.72694692
H       -0.34385897       1.08346882      -1.61819809
H       -2.39116439       1.32833095      -0.27830303
H       -1.46155586       1.92866607       1.09628593
H       -1.38593335      -0.40063448       1.73126802
H       -2.41516327      -1.40736160      -0.42165564
H       -0.86278656      -1.13880439      -1.20988062
H       -0.97390108      -2.23973459       0.16132285
19
Frame=3 idx=008406 GeodesicLength=0.2629980261731243 rxn_smarts="[C:1]([O:2][C@@:3]1([H:11])[C:4]([H:12])([H:13])[C:5]([H:14])([H:15])[C@:6]1([C:7]([H:17])([H:18])[H:19])[H:16])([H:8])([H:9])[H:10]>>[C:1]([O+:2]=[C-:3][C:4]([C:5]([C:6]([C:7]([H:17])([H:18])[H:19])([H:11])[H:16])([H:14])[H:15])([H:12])[H:13])([H:8])([H:9])[H:10]"
C        2.62737928      -0.76617994       0.00519603
O        1.50321113      -0.17910624      -0.62551088
C        0.79249294       0.63820194       0.16632392
C       -0.18717205       1.48830818      -0.60989076
C       -1.43158053       1.24448005       0.24410205
C       -1.09111937      -0.16648942       0.71004968
C       -1.37858264      -1.29281554      -0.24655793
H        2.30741211      -1.41969822       0.82333592
H        3.29310320       0.00568310       0.39672398
H        3.14209112      -1.36186246      -0.74720356
H        0.25660215       0.12381485       1.16893705
H        0.13854419       2.52611289      -0.70734823
H       -0.33073448       1.07784780      -1.61512940
H       -2.38232187       1.33958677      -0.28569420
H       -1.45353351       1.92614207       1.09639486
H       -1.42442856      -0.40532734       1.72290394
H       -2.45462805      -1.38885686      -0.42589861
H       -0.90233979      -1.14274180      -1.21875540
H       -1.02439527      -2.24709984       0.14802152
19
Frame=4 idx=008406 GeodesicLength=0.34498378367620447 rxn_smarts="[C:1]([O:2][C@@:3]1([H:11])[C:4]([H:12])([H:13])[C:5]([H:14])([H:15])[C@:6]1([C:7]([H:17])([H:18])[H:19])[H:16])([H:8])([H:9])[H:10]>>[C:1]([O+:2]=[C-:3][C:4]([C:5]([C:6]([C:7]([H:17])([H:18])[H:19])([H:11])[H:16])([H:14])[H:15])([H:12])[H:13])([H:8])([H:9])[H:10]"
C        2.66135279      -0.74256926       0.00212479
O        1.50309326      -0.20944979      -0.61460782
C        0.78658556       0.60443299       0.17570965
C       -0.17412769       1.47338592      -0.60291508
C       -1.42695296       1.24265353       0.24348597
C       -1.10644036      -0.17471452       0.70820203
C       -1.41549396      -1.29243557      -0.25396252
H        2.38654196      -1.35956252       0.86371302
H        3.32561127       0.06089031       0.32714173
H        3.16045982      -1.36560843      -0.73860898
H        0.23814634       0.09051535       1.19391669
H        0.16734033       2.50732729      -0.68721881
H       -0.31658180       1.07144068      -1.61164578
H       -2.37251033       1.35053996      -0.29283774
H       -1.44479672       1.92305063       1.09687379
H       -1.46248882      -0.40974331       1.71432721
H       -2.49339166      -1.36981798      -0.43033627
H       -0.94149497      -1.14618907      -1.22776074
H       -1.07485207      -2.25414623       0.13439888
19
Frame=5 idx=008406 GeodesicLength=0.4247723180848539 rxn_smarts="[C:1]([O:2][C@@:3]1([H:11])[C:4]([H:12])([H:13])[C:5]([H:14])([H:15])[C@:6]1([C:7]([H:17])([H:18])[H:19])[H:16])([H:8])([H:9])[H:10]>>[C:1]([O+:2]=[C-:3][C:4]([C:5]([C:6]([C:7]([H:17])([H:18])[H:19])([H:11])[H:16])([H:14])[H:15])([H:12])[H:13])([H:8])([H:9])[H:10]"
C        2.69381942      -0.71805329      -0.00142551
O        1.50365533      -0.24054215      -0.60274452
C        0.78086043       0.56999984       0.18543910
C       -0.16032209       1.45764906      -0.59549275
C       -1.42146131       1.24027415       0.24315446
C       -1.12135457      -0.18332848       0.70643904
C       -1.45205747      -1.29173009      -0.26151980
H        2.46427140      -1.29371932       0.90108589
H        3.35265076       0.11472430       0.25456983
H        3.17925692      -1.36962756      -0.72664602
H        0.21906273       0.05642488       1.21927327
H        0.19691579       2.48732110      -0.66649974
H       -0.30130783       1.06417024      -1.60764588
H       -2.36153846       1.36111669      -0.29968434
H       -1.43514074       1.91929205       1.09768353
H       -1.50013187      -0.41388977       1.70540800
H       -2.53147292      -1.35023444      -0.43493141
H       -0.98033153      -1.14908352      -1.23684554
H       -1.12537398      -2.26076368       0.12038239
19
Frame=6 idx=008406 GeodesicLength=0.5027146208337714 rxn_smarts="[C:1]([O:2][C@@:3]1([H:11])[C:4]([H:12])([H:13])[C:5]([H:14])([H:15])[C@:6]1([C:7]([H:17])([H:18])[H:19])[H:16])([H:8])([H:9])[H:10]>>[C:1]([O+:2]=[C-:3][C:4]([C:5]([C:6]([C:7]([H:17])([H:18])[H:19])([H:11])[H:16])([H:14])[H:15])([H:12])[H:13])([H:8])([H:9])[H:10]"
C        2.72464519      -0.69295106      -0.00545622
O        1.50511950      -0.27199065      -0.59003959
C        0.77534584       0.53521180       0.19540453
C       -0.14596020       1.44131060      -0.58774893
C       -1.41524797       1.23743835       0.24313423
C       -1.13570778      -0.19226884       0.70482931
C       -1.48795890      -1.29074274      -0.26919006
H        2.53945020      -1.22245893       0.93479214
H        3.37429651       0.16580203       0.17972893
H        3.19887489      -1.37365105      -0.71127054
H        0.19944696       0.02183740       1.24505833
H        0.22686611       2.46639719      -0.64538590
H       -0.28509550       1.05617005      -1.60330396
H       -2.34961853       1.37131082      -0.30618558
H       -1.42478929       1.91501082       1.09890996
H       -1.53704817      -0.41773309       1.69634534
H       -2.56857012      -1.33022333      -0.43962765
H       -1.01854002      -1.15144874      -1.24606814
H       -1.17550874      -2.26702063       0.10607380
19
Frame=7 idx=008406 GeodesicLength=0.5787493546364838 rxn_smarts="[C:1]([O:2][C@@:3]1([H:11])[C:4]([H:12])([H:13])[C:5]([H:14])([H:15])[C@:6]1([C:7]([H:17])([H:18])[H:19])[H:16])([H:8])([H:9])[H:10]>>[C:1]([O+:2]=[C-:3][C:4]([C:5]([C:6]([C:7]([H:17])([H:18])[H:19])([H:11])[H:16])([H:14])[H:15])([H:12])[H:13])([H:8])([H:9])[H:10]"
C        2.75378672      -0.66724806      -0.00995366
O        1.50746860      -0.30373050      -0.57631164
C        0.77004079       0.50003279       0.20560603
C       -0.13107182       1.42422805      -0.57958626
C       -1.40829266       1.23401910       0.24340235
C       -1.14945867      -0.20150549       0.70327515
C       -1.52315217      -1.28928651      -0.27697095
H        2.61179036      -1.14555208       0.96444268
H        3.39061735       0.21352375       0.10259432
H        3.21936469      -1.37733066      -0.69221434
H        0.17928838      -0.01323737       1.27113676
H        0.25713390       2.44429771      -0.62376786
H       -0.26799451       1.04734240      -1.59839846
H       -2.33672878       1.38099553      -0.31230480
H       -1.41370467       1.90998365       1.10043457
H       -1.57315761      -0.42122575       1.68691156
H       -2.60461722      -1.30958595      -0.44442410
H       -1.05609412      -1.15309701      -1.25529477
H       -1.22521859      -2.27262360       0.09142342
19
Frame=8 idx=008406 GeodesicLength=0.6535652751111021 rxn_smarts="[C:1]([O:2][C@@:3]1([H:11])[C:4]([H:12])([H:13])[C:5]([H:14])([H:15])[C@:6]1([C:7]([H:17])([H:18])[H:19])[H:16])([H:8])([H:9])[H:10]>>[C:1]([O+:2]=[C-:3][C:4]([C:5]([C:6]([C:7]([H:17])([H:18])[H:19])([H:11])[H:16])([H:14])[H:15])([H:12])[H:13])([H:8])([H:9])[H:10]"
C        2.78129993      -0.64092227      -0.01492006
O        1.51073522      -0.33584695      -0.56164299
C        0.76497722       0.46446306       0.21602041
C       -0.11559593       1.40646259      -0.57103392
C       -1.40057112       1.23006479       0.24403123
C       -1.16265773      -0.21108738       0.70181676
C       -1.55774263      -1.28744793      -0.28492552
H        2.68100707      -1.06286850       0.99001347
H        3.40188327       0.25770444       0.02320383
H        3.24093187      -1.38044843      -0.66941462
H        0.15852983      -0.04882608       1.29756746
H        0.28783640       2.42115411      -0.60165588
H       -0.24995739       1.03771530      -1.59303461
H       -2.32285299       1.39024623      -0.31797323
H       -1.40182564       1.90428940       1.10241810
H       -1.60851781      -0.42444447       1.67722525
H       -2.63973654      -1.28838542      -0.44938623
H       -1.09305404      -1.15410432      -1.26466172
H       -1.27468900      -2.27771816       0.07635225
19
Frame=9 idx=008406 GeodesicLength=0.7271108673965435 rxn_smarts="[C:1]([O:2][C@@:3]1([H:11])[C:4]([H:12])([H:13])[C:5]([H:14])([H:15])[C@:6]1([C:7]([H:17])([H:18])[H:19])[H:16])([H:8])([H:9])[H:10]>>[C:1]([O+:2]=[C-:3][C:4]([C:5]([C:6]([C:7]([H:17])([H:18])[H:19])([H:11])[H:16])([H:14])[H:15])([H:12])[H:13])([H:8])([H:9])[H:10]"
C        2.80692479      -0.61422537      -0.02033740
O        1.51486808      -0.36803326      -0.54607697
C        0.76014129       0.42875331       0.22659654
C       -0.09969140       1.38821202      -0.56214899
C       -1.39212757       1.22563530       0.24496434
C       -1.17512439      -0.22094664       0.70046072
C       -1.59134937      -1.28521370      -0.29297830
H        2.74644036      -0.97532892       1.01094904
H        3.40803308       0.29763941      -0.05770398
H        3.26332223      -1.38275799      -0.64290658
H        0.13722224      -0.08469446       1.32432887
H        0.31862619       2.39722121      -0.57916105
H       -0.23113040       1.02748355      -1.58725687
H       -2.30801875       1.39902518      -0.32324425
H       -1.38928860       1.89799601       1.10476165
H       -1.64287410      -0.42736468       1.66728643
H       -2.67349543      -1.26679674      -0.45435688
H       -1.12917563      -1.15435758      -1.27411184
H       -1.32330264      -2.28224666       0.06093552
19
Frame=10 idx=008406 GeodesicLength=0.799790822381904 rxn_smarts="[C:1]([O:2][C@@:3]1([H:11])[C:4]([H:12])([H:13])[C:5]([H:14])([H:15])[C@:6]1([C:7]([H:17])([H:18])[H:19])[H:16])([H:8])([H:9])[H:10]>>[C:1]([O+:2]=[C-:3][C:4]([C:5]([C:6]([C:7]([H:17])([H:18])[H:19])([H:11])[H:16])([H:14])[H:15])([H:12])[H:13])([H:8])([H:9])[H:10]"
C        2.83076740      -0.58718876      -0.02617118
O        1.52001620      -0.40013892      -0.52976980
C        0.75560786       0.39298701       0.23720074
C       -0.08336072       1.36946682      -0.55298641
C       -1.38299686       1.22069446       0.24625537
C       -1.18687793      -0.23107246       0.69920632
C       -1.62408547      -1.28259175      -0.30112558
H        2.80729028      -0.88310909       1.02697876
H        3.40975536       0.33275202      -0.13955617
H        3.28694149      -1.38360770      -0.61284402
H        0.11541080      -0.12070695       1.35135798
H        0.34953738       2.37249861      -0.55634620
H       -0.21158784       1.01658872      -1.58110544
H       -2.29234639       1.40724100      -0.32799071
H       -1.37606371       1.89107926       1.10754191
H       -1.67617271      -0.42997381       1.65715515
H       -2.70607232      -1.24482594      -0.45930926
H       -1.16453109      -1.15391226      -1.28366554
H       -1.37123175      -2.28618025       0.04517406
19
Frame=11 idx=008406 GeodesicLength=0.8716972101280254 rxn_smarts="[C:1]([O:2][C@@:3]1([H:11])[C:4]([H:12])([H:13])[C:5]([H:14])([H:15])[C@:6]1([C:7]([H:17])([H:18])[H:19])[H:16])([H:8])([H:9])[H:10]>>[C:1]([O+:2]=[C-:3][C:4]([C:5]([C:6]([C:7]([H:17])([H:18])[H:19])([H:11])[H:16])([H:14])[H:15])([H:12])[H:13])([H:8])([H:9])[H:10]"
C        2.85271712      -0.55997871      -0.03243069
O        1.52613170      -0.43200803      -0.51276313
C        0.75137600       0.35731524       0.24779962
C       -0.06670379       1.35037845      -0.54358063
C       -1.37323015       1.21530506       0.24787641
C       -1.19783538      -0.24142240       0.69805948
C       -1.65573544      -1.27958608      -0.30933278
H        2.86318907      -0.78695922       1.03776491
H        3.40722062       0.36264811      -0.22180774
H        3.31159832      -1.38278848      -0.57928635
H        0.09310133      -0.15672205       1.37865044
H        0.38036441       2.34718917      -0.53327207
H       -0.19142487       1.00518937      -1.57462461
H       -2.27588376       1.41490829      -0.33224285
H       -1.36226196       1.88360987       1.11071667
H       -1.70830527      -0.43227127       1.64683735
H       -2.73723767      -1.22261460      -0.46413482
H       -1.19900252      -1.15268762      -1.29331071
H       -1.41807775      -2.28950511       0.02908147
19
Frame=12 idx=008406 GeodesicLength=0.9429966398958429 rxn_smarts="[C:1]([O:2][C@@:3]1([H:11])[C:4]([H:12])([H:13])[C:5]([H:14])([H:15])[C@:6]1([C:7]([H:17])([H:18])[H:19])[H:16])([H:8])([H:9])[H:10]>>[C:1]([O+:2]=[C-:3][C:4]([C:5]([C:6]([C:7]([H:17])([H:18])[H:19])([H:11])[H:16])([H:14])[H:15])([H:12])[H:13])([H:8])([H:9])[H:10]"
C        2.87281823      -0.53271660      -0.03904379
O        1.53325307      -0.46341219      -0.49518794
C        0.74747079       0.32188036       0.25826872
C       -0.04981103       1.33102383      -0.53399407
C       -1.36288534       1.20946353       0.24983804
C       -1.20795555      -0.25197459       0.69700706
C       -1.68626755      -1.27619503      -0.31757622
H        2.91351030      -0.68742547       1.04310527
H        3.40117481       0.38680389      -0.30386340
H        3.33731448      -1.37979517      -0.54241185
H        0.07034712      -0.19259067       1.40613649
H        0.41097679       2.32139606      -0.51002208
H       -0.17079245       0.99335165      -1.56785449
H       -2.25874937       1.42196452      -0.33593190
H       -1.34791853       1.87557735       1.11429429
H       -1.73914113      -0.43427841       1.63636172
H       -2.76698705      -1.20021401      -0.46876741
H       -1.23259065      -1.15066742      -1.30303601
H       -1.46376695      -2.29219163       0.01267759
19
Frame=13 idx=008406 GeodesicLength=1.0137905710744288 rxn_smarts="[C:1]([O:2][C@@:3]1([H:11])[C:4]([H:12])([H:13])[C:5]([H:14])([H:15])[C@:6]1([C:7]([H:17])([H:18])[H:19])[H:16])([H:8])([H:9])[H:10]>>[C:1]([O+:2]=[C-:3][C:4]([C:5]([C:6]([C:7]([H:17])([H:18])[H:19])([H:11])[H:16])([H:14])[H:15])([H:12])[H:13])([H:8])([H:9])[H:10]"
C        2.89105267      -0.50554497      -0.04602357
O        1.54133361      -0.49419759      -0.47710813
C        0.74390935       0.28682859       0.26856612
C       -0.03276745       1.31153978      -0.52425220
C       -1.35203429       1.20321851       0.25212645
C       -1.21719992      -0.26269127       0.69604930
C       -1.71555148      -1.27243028      -0.32583625
H        2.95799765      -0.58522188       1.04278544
H        3.39205445       0.40493291      -0.38524392
H        3.36388539      -1.37442656      -0.50232249
H        0.04715507      -0.22818086       1.43380499
H        0.44122323       2.29530087      -0.48663344
H       -0.14978805       0.98122534      -1.56083018
H       -2.24103773       1.42840737      -0.33906656
H       -1.33314644       1.86703455       1.11825582
H       -1.76862702      -0.43600422       1.62573486
H       -2.79521059      -1.17776915      -0.47311999
H       -1.26524317      -1.14778653      -1.31284204
H       -1.50800527      -2.29423459      -0.00404422
19
Frame=14 idx=008406 GeodesicLength=1.0842372650937193 rxn_smarts="[C:1]([O:2][C@@:3]1([H:11])[C:4]([H:12])([H:13])[C:5]([H:14])([H:15])[C@:6]1([C:7]([H:17])([H:18])[H:19])[H:16])([H:8])([H:9])[H:10]>>[C:1]([O+:2]=[C-:3][C:4]([C:5]([C:6]([C:7]([H:17])([H:18])[H:19])([H:11])[H:16])([H:14])[H:15])([H:12])[H:13])([H:8])([H:9])[H:10]"
C        2.90750636      -0.47856512      -0.05330602
O        1.55038114      -0.52422407      -0.45865215
C        0.74070407       0.25224980       0.27858370
C       -0.01564872       1.29200707      -0.51441721
C       -1.34073259       1.19659016       0.25475134
C       -1.22555525      -0.27356246       0.69518035
C       -1.74358769      -1.26830318      -0.33409426
H        2.99627220      -0.48095895       1.03671948
H        3.38060285       0.41678057      -0.46543816
H        3.39124593      -1.36625493      -0.45923010
H        0.02354952      -0.26340856       1.46160765
H        0.47100730       2.26901617      -0.46318386
H       -0.12854104       0.96889579      -1.55360945
H       -2.22285456       1.43423300      -0.34159313
H       -1.31797878       1.85799605       1.12261695
H       -1.79668983      -0.43748975       1.61499548
H       -2.82193555      -1.15532561      -0.47713212
H       -1.29699136      -1.14403253      -1.32272425
H       -1.55075402      -2.29564346      -0.02107425
19
Frame=15 idx=008406 GeodesicLength=1.1544005854102284 rxn_smarts="[C:1]([O:2][C@@:3]1([H:11])[C:4]([H:12])([H:13])[C:5]([H:14])([H:15])[C@:6]1([C:7]([H:17])([H:18])[H:19])[H:16])([H:8])([H:9])[H:10]>>[C:1]([O+:2]=[C-:3][C:4]([C:5]([C:6]([C:7]([H:17])([H:18])[H:19])([H:11])[H:16])([H:14])[H:15])([H:12])[H:13])([H:8])([H:9])[H:10]"
C        2.92220966      -0.45191869      -0.06090254
O        1.56032582      -0.55332777      -0.43992630
C        0.73787261       0.21829640       0.28825907
C        0.00145738       1.27256635      -0.50451962
C       -1.32906273       1.18962506       0.25770183
C       -1.23299994      -0.28455033       0.69439678
C       -1.77028726      -1.26383727      -0.34232861
H        3.02818135      -0.37541621       1.02476570
H        3.36744123       0.42218155      -0.54393715
H        3.41913141      -1.35509078      -0.41328877
H       -0.00045693      -0.29814397       1.48952059
H        0.50019311       2.24272710      -0.43971052
H       -0.10716931       0.95652320      -1.54622783
H       -2.20432062       1.43943130      -0.34350743
H       -1.30252480       1.84851346       1.12736164
H       -1.82329456      -0.43875010       1.60415108
H       -2.84711003      -1.13304667      -0.48071314
H       -1.32782455      -1.13935422      -1.33267735
H       -1.59176184      -2.29642838      -0.03841743
19
Frame=16 idx=008406 GeodesicLength=1.2243991170217143 rxn_smarts="[C:1]([O:2][C@@:3]1([H:11])[C:4]([H:12])([H:13])[C:5]([H:14])([H:15])[C@:6]1([C:7]([H:17])([H:18])[H:19])[H:16])([H:8])([H:9])[H:10]>>[C:1]([O+:2]=[C-:3][C:4]([C:5]([C:6]([C:7]([H:17])([H:18])[H:19])([H:11])[H:16])([H:14])[H:15])([H:12])[H:13])([H:8])([H:9])[H:10]"
C        2.93527118      -0.42569560      -0.06874844
O        1.57114940      -0.58139364      -0.42107748
C        0.73541941       0.18503066       0.29747618
C        0.01847177       1.25330042      -0.49462472
C       -1.31708041       1.18234905       0.26098615
C       -1.23952666      -0.29565059       0.69369157
C       -1.79566327      -1.25904180      -0.35052177
H        3.05354352      -0.26924160       1.00690430
H        3.35330747       0.42105165      -0.62028254
H        3.44738028      -1.34059657      -0.36467982
H       -0.02484181      -0.33234682       1.51749313
H        0.52868865       2.21654256      -0.41628952
H       -0.08581302       0.94421543      -1.53875233
H       -2.18554354       1.44402309      -0.34475615
H       -1.28681190       1.83859729       1.13250614
H       -1.84838672      -0.43983927       1.59323706
H       -2.87077589      -1.11097292      -0.48379702
H       -1.35779718      -1.13372443      -1.34269338
H       -1.63099129      -2.29660690      -0.05607136
