10
Frame=0 idx=001082 GeodesicLength=0.0 rxn_smarts="[N:1]([C:2](=[O:3])[N:4]([C:5](=[O:6])[H:10])[H:9])([H:7])[H:8]>>[H:9][H:10].[N:1]([C:2](=[O:3])[N:4]=[C:5]=[O:6])([H:7])[H:8]"
N        1.87979306      -0.06797649       0.17932168
C        0.63232757       0.03332444       0.69522764
O        0.37591835       0.14948069       1.86626888
N       -0.34665508      -0.01518780      -0.33714175
C       -1.63323465       0.07175168      -0.08146960
O       -2.52330771       0.18578355       0.65598153
H        2.65746935      -0.05292023       0.81150278
H        2.03082067      -0.17074399      -0.80540803
H       -1.04176686      -0.09217837      -1.50049798
H       -2.03136468      -0.04133348      -1.48378516
10
Frame=1 idx=001082 GeodesicLength=0.06641213592096612 rxn_smarts="[N:1]([C:2](=[O:3])[N:4]([C:5](=[O:6])[H:10])[H:9])([H:7])[H:8]>>[H:9][H:10].[N:1]([C:2](=[O:3])[N:4]=[C:5]=[O:6])([H:7])[H:8]"
N        1.87736076      -0.08225137       0.17821019
C        0.63297692       0.03910192       0.69749961
O        0.38314598       0.19459779       1.86546841
N       -0.35470598      -0.07501234      -0.31989846
C       -1.63534753       0.08433461      -0.07432119
O       -2.53435305       0.14312445       0.66017172
H        2.65798768      -0.04937459       0.80616982
H        2.02489038      -0.17457823      -0.80815515
H       -1.02551258      -0.08809228      -1.51141012
H       -2.02644259       0.00815004      -1.49373483
10
Frame=2 idx=001082 GeodesicLength=0.13324488597417117 rxn_smarts="[N:1]([C:2](=[O:3])[N:4]([C:5](=[O:6])[H:10])[H:9])([H:7])[H:8]>>[H:9][H:10].[N:1]([C:2](=[O:3])[N:4]=[C:5]=[O:6])([H:7])[H:8]"
N        1.87386442      -0.09428486       0.17607426
C        0.63323801       0.04918464       0.69887570
O        0.39135590       0.24032120       1.86322800
N       -0.36342000      -0.11601074      -0.30137846
C       -1.63828882       0.08920383      -0.06418284
O       -2.54839352       0.08853894       0.66040109
H        2.65821527      -0.03943804       0.79785291
H        2.01585539      -0.20195134      -0.80954173
H       -1.00531203      -0.07470289      -1.51992495
H       -2.01711462       0.05913926      -1.50140399
10
Frame=3 idx=001082 GeodesicLength=0.20067086815224933 rxn_smarts="[N:1]([C:2](=[O:3])[N:4]([C:5](=[O:6])[H:10])[H:9])([H:7])[H:8]>>[H:9][H:10].[N:1]([C:2](=[O:3])[N:4]=[C:5]=[O:6])([H:7])[H:8]"
N        1.87010279      -0.10697702       0.17412927
C        0.63311131       0.05485945       0.70047955
O        0.39967885       0.28418292       1.85968795
N       -0.37202442      -0.14592430      -0.28352178
C       -1.64188729       0.09067145      -0.05251865
O       -2.56288355       0.03684228       0.65776346
H        2.65827276      -0.02923489       0.78864827
H        2.00659860      -0.22732352      -0.81084550
H       -0.98499982      -0.06726512      -1.52710922
H       -2.00596921       0.11016876      -1.50671337
10
Frame=4 idx=001082 GeodesicLength=0.26827518406909234 rxn_smarts="[N:1]([C:2](=[O:3])[N:4]([C:5](=[O:6])[H:10])[H:9])([H:7])[H:8]>>[H:9][H:10].[N:1]([C:2](=[O:3])[N:4]=[C:5]=[O:6])([H:7])[H:8]"
N        1.86638780      -0.11884679       0.17258087
C        0.63309179       0.06467989       0.70084089
O        0.40779367       0.32574592       1.85497480
N       -0.37994376      -0.16603048      -0.26726702
C       -1.64617598       0.08920225      -0.03981787
O       -2.57678329      -0.01622497       0.65360795
H        2.65808056      -0.02144200       0.77978267
H        1.99774207      -0.25586531      -0.81094725
H       -0.96542464      -0.06039930      -1.53429260
H       -1.99476821       0.15918078      -1.50946245
10
Frame=5 idx=001082 GeodesicLength=0.3362508924225034 rxn_smarts="[N:1]([C:2](=[O:3])[N:4]([C:5](=[O:6])[H:10])[H:9])([H:7])[H:8]>>[H:9][H:10].[N:1]([C:2](=[O:3])[N:4]=[C:5]=[O:6])([H:7])[H:8]"
N        1.86256216      -0.13197950       0.17162454
C        0.63282929       0.07083163       0.70146494
O        0.41604545       0.37324475       1.84714523
N       -0.38766178      -0.18260436      -0.25185360
C       -1.65114364       0.08366042      -0.02562543
O       -2.59096522      -0.07463439       0.64666688
H        2.65789033      -0.01021359       0.76968728
H        1.98864478      -0.29154504      -0.80923410
H       -0.94544590      -0.04819524      -1.54107753
H       -1.98275548       0.21143532      -1.50879821
10
Frame=6 idx=001082 GeodesicLength=0.40442712211804704 rxn_smarts="[N:1]([C:2](=[O:3])[N:4]([C:5](=[O:6])[H:10])[H:9])([H:7])[H:8]>>[H:9][H:10].[N:1]([C:2](=[O:3])[N:4]=[C:5]=[O:6])([H:7])[H:8]"
N        1.85865696      -0.14644725       0.17169886
C        0.63258046       0.07944692       0.70105485
O        0.42412740       0.42138538       1.83716362
N       -0.39485990      -0.19437921      -0.23789352
C       -1.65662313       0.07598056      -0.01065869
O       -2.60384159      -0.13576541       0.63785812
H        2.65752089       0.00097117       0.75927469
H        1.97977487      -0.33098983      -0.80543849
H       -0.92581227      -0.03290211      -1.54802827
H       -1.97152369       0.26269978      -1.50503118
10
Frame=7 idx=001082 GeodesicLength=0.47283950673310526 rxn_smarts="[N:1]([C:2](=[O:3])[N:4]([C:5](=[O:6])[H:10])[H:9])([H:7])[H:8]>>[H:9][H:10].[N:1]([C:2](=[O:3])[N:4]=[C:5]=[O:6])([H:7])[H:8]"
N        1.85464528      -0.15934897       0.17166479
C        0.63204275       0.08428804       0.70155019
O        0.43224801       0.46940797       1.82536381
N       -0.40214401      -0.20544904      -0.22394480
C       -1.66226517       0.06796100       0.00511062
O       -2.61646481      -0.19337505       0.62656780
H        2.65693120       0.01025096       0.74857809
H        1.97066243      -0.36650310      -0.80159379
H       -0.90577558      -0.01878285      -1.55445479
H       -1.95988010       0.31155105      -1.49884193
10
Frame=8 idx=001082 GeodesicLength=0.5411687724296144 rxn_smarts="[N:1]([C:2](=[O:3])[N:4]([C:5](=[O:6])[H:10])[H:9])([H:7])[H:8]>>[H:9][H:10].[N:1]([C:2](=[O:3])[N:4]=[C:5]=[O:6])([H:7])[H:8]"
N        1.85050403      -0.17153962       0.17185735
C        0.63150474       0.09102041       0.70139965
O        0.44017654       0.51319413       1.81336809
N       -0.40930850      -0.21409629      -0.21046264
C       -1.66802344       0.06073059       0.02123008
O       -2.62776117      -0.24665614       0.61436505
H        2.65606142       0.01615896       0.73861298
H        1.96171632      -0.39733211      -0.79786133
H       -0.88578218      -0.00673026      -1.56107403
H       -1.94908777       0.35525033      -1.49143521
10
Frame=9 idx=001082 GeodesicLength=0.6097344764485547 rxn_smarts="[N:1]([C:2](=[O:3])[N:4]([C:5](=[O:6])[H:10])[H:9])([H:7])[H:8]>>[H:9][H:10].[N:1]([C:2](=[O:3])[N:4]=[C:5]=[O:6])([H:7])[H:8]"
N        1.84618506      -0.18340681       0.17212550
C        0.63067438       0.09457426       0.70221767
O        0.44831729       0.56066964       1.79808076
N       -0.41652370      -0.22242961      -0.19704047
C       -1.67403801       0.05193198       0.03836776
O       -2.63879789      -0.29970541       0.59997216
H        2.65492834       0.01935712       0.72914896
H        1.95260674      -0.42560488      -0.79421050
H       -0.86520877       0.00617860      -1.56719749
H       -1.93814344       0.39843510      -1.48146434
10
Frame=10 idx=001082 GeodesicLength=0.6782298007011794 rxn_smarts="[N:1]([C:2](=[O:3])[N:4]([C:5](=[O:6])[H:10])[H:9])([H:7])[H:8]>>[H:9][H:10].[N:1]([C:2](=[O:3])[N:4]=[C:5]=[O:6])([H:7])[H:8]"
N        1.84174319      -0.19512408       0.17285471
C        0.62987792       0.10088089       0.70195149
O        0.45620625       0.60549778       1.78211282
N       -0.42353597      -0.22844105      -0.18439550
C       -1.68019663       0.04286691       0.05595254
O       -2.64821680      -0.35147268       0.58481304
H        2.65359556       0.02132757       0.72021138
H        1.94361352      -0.45387660      -0.78972370
H       -0.84457619       0.01957298      -1.57368523
H       -1.92851086       0.43876827      -1.47009155
10
Frame=11 idx=001082 GeodesicLength=0.7469920957806269 rxn_smarts="[N:1]([C:2](=[O:3])[N:4]([C:5](=[O:6])[H:10])[H:9])([H:7])[H:8]>>[H:9][H:10].[N:1]([C:2](=[O:3])[N:4]=[C:5]=[O:6])([H:7])[H:8]"
N        1.83708899      -0.20729874       0.17409683
C        0.62884061       0.10562563       0.70218635
O        0.46422433       0.65410150       1.76227796
N       -0.43047642      -0.23381924      -0.17214160
C       -1.68656882       0.03172468       0.07457568
O       -2.65679582      -0.40492326       0.56726612
H        2.65204415       0.02243194       0.71142477
H        1.93439050      -0.48316073      -0.78424278
H       -0.82347306       0.03542718      -1.57977324
H       -1.91927447       0.47989105      -1.45567010
10
Frame=12 idx=001082 GeodesicLength=0.8158774504166597 rxn_smarts="[N:1]([C:2](=[O:3])[N:4]([C:5](=[O:6])[H:10])[H:9])([H:7])[H:8]>>[H:9][H:10].[N:1]([C:2](=[O:3])[N:4]=[C:5]=[O:6])([H:7])[H:8]"
N        1.83224961      -0.21982689       0.17603232
C        0.62768392       0.11117808       0.70199631
O        0.47208455       0.70314874       1.73992007
N       -0.43725113      -0.23787846      -0.16061275
C       -1.69303002       0.01909566       0.09391508
O       -2.66384772      -0.45908708       0.54793092
H        2.65030997       0.02392210       0.70244728
H        1.92497118      -0.51487925      -0.77708406
H       -0.80205867       0.05359538      -1.58583895
H       -1.91111169       0.52073171      -1.43870622
10
Frame=13 idx=001082 GeodesicLength=0.8849236708954072 rxn_smarts="[N:1]([C:2](=[O:3])[N:4]([C:5](=[O:6])[H:10])[H:9])([H:7])[H:8]>>[H:9][H:10].[N:1]([C:2](=[O:3])[N:4]=[C:5]=[O:6])([H:7])[H:8]"
N        1.82720238      -0.23272159       0.17872718
C        0.62635803       0.11714523       0.70150784
O        0.47973398       0.75270568       1.71478587
N       -0.44388246      -0.24096541      -0.14978589
C       -1.69949829       0.00479408       0.11395273
O       -2.66934755      -0.51380914       0.52662523
H        2.64839027       0.02636954       0.69290062
H        1.91522637      -0.54937420      -0.76793799
H       -0.78023586       0.07419581      -1.59179773
H       -1.90394687       0.56165999      -1.41897785
10
Frame=14 idx=001082 GeodesicLength=0.9542514956929612 rxn_smarts="[N:1]([C:2](=[O:3])[N:4]([C:5](=[O:6])[H:10])[H:9])([H:7])[H:8]>>[H:9][H:10].[N:1]([C:2](=[O:3])[N:4]=[C:5]=[O:6])([H:7])[H:8]"
N        1.82190183      -0.24566089       0.18196203
C        0.62477350       0.12240187       0.70134429
O        0.48728371       0.80413530       1.68563420
N       -0.45045523      -0.24380625      -0.13930564
C       -1.70590173      -0.01149042       0.13495780
O       -2.67364377      -0.56894111       0.50266704
H        2.64622767       0.02876128       0.68308808
H        1.90505891      -0.58528383      -0.75720668
H       -0.75791953       0.09672531      -1.59726718
H       -1.89732535       0.60315873      -1.39587393
10
Frame=15 idx=001082 GeodesicLength=1.0234174346243137 rxn_smarts="[N:1]([C:2](=[O:3])[N:4]([C:5](=[O:6])[H:10])[H:9])([H:7])[H:8]>>[H:9][H:10].[N:1]([C:2](=[O:3])[N:4]=[C:5]=[O:6])([H:7])[H:8]"
N        1.81643509      -0.25817607       0.18561791
C        0.62304994       0.12866497       0.70052522
O        0.49425930       0.85150222       1.65641176
N       -0.45702850      -0.24577836      -0.12940064
C       -1.71209584      -0.02791948       0.15621713
O       -2.67650509      -0.62058552       0.47842627
H        2.64383874       0.03199630       0.67270307
H        1.89471186      -0.62066754      -0.74544799
H       -0.73493176       0.11882037      -1.60316179
H       -1.89173373       0.64214310      -1.37189094
10
Frame=16 idx=001082 GeodesicLength=1.092641214312759 rxn_smarts="[N:1]([C:2](=[O:3])[N:4]([C:5](=[O:6])[H:10])[H:9])([H:7])[H:8]>>[H:9][H:10].[N:1]([C:2](=[O:3])[N:4]=[C:5]=[O:6])([H:7])[H:8]"
N        1.81078511      -0.27017983       0.18953231
C        0.62111969       0.13480167       0.69967948
O        0.50083532       0.89742601       1.62546919
N       -0.46364034      -0.24736624      -0.11983269
C       -1.71807136      -0.04520575       0.17813733
O       -2.67829025      -0.66996086       0.45300310
H        2.64120486       0.03519922       0.66207200
H        1.88411501      -0.65547004      -0.73280148
H       -0.71121709       0.14091012      -1.60911507
H       -1.88684095       0.67984569      -1.34614417
