13
Frame=0 idx=008355 GeodesicLength=0.0 rxn_smarts="[C:1](#[C:2][C:3]1=[C:4]([H:9])[C:5]([H:10])([H:11])[O:6][C:7]1([H:12])[H:13])[H:8]>>[C:1](#[C:2][C:3]#[C:4][C:5]([H:9])([H:10])[H:11])[H:8].[O:6]=[C:7]([H:12])[H:13]"
C        3.19018929      -0.28420113       0.45116615
C        2.02143145      -0.06167948       0.27420239
C        0.65915549       0.08937139       0.07896661
C       -0.26149293       0.93134370      -0.11527444
C       -1.59981181       1.21642462      -0.31756269
O       -1.95572478      -1.02381021      -0.17015927
C       -0.85206328      -1.55338612       0.01868559
H        4.22707533      -0.46516845       0.60781134
H       -0.39824686       2.14383403      -0.23735045
H       -2.21616980       1.52366405       0.51935239
H       -1.97069132       1.36673230      -1.32486495
H       -0.30242080      -2.01965365      -0.81200658
H       -0.54123001      -1.86347110       1.02703391
13
Frame=1 idx=008355 GeodesicLength=0.04899821425444346 rxn_smarts="[C:1](#[C:2][C:3]1=[C:4]([H:9])[C:5]([H:10])([H:11])[O:6][C:7]1([H:12])[H:13])[H:8]>>[C:1](#[C:2][C:3]#[C:4][C:5]([H:9])([H:10])[H:11])[H:8].[O:6]=[C:7]([H:12])[H:13]"
C        3.18925615      -0.29188176       0.44624981
C        2.02176789      -0.05782436       0.27714279
C        0.65968922       0.09549302       0.07522891
C       -0.25220183       0.94361878      -0.13137943
C       -1.60009140       1.21136259      -0.32430111
O       -1.94737722      -1.01615567      -0.17596315
C       -0.84025057      -1.54377712       0.02395000
H        4.22286614      -0.49067288       0.60385478
H       -0.42263136       2.16473775      -0.21852245
H       -2.22273778       1.49224474       0.51760743
H       -1.97151179       1.37351038      -1.33007178
H       -0.29453575      -2.02650609      -0.79986979
H       -0.54224169      -1.85414940       1.03607399
13
Frame=2 idx=008355 GeodesicLength=0.09797840778235684 rxn_smarts="[C:1](#[C:2][C:3]1=[C:4]([H:9])[C:5]([H:10])([H:11])[O:6][C:7]1([H:12])[H:13])[H:8]>>[C:1](#[C:2][C:3]#[C:4][C:5]([H:9])([H:10])[H:11])[H:8].[O:6]=[C:7]([H:12])[H:13]"
C        3.18666437      -0.30065634       0.45049471
C        2.02132394      -0.05531730       0.28367982
C        0.65972602       0.10132287       0.07430382
C       -0.24287908       0.95585883      -0.14508062
C       -1.59964915       1.20632520      -0.33177892
O       -1.93926070      -1.00849421      -0.18284495
C       -0.82899213      -1.53429625       0.02910440
H        4.22062768      -0.51241346       0.58684790
H       -0.44672505       2.18394066      -0.19893200
H       -2.22952820       1.46215759       0.51314358
H       -1.96980739       1.37997438      -1.33661136
H       -0.28637725      -2.03278235      -0.78733188
H       -0.54512305      -1.84561963       1.04500550
13
Frame=3 idx=008355 GeodesicLength=0.14691866133046094 rxn_smarts="[C:1](#[C:2][C:3]1=[C:4]([H:9])[C:5]([H:10])([H:11])[O:6][C:7]1([H:12])[H:13])[H:8]>>[C:1](#[C:2][C:3]#[C:4][C:5]([H:9])([H:10])[H:11])[H:8].[O:6]=[C:7]([H:12])[H:13]"
C        3.18534113      -0.30884489       0.44530122
C        2.02136315      -0.05320105       0.28589238
C        0.65967918       0.10755259       0.07338364
C       -0.23385917       0.96845794      -0.15720976
C       -1.59925675       1.20128068      -0.33854559
O       -1.93127064      -1.00091065      -0.18765878
C       -0.81748778      -1.52475693       0.03436683
H        4.21640911      -0.53476596       0.58093379
H       -0.47133065       2.20191324      -0.17998581
H       -2.23591217       1.43356965       0.50853442
H       -1.96823501       1.38549074      -1.34246546
H       -0.27897263      -2.03779165      -0.77575929
H       -0.54646776      -1.83799370       1.05321241
13
Frame=4 idx=008355 GeodesicLength=0.19593247426456692 rxn_smarts="[C:1](#[C:2][C:3]1=[C:4]([H:9])[C:5]([H:10])([H:11])[O:6][C:7]1([H:12])[H:13])[H:8]>>[C:1](#[C:2][C:3]#[C:4][C:5]([H:9])([H:10])[H:11])[H:8].[O:6]=[C:7]([H:12])[H:13]"
C        3.18328400      -0.31756230       0.44449697
C        2.02121019      -0.05291129       0.28704793
C        0.65986710       0.11262647       0.06975476
C       -0.22465683       0.98051873      -0.16842004
C       -1.59826646       1.19639662      -0.34476089
O       -1.92341525      -0.99337670      -0.19528890
C       -0.80681371      -1.51548160       0.03927583
H        4.21339826      -0.55250722       0.57189014
H       -0.49533603       2.21812660      -0.16020345
H       -2.24112347       1.40510799       0.50419903
H       -1.96611571       1.39248593      -1.34737374
H       -0.27201646      -2.04513430      -0.76256664
H       -0.55001565      -1.82828893       1.06194902
13
Frame=5 idx=008355 GeodesicLength=0.24473328456213875 rxn_smarts="[C:1](#[C:2][C:3]1=[C:4]([H:9])[C:5]([H:10])([H:11])[O:6][C:7]1([H:12])[H:13])[H:8]>>[C:1](#[C:2][C:3]#[C:4][C:5]([H:9])([H:10])[H:11])[H:8].[O:6]=[C:7]([H:12])[H:13]"
C        3.18144291      -0.32574644       0.44221994
C        2.02102280      -0.05247457       0.28878413
C        0.65962186       0.11833583       0.06952419
C       -0.21584437       0.99307365      -0.17656910
C       -1.59715068       1.19143349      -0.35142263
O       -1.91557617      -0.98583726      -0.20109828
C       -0.79594052      -1.50614800       0.04445088
H        4.21005697      -0.57145309       0.56133979
H       -0.52010074       2.23339237      -0.14074225
H       -2.24742894       1.37841452       0.49734573
H       -1.96214796       1.39775645      -1.35353931
H       -0.26500732      -2.05015116      -0.75028055
H       -0.55294784      -1.82059579       1.06998745
13
Frame=6 idx=008355 GeodesicLength=0.2934029320431706 rxn_smarts="[C:1](#[C:2][C:3]1=[C:4]([H:9])[C:5]([H:10])([H:11])[O:6][C:7]1([H:12])[H:13])[H:8]>>[C:1](#[C:2][C:3]#[C:4][C:5]([H:9])([H:10])[H:11])[H:8].[O:6]=[C:7]([H:12])[H:13]"
C        3.17965808      -0.33324502       0.44044810
C        2.02082796      -0.05279383       0.28928712
C        0.65963501       0.12351884       0.06668321
C       -0.20704809       1.00544153      -0.18469863
C       -1.59588707       1.18658627      -0.35729780
O       -1.90839334      -0.97818323      -0.20464437
C       -0.78528781      -1.49702495       0.04917517
H        4.20639090      -0.58910755       0.55446766
H       -0.54445665       2.24749224      -0.12322907
H       -2.25222129       1.35339100       0.49142349
H       -1.95911768       1.40242766      -1.35856680
H       -0.26011326      -2.05481901      -0.73981327
H       -0.55398676      -1.81368395       1.07676518
13
Frame=7 idx=008355 GeodesicLength=0.34179520465507496 rxn_smarts="[C:1](#[C:2][C:3]1=[C:4]([H:9])[C:5]([H:10])([H:11])[O:6][C:7]1([H:12])[H:13])[H:8]>>[C:1](#[C:2][C:3]#[C:4][C:5]([H:9])([H:10])[H:11])[H:8].[O:6]=[C:7]([H:12])[H:13]"
C        3.17745226      -0.34114016       0.44118218
C        2.02020010      -0.05505006       0.28987714
C        0.65971712       0.12730458       0.06187790
C       -0.19796231       1.01687975      -0.19326718
C       -1.59413614       1.18198539      -0.36233794
O       -1.90305059      -0.96969835      -0.20205566
C       -0.77557165      -1.48846918       0.05316565
H        4.20359852      -0.60119604       0.55110895
H       -0.56694815       2.26032745      -0.11002261
H       -2.25464889       1.33216584       0.48666391
H       -1.95702696       1.40522784      -1.36263256
H       -0.26015205      -2.05756340      -0.73419928
H       -0.55147127      -1.81077366       1.08063951
13
Frame=8 idx=008355 GeodesicLength=0.3901225538891543 rxn_smarts="[C:1](#[C:2][C:3]1=[C:4]([H:9])[C:5]([H:10])([H:11])[O:6][C:7]1([H:12])[H:13])[H:8]>>[C:1](#[C:2][C:3]#[C:4][C:5]([H:9])([H:10])[H:11])[H:8].[O:6]=[C:7]([H:12])[H:13]"
C        3.17507375      -0.34903396       0.44309779
C        2.01938968      -0.05807651       0.29052805
C        0.65971641       0.13064230       0.05700447
C       -0.18887802       1.02798315      -0.20132997
C       -1.59217344       1.17747980      -0.36698692
O       -1.89863611      -0.96081322      -0.19575919
C       -0.76617229      -1.48022883       0.05679840
H        4.20110408      -0.61121706       0.54918338
H       -0.58878099       2.27246774      -0.09944819
H       -2.25620691       1.31349027       0.48208826
H       -1.95506646       1.40647110      -1.36651885
H       -0.26259492      -2.05866019      -0.73145254
H       -0.54677478      -1.81050460       1.08279530
13
Frame=9 idx=008355 GeodesicLength=0.43850570412068146 rxn_smarts="[C:1](#[C:2][C:3]1=[C:4]([H:9])[C:5]([H:10])([H:11])[O:6][C:7]1([H:12])[H:13])[H:8]>>[C:1](#[C:2][C:3]#[C:4][C:5]([H:9])([H:10])[H:11])[H:8].[O:6]=[C:7]([H:12])[H:13]"
C        3.17292260      -0.35695952       0.44355881
C        2.01857328      -0.06117324       0.29157915
C        0.65964433       0.13413537       0.05332026
C       -0.18003293       1.03942895      -0.20651873
C       -1.58995839       1.17297437      -0.37204198
O       -1.89317029      -0.95266679      -0.19576729
C       -0.75683585      -1.47193692       0.06083399
H        4.19907334      -0.62161356       0.54231934
H       -0.61178933       2.28386004      -0.08524383
H       -2.25932873       1.29310700       0.47567662
H       -1.95072680       1.40958993      -1.37111199
H       -0.26170519      -2.06220685      -0.72401686
H       -0.54666606      -1.80653877       1.08741252
13
Frame=10 idx=008355 GeodesicLength=0.48692260801208553 rxn_smarts="[C:1](#[C:2][C:3]1=[C:4]([H:9])[C:5]([H:10])([H:11])[O:6][C:7]1([H:12])[H:13])[H:8]>>[C:1](#[C:2][C:3]#[C:4][C:5]([H:9])([H:10])[H:11])[H:8].[O:6]=[C:7]([H:12])[H:13]"
C        3.17099555      -0.36438659       0.44269506
C        2.01779254      -0.06371994       0.29298363
C        0.65950430       0.13813412       0.05078277
C       -0.17152518       1.05127634      -0.20960336
C       -1.58769396       1.16842663      -0.37728616
O       -1.88706327      -0.94499375      -0.19817166
C       -0.74719604      -1.46356583       0.06511653
H        4.19665646      -0.63390439       0.53332573
H       -0.63590837       2.29471556      -0.06986677
H       -2.26341568       1.27236173       0.46797419
H       -1.94509906       1.41303624      -1.37618800
H       -0.25898223      -2.06617320      -0.71471381
H       -0.54806506      -1.80120691       1.09295185
13
Frame=11 idx=008355 GeodesicLength=0.5352748983373474 rxn_smarts="[C:1](#[C:2][C:3]1=[C:4]([H:9])[C:5]([H:10])([H:11])[O:6][C:7]1([H:12])[H:13])[H:8]>>[C:1](#[C:2][C:3]#[C:4][C:5]([H:9])([H:10])[H:11])[H:8].[O:6]=[C:7]([H:12])[H:13]"
C        3.16902176      -0.37159068       0.44252530
C        2.01695672      -0.06689382       0.29361395
C        0.65952842       0.14165128       0.04664636
C       -0.16299903       1.06285914      -0.21260367
C       -1.58528300       1.16399788      -0.38200386
O       -1.88137753      -0.93723039      -0.19949416
C       -0.73778192      -1.45541674       0.06904873
H        4.19431977      -0.64482446       0.52613593
H       -0.65967663       2.30483779      -0.05568272
H       -2.26658804       1.25272083       0.46095388
H       -1.93994496       1.41623269      -1.38053804
H       -0.25757910      -2.07009230      -0.70637132
H       -0.54859647      -1.79625121       1.09776960
13
Frame=12 idx=008355 GeodesicLength=0.5836731428567369 rxn_smarts="[C:1](#[C:2][C:3]1=[C:4]([H:9])[C:5]([H:10])([H:11])[O:6][C:7]1([H:12])[H:13])[H:8]>>[C:1](#[C:2][C:3]#[C:4][C:5]([H:9])([H:10])[H:11])[H:8].[O:6]=[C:7]([H:12])[H:13]"
C        3.16738744      -0.37793286       0.44095621
C        2.01627696      -0.06928467       0.29421146
C        0.65945991       0.14584314       0.04398334
C       -0.15485940       1.07490870      -0.21349001
C       -1.58286352       1.15950957      -0.38693791
O       -1.87499039      -0.92996154      -0.20295545
C       -0.72796306      -1.44714477       0.07329864
H        4.19131886      -0.65847949       0.51707641
H       -0.68476012       2.31449780      -0.04049111
H       -2.27078856       1.23267685       0.45258736
H       -1.93355495       1.41961906      -1.38541316
H       -0.25423109      -2.07413184      -0.69627724
H       -0.55043206      -1.79011995       1.10345145
13
Frame=13 idx=008355 GeodesicLength=0.631963411183215 rxn_smarts="[C:1](#[C:2][C:3]1=[C:4]([H:9])[C:5]([H:10])([H:11])[O:6][C:7]1([H:12])[H:13])[H:8]>>[C:1](#[C:2][C:3]#[C:4][C:5]([H:9])([H:10])[H:11])[H:8].[O:6]=[C:7]([H:12])[H:13]"
C        3.16568531      -0.38417333       0.44019675
C        2.01544801      -0.07240744       0.29464636
C        0.65944183       0.14952098       0.04047302
C       -0.14665866       1.08659011      -0.21427699
C       -1.58024257       1.15514800      -0.39143180
O       -1.86924477      -0.92245683      -0.20442355
C       -0.71846048      -1.43915426       0.07721414
H        4.18859091      -0.67032047       0.50942718
H       -0.70932080       2.32356587      -0.02703292
H       -2.27411394       1.21418000       0.44476372
H       -1.92746661       1.42233030      -1.38981031
H       -0.25259994      -2.07755811      -0.68783203
H       -0.55105827      -1.78526482       1.10808645
13
Frame=14 idx=008355 GeodesicLength=0.6802537307450025 rxn_smarts="[C:1](#[C:2][C:3]1=[C:4]([H:9])[C:5]([H:10])([H:11])[O:6][C:7]1([H:12])[H:13])[H:8]>>[C:1](#[C:2][C:3]#[C:4][C:5]([H:9])([H:10])[H:11])[H:8].[O:6]=[C:7]([H:12])[H:13]"
C        3.16413323      -0.39001708       0.43884426
C        2.01463099      -0.07523121       0.29542304
C        0.65933302       0.15352104       0.03812893
C       -0.13868615       1.09845702      -0.21349026
C       -1.57749919       1.15078570      -0.39601035
O       -1.86324121      -0.91519564      -0.20664171
C       -0.70880811      -1.43117224       0.08129827
H        4.18554948      -0.68323095       0.50032959
H       -0.73463338       2.33220532      -0.01355445
H       -2.27793386       1.19592764       0.43603728
H       -1.92043269       1.42488352      -1.39456661
H       -0.25014242      -2.08072228      -0.67876856
H       -0.55226972      -1.78021084       1.11297057
13
Frame=15 idx=008355 GeodesicLength=0.7284161347750869 rxn_smarts="[C:1](#[C:2][C:3]1=[C:4]([H:9])[C:5]([H:10])([H:11])[O:6][C:7]1([H:12])[H:13])[H:8]>>[C:1](#[C:2][C:3]#[C:4][C:5]([H:9])([H:10])[H:11])[H:8].[O:6]=[C:7]([H:12])[H:13]"
C        3.16229477      -0.39668483       0.43857512
C        2.01356443      -0.07949264       0.29575939
C        0.65921964       0.15656829       0.03472654
C       -0.13046747       1.10960816      -0.21316061
C       -1.57446758       1.14663404      -0.39996818
O       -1.85842586      -0.90738290      -0.20547441
C       -0.69981435      -1.42364494       0.08487694
H        4.18350521      -0.69193478       0.49384330
H       -0.75870162       2.34038968      -0.00264888
H       -2.28044560       1.17995742       0.42841073
H       -1.91395908       1.42643154      -1.39868261
H       -0.25061931      -2.08297882      -0.67249726
H       -0.55168317      -1.77747024       1.11623994
13
Frame=16 idx=008355 GeodesicLength=0.7765299590974006 rxn_smarts="[C:1](#[C:2][C:3]1=[C:4]([H:9])[C:5]([H:10])([H:11])[O:6][C:7]1([H:12])[H:13])[H:8]>>[C:1](#[C:2][C:3]#[C:4][C:5]([H:9])([H:10])[H:11])[H:8].[O:6]=[C:7]([H:12])[H:13]"
C        3.16030891      -0.40452460       0.43799775
C        2.01238693      -0.08470971       0.29603142
C        0.65894523       0.15916219       0.03223191
C       -0.12216097       1.12042292      -0.21172168
C       -1.57107894       1.14262557      -0.40382912
O       -1.85405005      -0.89944008      -0.20403298
C       -0.69134817      -1.41639110       0.08847620
H        4.18250391      -0.69756704       0.48693882
H       -0.78252919       2.34813689       0.00766211
H       -2.28289814       1.16497816       0.42038276
H       -1.90655930       1.42777176      -1.40295778
H       -0.25178329      -2.08501421      -0.66648321
H       -0.55173692      -1.77545075       1.11930379
