13
Frame=0 idx=004826 GeodesicLength=0.0 rxn_smarts="[C:1]([C@@:2]1([H:10])[N:3]([H:11])[C:4]([H:12])([H:13])[C:5]1=[O:6])([H:7])([H:8])[H:9]>>[C:1](/[C:2](=[N:3]/[H:11])[H:10])([H:7])([H:8])[H:9].[C:4](=[C:5]=[O:6])([H:12])[H:13]"
C       -1.81254114      -0.04268306       0.04703016
C       -0.37770313      -0.37815851       0.36155773
N        0.30475268      -1.14477645      -0.54492071
C        1.92826633       0.41635249      -0.07977487
C        0.61306078       0.82413795      -0.31348704
O        0.11705419       1.67726528      -0.99227009
H       -2.46421580      -0.83110003       0.42860752
H       -1.95033565       0.04331587      -1.02842959
H       -2.09132119       0.90253465       0.51213894
H       -0.16736443      -0.52327070       1.42369848
H        1.00876024      -1.73065165      -0.10757411
H        2.74741653       1.01933373      -0.46172331
H        2.14417054      -0.23229958       0.75514691
13
Frame=1 idx=004826 GeodesicLength=0.09809216761067249 rxn_smarts="[C:1]([C@@:2]1([H:10])[N:3]([H:11])[C:4]([H:12])([H:13])[C:5]1=[O:6])([H:7])([H:8])[H:9]>>[C:1](/[C:2](=[N:3]/[H:11])[H:10])([H:7])([H:8])[H:9].[C:4](=[C:5]=[O:6])([H:12])[H:13]"
C       -1.81837392      -0.05473726       0.03305692
C       -0.38556537      -0.37699028       0.37094898
N        0.32042383      -1.13452927      -0.52563813
C        1.93307180       0.41827706      -0.08748611
C        0.62077895       0.85609952      -0.28618540
O        0.12342678       1.74291925      -0.91733376
H       -2.47041338      -0.85541444       0.38868418
H       -1.93500747       0.04772631      -1.04380033
H       -2.11946388       0.87846676       0.50926260
H       -0.19782546      -0.53209225       1.43659854
H        0.99995036      -1.73898558      -0.07437286
H        2.75427569       0.93078584      -0.58076333
H        2.17472207      -0.18152566       0.77702870
13
Frame=2 idx=004826 GeodesicLength=0.19247183164812476 rxn_smarts="[C:1]([C@@:2]1([H:10])[N:3]([H:11])[C:4]([H:12])([H:13])[C:5]1=[O:6])([H:7])([H:8])[H:9]>>[C:1](/[C:2](=[N:3]/[H:11])[H:10])([H:7])([H:8])[H:9].[C:4](=[C:5]=[O:6])([H:12])[H:13]"
C       -1.82146064      -0.06571892       0.01871634
C       -0.39257244      -0.37599078       0.38045067
N        0.33498099      -1.12612713      -0.50474468
C        1.93665427       0.41966099      -0.09841939
C        0.62907618       0.88615576      -0.25983876
O        0.13148342       1.80385094      -0.84111694
H       -2.47374835      -0.87662295       0.34888880
H       -1.91717572       0.05187155      -1.05865259
H       -2.14315764       0.85591968       0.50395615
H       -0.22715038      -0.53962760       1.44881546
H        0.98969828      -1.74770254      -0.04113418
H        2.74433939       0.84396098      -0.68694944
H        2.20903263      -0.12962998       0.79002856
13
Frame=3 idx=004826 GeodesicLength=0.29006141476663266 rxn_smarts="[C:1]([C@@:2]1([H:10])[N:3]([H:11])[C:4]([H:12])([H:13])[C:5]1=[O:6])([H:7])([H:8])[H:9]>>[C:1](/[C:2](=[N:3]/[H:11])[H:10])([H:7])([H:8])[H:9].[C:4](=[C:5]=[O:6])([H:12])[H:13]"
C       -1.82415607      -0.07574877       0.00390410
C       -0.39961273      -0.37583733       0.39051157
N        0.34941192      -1.12058857      -0.48170604
C        1.94070655       0.42011624      -0.11310603
C        0.63833016       0.91493873      -0.23528619
O        0.14111158       1.86323026      -0.76285040
H       -2.47727549      -0.89601673       0.30913653
H       -1.89830393       0.05660698      -1.07373829
H       -2.16628104       0.83503709       0.49649388
H       -0.25688789      -0.54701657       1.46154742
H        0.97988379      -1.75837366      -0.00640626
H        2.72416963       0.76040512      -0.78329016
H        2.24890353      -0.07675280       0.79478987
13
Frame=4 idx=004826 GeodesicLength=0.38517152578772684 rxn_smarts="[C:1]([C@@:2]1([H:10])[N:3]([H:11])[C:4]([H:12])([H:13])[C:5]1=[O:6])([H:7])([H:8])[H:9]>>[C:1](/[C:2](=[N:3]/[H:11])[H:10])([H:7])([H:8])[H:9].[C:4](=[C:5]=[O:6])([H:12])[H:13]"
C       -1.82509405      -0.08504470      -0.01168552
C       -0.40641885      -0.37599831       0.40106297
N        0.36290172      -1.11642958      -0.45644916
C        1.94338612       0.41997492      -0.12996701
C        0.64824461       0.94217080      -0.21054844
O        0.15275945       1.91792013      -0.68218841
H       -2.47919704      -0.91301225       0.26861809
H       -1.87746580       0.06101659      -1.08882435
H       -2.18640905       0.81515686       0.48623156
H       -0.28671362      -0.55367012       1.47417524
H        0.96880501      -1.76909338       0.02981306
H        2.69207781       0.68069990      -0.87073643
H        2.29312371      -0.02369085       0.79049840
13
Frame=5 idx=004826 GeodesicLength=0.4819879840538723 rxn_smarts="[C:1]([C@@:2]1([H:10])[N:3]([H:11])[C:4]([H:12])([H:13])[C:5]1=[O:6])([H:7])([H:8])[H:9]>>[C:1](/[C:2](=[N:3]/[H:11])[H:10])([H:7])([H:8])[H:9].[C:4](=[C:5]=[O:6])([H:12])[H:13]"
C       -1.82544490      -0.09366891      -0.02780594
C       -0.41367004      -0.37711454       0.41221966
N        0.37598935      -1.11507884      -0.42888608
C        1.94529235       0.41854761      -0.14970703
C        0.65877874       0.96812674      -0.18707076
O        0.16630307       1.97036552      -0.59883267
H       -2.48108483      -0.92831198       0.22820604
H       -1.85500525       0.06517635      -1.10416309
H       -2.20561935       0.79713078       0.47351768
H       -0.31800194      -0.56026830       1.48726163
H        0.95759557      -1.78153047       0.06801272
H        2.65324781       0.60668433      -0.94987595
H        2.34161943       0.02994172       0.77712378
13
Frame=6 idx=004826 GeodesicLength=0.5784798972231444 rxn_smarts="[C:1]([C@@:2]1([H:10])[N:3]([H:11])[C:4]([H:12])([H:13])[C:5]1=[O:6])([H:7])([H:8])[H:9]>>[C:1](/[C:2](=[N:3]/[H:11])[H:10])([H:7])([H:8])[H:9].[C:4](=[C:5]=[O:6])([H:12])[H:13]"
C       -1.82489061      -0.10171430      -0.04486302
C       -0.42128575      -0.37882321       0.42426768
N        0.38892244      -1.11513733      -0.39856011
C        1.94598737       0.41676643      -0.17100095
C        0.67002485       0.99324905      -0.16258320
O        0.18194612       2.01876895      -0.51278963
H       -2.48242961      -0.94186701       0.18691048
H       -1.83058897       0.06902130      -1.11994089
H       -2.22347417       0.78036381       0.45772162
H       -0.35094105      -0.56694002       1.50088818
H        0.94613218      -1.79432753       0.10886735
H        2.60617762       0.53765376      -1.02294077
H        2.39441959       0.08298612       0.75402326
13
Frame=7 idx=004826 GeodesicLength=0.6749600660120074 rxn_smarts="[C:1]([C@@:2]1([H:10])[N:3]([H:11])[C:4]([H:12])([H:13])[C:5]1=[O:6])([H:7])([H:8])[H:9]>>[C:1](/[C:2](=[N:3]/[H:11])[H:10])([H:7])([H:8])[H:9].[C:4](=[C:5]=[O:6])([H:12])[H:13]"
C       -1.82322511      -0.10938557      -0.06278309
C       -0.42945936      -0.38133501       0.43706493
N        0.40134563      -1.11702522      -0.36545347
C        1.94488242       0.41417508      -0.19386689
C        0.68182431       1.01738542      -0.13775942
O        0.19992475       2.06389342      -0.42307559
H       -2.48309079      -0.95394830       0.14491361
H       -1.80379784       0.07204301      -1.13606276
H       -2.23964842       0.76507312       0.43900341
H       -0.38586663      -0.57360571       1.51476595
H        0.93416401      -1.80757557       0.15238511
H        2.55264553       0.47356421      -1.08990413
H        2.45030149       0.13674113       0.72077235
13
Frame=8 idx=004826 GeodesicLength=0.7719326914828609 rxn_smarts="[C:1]([C@@:2]1([H:10])[N:3]([H:11])[C:4]([H:12])([H:13])[C:5]1=[O:6])([H:7])([H:8])[H:9]>>[C:1](/[C:2](=[N:3]/[H:11])[H:10])([H:7])([H:8])[H:9].[C:4](=[C:5]=[O:6])([H:12])[H:13]"
C       -1.82059691      -0.11660649      -0.08186245
C       -0.43832887      -0.38460890       0.45106643
N        0.41409162      -1.12023360      -0.32893750
C        1.94223668       0.41145552      -0.21786499
C        0.69442695       1.04113703      -0.11087447
O        0.22012758       2.10523297      -0.33002935
H       -2.48317534      -0.96469991       0.10162781
H       -1.77422829       0.07461487      -1.15290031
H       -2.25479038       0.75125666       0.41685953
H       -0.42359915      -0.58081490       1.52944156
H        0.92247768      -1.82111414       0.19960961
H        2.49200577       0.41452409      -1.15246150
H        2.50935266       0.18985679       0.67632563
13
Frame=9 idx=004826 GeodesicLength=0.8681670288315627 rxn_smarts="[C:1]([C@@:2]1([H:10])[N:3]([H:11])[C:4]([H:12])([H:13])[C:5]1=[O:6])([H:7])([H:8])[H:9]>>[C:1](/[C:2](=[N:3]/[H:11])[H:10])([H:7])([H:8])[H:9].[C:4](=[C:5]=[O:6])([H:12])[H:13]"
C       -1.81633136      -0.12369097      -0.10211038
C       -0.44782386      -0.38863451       0.46588791
N        0.42634983      -1.12454383      -0.28894591
C        1.93704987       0.40821758      -0.24268423
C        0.70781475       1.06397208      -0.08265723
O        0.24325985       2.14259783      -0.23196197
H       -2.48202056      -0.97418666       0.05690081
H       -1.74142373       0.07590909      -1.17000382
H       -2.26752613       0.73866563       0.39123435
H       -0.46375779      -0.58800397       1.54393064
H        0.91022327      -1.83404807       0.25037187
H        2.42445844       0.35959763      -1.20974976
H        2.56972742       0.24414817       0.61978774
13
Frame=10 idx=004826 GeodesicLength=0.9646639221607968 rxn_smarts="[C:1]([C@@:2]1([H:10])[N:3]([H:11])[C:4]([H:12])([H:13])[C:5]1=[O:6])([H:7])([H:8])[H:9]>>[C:1](/[C:2](=[N:3]/[H:11])[H:10])([H:7])([H:8])[H:9].[C:4](=[C:5]=[O:6])([H:12])[H:13]"
C       -1.81054675      -0.13043900      -0.12367010
C       -0.45808683      -0.39352865       0.48199655
N        0.43911918      -1.12971772      -0.24504259
C        1.92970630       0.40506220      -0.26795727
C        0.72231005       1.08650219      -0.05137455
O        0.26900972       2.17565889      -0.13033553
H       -2.47970808      -0.98246183       0.01053180
H       -1.70490823       0.07642145      -1.18771125
H       -2.27848970       0.72766852       0.36183043
H       -0.50721057      -0.59603176       1.55886899
H        0.89844374      -1.84674513       0.30540668
H        2.34959422       0.30958164      -1.26269658
H        2.63076695       0.29802921       0.55015342
13
Frame=11 idx=004826 GeodesicLength=1.061270599093957 rxn_smarts="[C:1]([C@@:2]1([H:10])[N:3]([H:11])[C:4]([H:12])([H:13])[C:5]1=[O:6])([H:7])([H:8])[H:9]>>[C:1](/[C:2](=[N:3]/[H:11])[H:10])([H:7])([H:8])[H:9].[C:4](=[C:5]=[O:6])([H:12])[H:13]"
C       -1.80270513      -0.13690814      -0.14678190
C       -0.46906771      -0.39932130       0.49945587
N        0.45247235      -1.13555911      -0.19671902
C        1.91969480       0.40204256      -0.29349686
C        0.73821943       1.10854988      -0.01631142
O        0.29772054       2.20410481      -0.02442744
H       -2.47565444      -0.98953668      -0.03806273
H       -1.66388070       0.07597329      -1.20599816
H       -2.28700126       0.71829154       0.32825421
H       -0.55409741      -0.60484497       1.57400516
H        0.88718662      -1.85881365       0.36536100
H        2.26635046       0.26429507      -1.31120763
H        2.69076246       0.35172669       0.46592894
13
Frame=12 idx=004826 GeodesicLength=1.1580228051789268 rxn_smarts="[C:1]([C@@:2]1([H:10])[N:3]([H:11])[C:4]([H:12])([H:13])[C:5]1=[O:6])([H:7])([H:8])[H:9]>>[C:1](/[C:2](=[N:3]/[H:11])[H:10])([H:7])([H:8])[H:9].[C:4](=[C:5]=[O:6])([H:12])[H:13]"
C       -1.79243669      -0.14317721      -0.17111259
C       -0.48061376      -0.40606225       0.51784438
N        0.46631329      -1.14153517      -0.14454116
C        1.90691823       0.39923421      -0.31867615
C        0.75569222       1.13001894       0.02132502
O        0.32972990       2.22784860       0.08542279
H       -2.46939524      -0.99548403      -0.08830126
H       -1.61832649       0.07441203      -1.22435900
H       -2.29219207       0.71047236       0.29101587
H       -0.60394670      -0.61459218       1.58859147
H        0.87612134      -1.86999593       0.42924312
H        2.17581176       0.22276081      -1.35383252
H        2.74632423       0.40609983       0.36738001
13
Frame=13 idx=004826 GeodesicLength=1.2555500505392683 rxn_smarts="[C:1]([C@@:2]1([H:10])[N:3]([H:11])[C:4]([H:12])([H:13])[C:5]1=[O:6])([H:7])([H:8])[H:9]>>[C:1](/[C:2](=[N:3]/[H:11])[H:10])([H:7])([H:8])[H:9].[C:4](=[C:5]=[O:6])([H:12])[H:13]"
C       -1.77994465      -0.14936998      -0.19627461
C       -0.49258768      -0.41372218       0.53666595
N        0.48049515      -1.14729028      -0.08929099
C        1.89173379       0.39669324      -0.34249871
C        0.77494514       1.15104183       0.06032795
O        0.36557437       2.24684834       0.19836112
H       -2.46118561      -1.00048670      -0.13953595
H       -1.56910468       0.07126801      -1.24220404
H       -2.29377943       0.70433040       0.25066697
H       -0.65590615      -0.62512442       1.60179015
H        0.86499089      -1.88049266       0.49556000
H        2.07980877       0.18434794      -1.38870812
H        2.79496010       0.46195646       0.25514029
13
Frame=14 idx=004826 GeodesicLength=1.3529742203731863 rxn_smarts="[C:1]([C@@:2]1([H:10])[N:3]([H:11])[C:4]([H:12])([H:13])[C:5]1=[O:6])([H:7])([H:8])[H:9]>>[C:1](/[C:2](=[N:3]/[H:11])[H:10])([H:7])([H:8])[H:9].[C:4](=[C:5]=[O:6])([H:12])[H:13]"
C       -1.76465280      -0.15534355      -0.22172039
C       -0.50459360      -0.42209754       0.55555057
N        0.49503462      -1.15183918      -0.03204482
C        1.87432758       0.39459236      -0.36430644
C        0.79568798       1.17162192       0.09912094
O        0.40500763       2.26039530       0.31240011
H       -2.44995995      -1.00435309      -0.19069996
H       -1.51630437       0.06693713      -1.25916515
H       -2.29083657       0.69959702       0.20822500
H       -0.70900378      -0.63669694       1.61329382
H        0.85300392      -1.89028423       0.56248243
H        1.98014583       0.14831561      -1.41469409
H        2.83214350       0.51915519       0.13155799
13
Frame=15 idx=004826 GeodesicLength=1.4522601836546511 rxn_smarts="[C:1]([C@@:2]1([H:10])[N:3]([H:11])[C:4]([H:12])([H:13])[C:5]1=[O:6])([H:7])([H:8])[H:9]>>[C:1](/[C:2](=[N:3]/[H:11])[H:10])([H:7])([H:8])[H:9].[C:4](=[C:5]=[O:6])([H:12])[H:13]"
C       -1.74803373      -0.16128958      -0.24680423
C       -0.51667856      -0.43108968       0.57397148
N        0.50985269      -1.15533181       0.02581686
C        1.85655157       0.39296593      -0.38273046
C        0.81799636       1.19277410       0.13585692
O        0.44839527       2.26981088       0.42552724
H       -2.43747331      -1.00774905      -0.24060743
H       -1.46242032       0.06086711      -1.27483577
H       -2.28470994       0.69662373       0.16490064
H       -0.76216982      -0.64906361       1.62267162
H        0.84004664      -1.90090303       0.62734576
H        1.88148455       0.11405025      -1.43021156
H        2.85715859       0.57833476      -0.00090108
13
Frame=16 idx=004826 GeodesicLength=1.5508800504478881 rxn_smarts="[C:1]([C@@:2]1([H:10])[N:3]([H:11])[C:4]([H:12])([H:13])[C:5]1=[O:6])([H:7])([H:8])[H:9]>>[C:1](/[C:2](=[N:3]/[H:11])[H:10])([H:7])([H:8])[H:9].[C:4](=[C:5]=[O:6])([H:12])[H:13]"
C       -1.72868384      -0.16709052      -0.27150548
C       -0.52815776      -0.44003839       0.59183687
N        0.52469343      -1.15623317       0.08434189
C        1.83770266       0.39173990      -0.39787654
C        0.84118313       1.21411521       0.16952650
O        0.49584480       2.27301822       0.53775264
H       -2.42155543      -1.01009403      -0.28921617
H       -1.40661711       0.05329193      -1.28920492
H       -2.27366119       0.69454146       0.12075362
H       -0.81409808      -0.66164091       1.62982578
H        0.82482679      -1.91128625       0.68929169
H        1.78335382       0.08079387      -1.43543122
H        2.86516876       0.63888268      -0.14009466
