19
Frame=0 idx=011367 GeodesicLength=0.0 rxn_smarts="[C:1]([C:2]([C:3]([C:4]([C:5]([H:16])([H:17])[H:18])([H:14])[H:15])([C:6](=[O:7])[H:19])[H:13])([H:11])[H:12])([H:8])([H:9])[H:10]>>[C:1]([C:2]([C:3]([C:4]([C:5]([H:16])([H:17])[H:18])([H:14])[H:15])([C:6][O:7][H:19])[H:13])([H:11])[H:12])([H:8])([H:9])[H:10]"
C       -2.06757307      -1.50396810       0.26852243
C       -0.67096319      -1.30129986      -0.30389473
C        0.00620684      -0.00618815       0.16351802
C        1.45362814       0.08052769      -0.33733105
C        2.19907384       1.31642406       0.14923275
C       -0.76473109       1.16457506      -0.34483815
O       -1.28133393       1.97972491       0.52322804
H       -2.49159437      -2.45164742      -0.06716167
H       -2.04852373      -1.51213891       1.36076943
H       -2.74858661      -0.70849593      -0.04186763
H       -0.02685279      -2.13717042      -0.01622118
H       -0.71093875      -1.29967478      -1.39724460
H       -0.01107617       0.04894557       1.26315609
H        1.44845972       0.05270043      -1.43102801
H        1.97373041      -0.82190441      -0.00370972
H        3.23951855       1.29870242      -0.17899404
H        2.19221175       1.37732865       1.24004706
H        1.74723808       2.23393459      -0.23408022
H       -1.43789363       2.18962461      -0.61210287
19
Frame=1 idx=011367 GeodesicLength=0.03212401954805564 rxn_smarts="[C:1]([C:2]([C:3]([C:4]([C:5]([H:16])([H:17])[H:18])([H:14])[H:15])([C:6](=[O:7])[H:19])[H:13])([H:11])[H:12])([H:8])([H:9])[H:10]>>[C:1]([C:2]([C:3]([C:4]([C:5]([H:16])([H:17])[H:18])([H:14])[H:15])([C:6][O:7][H:19])[H:13])([H:11])[H:12])([H:8])([H:9])[H:10]"
C       -2.06698371      -1.50382256       0.27055298
C       -0.67119228      -1.30024597      -0.30362197
C        0.00689646      -0.00631464       0.16553118
C        1.45336007       0.08144472      -0.33772664
C        2.20045557       1.31518219       0.15184600
C       -0.76348333       1.16422289      -0.34342600
O       -1.28426041       1.97908304       0.51725957
H       -2.49169445      -2.45095235      -0.06580499
H       -2.04628010      -1.51353759       1.36275909
H       -2.74830566      -0.70773982      -0.03763519
H       -0.02692274      -2.13692977      -0.01861498
H       -0.71289115      -1.29667731      -1.39696859
H       -0.00957024       0.04795666       1.26494742
H        1.44641333       0.05744815      -1.43157560
H        1.97386545      -0.82236446      -0.00840481
H        3.24007053       1.29860865      -0.17905402
H        2.19625036       1.37178961       1.24290423
H        1.74776019       2.23427945      -0.22667070
H       -1.44348788       2.18856912      -0.62629696
19
Frame=2 idx=011367 GeodesicLength=0.0642518624220749 rxn_smarts="[C:1]([C:2]([C:3]([C:4]([C:5]([H:16])([H:17])[H:18])([H:14])[H:15])([C:6](=[O:7])[H:19])[H:13])([H:11])[H:12])([H:8])([H:9])[H:10]>>[C:1]([C:2]([C:3]([C:4]([C:5]([H:16])([H:17])[H:18])([H:14])[H:15])([C:6][O:7][H:19])[H:13])([H:11])[H:12])([H:8])([H:9])[H:10]"
C       -2.06639092      -1.50366772       0.27259705
C       -0.67142930      -1.29917187      -0.30335158
C        0.00758178      -0.00642608       0.16754281
C        1.45308383       0.08238019      -0.33812257
C        2.20184216       1.31393005       0.15447808
C       -0.76224319       1.16389339      -0.34199785
O       -1.28717626       1.97844316       0.51129072
H       -2.49179717      -2.45024397      -0.06443451
H       -2.04401516      -1.51494033       1.36475711
H       -2.74802117      -0.70697199      -0.03336544
H       -0.02700052      -2.13666595      -0.02103122
H       -0.71486572      -1.29364850      -1.39668797
H       -0.00805931       0.04696893       1.26673719
H        1.44435676       0.06223949      -1.43210748
H        1.97397970      -0.82280152      -0.01313104
H        3.24060936       1.29854197      -0.17912527
H        2.20033099       1.36618083       1.24575975
H        1.74827848       2.23461062      -0.21916955
H       -1.44906434       2.18734932      -0.64063823
19
Frame=3 idx=011367 GeodesicLength=0.09638928118263147 rxn_smarts="[C:1]([C:2]([C:3]([C:4]([C:5]([H:16])([H:17])[H:18])([H:14])[H:15])([C:6](=[O:7])[H:19])[H:13])([H:11])[H:12])([H:8])([H:9])[H:10]>>[C:1]([C:2]([C:3]([C:4]([C:5]([H:16])([H:17])[H:18])([H:14])[H:15])([C:6][O:7][H:19])[H:13])([H:11])[H:12])([H:8])([H:9])[H:10]"
C       -2.06579031      -1.50349588       0.27466299
C       -0.67167426      -1.29806925      -0.30308554
C        0.00826446      -0.00651444       0.16954983
C        1.45280270       0.08333625      -0.33851856
C        2.20324501       1.31265875       0.15714340
C       -0.76100255       1.16359372      -0.34056966
O       -1.29006917       1.97782891       0.50529152
H       -2.49190930      -2.44950415      -0.06305729
H       -2.04170996      -1.51636478       1.36677129
H       -2.74772834      -0.70617549      -0.02902622
H       -0.02708445      -2.13637218      -0.02348045
H       -0.71687024      -1.29057634      -1.39640450
H       -0.00654635       0.04599793       1.26852192
H        1.44229574       0.06708506      -1.43262338
H        1.97407132      -0.82321962      -0.01789772
H        3.24114157       1.29849932      -0.17920774
H        2.20447780       1.36047122       1.24862818
H        1.74880258       2.23492741      -0.21153674
H       -1.45471625       2.18589355      -0.65516133
19
Frame=4 idx=011367 GeodesicLength=0.12852970563198224 rxn_smarts="[C:1]([C:2]([C:3]([C:4]([C:5]([H:16])([H:17])[H:18])([H:14])[H:15])([C:6](=[O:7])[H:19])[H:13])([H:11])[H:12])([H:8])([H:9])[H:10]>>[C:1]([C:2]([C:3]([C:4]([C:5]([H:16])([H:17])[H:18])([H:14])[H:15])([C:6][O:7][H:19])[H:13])([H:11])[H:12])([H:8])([H:9])[H:10]"
C       -2.06518936      -1.50331203       0.27673628
C       -0.67192525      -1.29694691      -0.30281645
C        0.00894443      -0.00658858       0.17156215
C        1.45251374       0.08430993      -0.33891249
C        2.20465322       1.31137859       0.15982215
C       -0.75976905       1.16331672      -0.33911619
O       -1.29293214       1.97722552       0.49930381
H       -2.49202855      -2.44874349      -0.06168437
H       -2.03939415      -1.51779577       1.36878734
H       -2.74743188      -0.70536375      -0.02465988
H       -0.02717630      -2.13605518      -0.02594074
H       -0.71888795      -1.28747466      -1.39611131
H       -0.00502380       0.04502543       1.27031206
H        1.44022162       0.07197162      -1.43312073
H        1.97414335      -0.82361456      -0.02269404
H        3.24165949       1.29848660      -0.17930931
H        2.20866526       1.35470165       1.25148710
H        1.74932276       2.23522771      -0.20382142
H       -1.46036544       2.18425117      -0.66982394
19
Frame=5 idx=011367 GeodesicLength=0.1606669656320264 rxn_smarts="[C:1]([C:2]([C:3]([C:4]([C:5]([H:16])([H:17])[H:18])([H:14])[H:15])([C:6](=[O:7])[H:19])[H:13])([H:11])[H:12])([H:8])([H:9])[H:10]>>[C:1]([C:2]([C:3]([C:4]([C:5]([H:16])([H:17])[H:18])([H:14])[H:15])([C:6][O:7][H:19])[H:13])([H:11])[H:12])([H:8])([H:9])[H:10]"
C       -2.06459512      -1.50312175       0.27880333
C       -0.67218041      -1.29581380      -0.30253746
C        0.00962150      -0.00665744       0.17358914
C        1.45221394       0.08529808      -0.33930235
C        2.20605581       1.31009978       0.16249505
C       -0.75855033       1.16305502      -0.33761337
O       -1.29575764       1.97661930       0.49336837
H       -2.49215247      -2.44797300      -0.06032625
H       -2.03709572      -1.51921974       1.37079217
H       -2.74713668      -0.70455040      -0.02030640
H       -0.02727747      -2.13572198      -0.02839167
H       -0.72090308      -1.28435686      -1.39580222
H       -0.00348457       0.04403340       1.27211756
H        1.43812598       0.07688587      -1.43359718
H        1.97419849      -0.82398251      -0.02750919
H        3.24215564       1.29850867      -0.17943638
H        2.21286697       1.34891313       1.25431511
H        1.74982982       2.23550986      -0.19607295
H       -1.46593465       2.18247437      -0.68458531
19
Frame=6 idx=011367 GeodesicLength=0.19280519504892396 rxn_smarts="[C:1]([C:2]([C:3]([C:4]([C:5]([H:16])([H:17])[H:18])([H:14])[H:15])([C:6](=[O:7])[H:19])[H:13])([H:11])[H:12])([H:8])([H:9])[H:10]>>[C:1]([C:2]([C:3]([C:4]([C:5]([H:16])([H:17])[H:18])([H:14])[H:15])([C:6][O:7][H:19])[H:13])([H:11])[H:12])([H:8])([H:9])[H:10]"
C       -2.06400280      -1.50291830       0.28087345
C       -0.67244062      -1.29466246      -0.30225266
C        0.01029706      -0.00671381       0.17562391
C        1.45190625       0.08630391      -0.33969078
C        2.20746221       1.30881481       0.16517583
C       -0.75733972       1.16281503      -0.33607777
O       -1.29854404       1.97602313       0.48745849
H       -2.49228372      -2.44718077      -0.05897825
H       -2.03479768      -1.52064428       1.37279463
H       -2.74683870      -0.70372220      -0.01593688
H       -0.02738736      -2.13536656      -0.03084587
H       -0.72292508      -1.28121352      -1.39548075
H       -0.00193220       0.04303400       1.27393100
H        1.43601504       0.08184143      -1.43405524
H        1.97423501      -0.82432573      -0.03235429
H        3.24263754       1.29855975      -0.17958064
H        2.21710186       1.34307511       1.25712650
H        1.75033391       2.23577497      -0.18825469
H       -1.47149696       2.18050548      -0.69947599
19
Frame=7 idx=011367 GeodesicLength=0.22495751124096453 rxn_smarts="[C:1]([C:2]([C:3]([C:4]([C:5]([H:16])([H:17])[H:18])([H:14])[H:15])([C:6](=[O:7])[H:19])[H:13])([H:11])[H:12])([H:8])([H:9])[H:10]>>[C:1]([C:2]([C:3]([C:4]([C:5]([H:16])([H:17])[H:18])([H:14])[H:15])([C:6][O:7][H:19])[H:13])([H:11])[H:12])([H:8])([H:9])[H:10]"
C       -2.06340620      -1.50269483       0.28296273
C       -0.67270727      -1.29348517      -0.30196643
C        0.01097090      -0.00674702       0.17765645
C        1.45159278       0.08733349      -0.34008367
C        2.20888541       1.30751165       0.16788716
C       -0.75613248       1.16260436      -0.33453636
O       -1.30132979       1.97543698       0.48152702
H       -2.49242348      -2.44635709      -0.05762446
H       -2.03247220      -1.52207868       1.37481039
H       -2.74653410      -0.70286490      -0.01151098
H       -0.02750351      -2.13498144      -0.03331624
H       -0.72496892      -1.27803508      -1.39515091
H       -0.00037413       0.04205023       1.27574205
H        1.43389318       0.08685999      -1.43450068
H        1.97424942      -0.82464676      -0.03725143
H        3.24310954       1.29864468      -0.17974633
H        2.22141488       1.33712428       1.25994428
H        1.75083889       2.23602551      -0.18029011
H       -1.47710292       2.17829980      -0.71455249
19
Frame=8 idx=011367 GeodesicLength=0.25712153390884107 rxn_smarts="[C:1]([C:2]([C:3]([C:4]([C:5]([H:16])([H:17])[H:18])([H:14])[H:15])([C:6](=[O:7])[H:19])[H:13])([H:11])[H:12])([H:8])([H:9])[H:10]>>[C:1]([C:2]([C:3]([C:4]([C:5]([H:16])([H:17])[H:18])([H:14])[H:15])([C:6][O:7][H:19])[H:13])([H:11])[H:12])([H:8])([H:9])[H:10]"
C       -2.06279548      -1.50244875       0.28508986
C       -0.67298182      -1.29227403      -0.30168095
C        0.01163993      -0.00674734       0.17967663
C        1.45126962       0.08839531      -0.34048801
C        2.21033022       1.30617897       0.17065049
C       -0.75492553       1.16242740      -0.33301633
O       -1.30414749       1.97485816       0.47552353
H       -2.49257287      -2.44549097      -0.05625124
H       -2.03008826      -1.52354050       1.37685642
H       -2.74621521      -0.70196855      -0.00697969
H       -0.02762358      -2.13455734      -0.03581553
H       -0.72704837      -1.27481171      -1.39481322
H        0.00118001       0.04110215       1.27753900
H        1.43175896       0.09197108      -1.43493932
H        1.97423202      -0.82494579      -0.04222847
H        3.24356840       1.29876413      -0.17993027
H        2.22583761       1.33100152       1.26278926
H        1.75134434       2.23626313      -0.17210855
H       -1.48276251       2.17582312      -0.72987360
19
Frame=9 idx=011367 GeodesicLength=0.2892928360116804 rxn_smarts="[C:1]([C:2]([C:3]([C:4]([C:5]([H:16])([H:17])[H:18])([H:14])[H:15])([C:6](=[O:7])[H:19])[H:13])([H:11])[H:12])([H:8])([H:9])[H:10]>>[C:1]([C:2]([C:3]([C:4]([C:5]([H:16])([H:17])[H:18])([H:14])[H:15])([C:6][O:7][H:19])[H:13])([H:11])[H:12])([H:8])([H:9])[H:10]"
C       -2.06218938      -1.50219841       0.28721417
C       -0.67326470      -1.29104941      -0.30139429
C        0.01230535      -0.00674167       0.18170915
C        1.45093612       0.08947166      -0.34088482
C        2.21176976       1.30485062       0.17340607
C       -0.75373271       1.16227268      -0.33144385
O       -1.30694913       1.97426517       0.46957904
H       -2.49272890      -2.44461675      -0.05488841
H       -2.02770762      -1.52500879       1.37889456
H       -2.74589754      -0.70106784      -0.00244234
H       -0.02775640      -2.13411910      -0.03832715
H       -0.72914138      -1.27155803      -1.39446807
H        0.00275066       0.04012894       1.27934985
H        1.42960797       0.09710320      -1.43535301
H        1.97419698      -0.82521426      -0.04720894
H        3.24401137       1.29891036      -0.18011938
H        2.23026079       1.32487725       1.26559751
H        1.75184949       2.23647966      -0.16391860
H       -1.48832072       2.17321473      -0.74530151
19
Frame=10 idx=011367 GeodesicLength=0.3214588104944041 rxn_smarts="[C:1]([C:2]([C:3]([C:4]([C:5]([H:16])([H:17])[H:18])([H:14])[H:15])([C:6](=[O:7])[H:19])[H:13])([H:11])[H:12])([H:8])([H:9])[H:10]>>[C:1]([C:2]([C:3]([C:4]([C:5]([H:16])([H:17])[H:18])([H:14])[H:15])([C:6][O:7][H:19])[H:13])([H:11])[H:12])([H:8])([H:9])[H:10]"
C       -2.06158169      -1.50193311       0.28934891
C       -0.67355494      -1.28979988      -0.30110715
C        0.01296690      -0.00671851       0.18374530
C        1.45059305       0.09057043      -0.34128232
C        2.21321670       1.30351090       0.17617655
C       -0.75254958       1.16214432      -0.32984133
O       -1.30974495       1.97366934       0.46365145
H       -2.49288546      -2.44372351      -0.05351549
H       -2.02531406      -1.52647185       1.38093632
H       -2.74557885      -0.70015504       0.00212362
H       -0.02789903      -2.13365343      -0.04085954
H       -0.73125134      -1.26826527      -1.39411433
H        0.00433054       0.03915370       1.28116371
H        1.42744267       0.10228797      -1.43574878
H        1.97413771      -0.82545499      -0.05222765
H        3.24444218       1.29908391      -0.18031736
H        2.23472210       1.31868523       1.26839148
H        1.75235989       2.23667353      -0.15564171
H       -1.49385183       2.17039627      -0.76088168
19
Frame=11 idx=011367 GeodesicLength=0.3536076157563006 rxn_smarts="[C:1]([C:2]([C:3]([C:4]([C:5]([H:16])([H:17])[H:18])([H:14])[H:15])([C:6](=[O:7])[H:19])[H:13])([H:11])[H:12])([H:8])([H:9])[H:10]>>[C:1]([C:2]([C:3]([C:4]([C:5]([H:16])([H:17])[H:18])([H:14])[H:15])([C:6][O:7][H:19])[H:13])([H:11])[H:12])([H:8])([H:9])[H:10]"
C       -2.06098393      -1.50166968       0.29146287
C       -0.67385337      -1.28854032      -0.30082246
C        0.01362402      -0.00670333       0.18580077
C        1.45023756       0.09167689      -0.34166617
C        2.21463805       1.30218927       0.17891070
C       -0.75138403       1.16202762      -0.32814951
O       -1.31245911       1.97305969       0.45785404
H       -2.49304093      -2.44283411      -0.05216142
H       -2.02295153      -1.52793093       1.38295103
H       -2.74526354      -0.69925234       0.00666145
H       -0.02805810      -2.13317433      -0.04340893
H       -0.73336413      -1.26493947      -1.39375431
H        0.00593157       0.03811897       1.28299711
H        1.42526354       0.10746401      -1.43611101
H        1.97406471      -0.82565644      -0.05722361
H        3.24485991       1.29925659      -0.18048083
H        2.23908698       1.31259528       1.27111871
H        1.75287860       2.23683422      -0.14748577
H       -1.49922630       2.16747840      -0.77649267
19
Frame=12 idx=011367 GeodesicLength=0.3857519214672449 rxn_smarts="[C:1]([C:2]([C:3]([C:4]([C:5]([H:16])([H:17])[H:18])([H:14])[H:15])([C:6](=[O:7])[H:19])[H:13])([H:11])[H:12])([H:8])([H:9])[H:10]>>[C:1]([C:2]([C:3]([C:4]([C:5]([H:16])([H:17])[H:18])([H:14])[H:15])([C:6][O:7][H:19])[H:13])([H:11])[H:12])([H:8])([H:9])[H:10]"
C       -2.06039502      -1.50140311       0.29356330
C       -0.67415968      -1.28726996      -0.30053789
C        0.01427895      -0.00668644       0.18787195
C        1.44987181       0.09279683      -0.34204270
C        2.21605227       1.30087800       0.18162786
C       -0.75023571       1.16193380      -0.32638778
O       -1.31511578       1.97245140       0.45215394
H       -2.49319559      -2.44194905      -0.05081397
H       -2.02061228      -1.52937472       1.38494860
H       -2.74495546      -0.69835404       0.01117436
H       -0.02823013      -2.13268466      -0.04597031
H       -0.73548535      -1.26158536      -1.39338867
H        0.00755571       0.03704702       1.28484834
H        1.42306609       0.11265428      -1.43644911
H        1.97397756      -0.82582717      -0.06222366
H        3.24527201       1.29943604      -0.18062516
H        2.24341442       1.30654698       1.27380176
H        1.75341014       2.23697343      -0.13937522
H       -1.50451397       2.16441672      -0.79217562
19
Frame=13 idx=011367 GeodesicLength=0.4178931537280897 rxn_smarts="[C:1]([C:2]([C:3]([C:4]([C:5]([H:16])([H:17])[H:18])([H:14])[H:15])([C:6](=[O:7])[H:19])[H:13])([H:11])[H:12])([H:8])([H:9])[H:10]>>[C:1]([C:2]([C:3]([C:4]([C:5]([H:16])([H:17])[H:18])([H:14])[H:15])([C:6][O:7][H:19])[H:13])([H:11])[H:12])([H:8])([H:9])[H:10]"
C       -2.05980993      -1.50112756       0.29566251
C       -0.67447391      -1.28598286      -0.30025258
C        0.01493050      -0.00666172       0.18995174
C        1.44949511       0.09393556      -0.34241633
C        2.21746228       1.29956820       0.18434336
C       -0.74910079       1.16186276      -0.32457542
O       -1.31772610       1.97184781       0.44651487
H       -2.49335354      -2.44105293      -0.04947002
H       -2.01827746      -1.53081698       1.38693927
H       -2.74464836      -0.69744854       0.01569575
H       -0.02841425      -2.13217568      -0.04854670
H       -0.73761970      -1.25819981      -1.39301465
H        0.00919480       0.03595262       1.28670829
H        1.42085166       0.11787946      -1.43676553
H        1.97387173      -0.82596626      -0.06724819
H        3.24567283       1.29963162      -0.18075935
H        2.24773453       1.30049025       1.27645498
H        1.75394818       2.23709143      -0.13124863
H       -1.50973759       2.16117262      -0.80797337
19
Frame=14 idx=011367 GeodesicLength=0.4500382644982308 rxn_smarts="[C:1]([C:2]([C:3]([C:4]([C:5]([H:16])([H:17])[H:18])([H:14])[H:15])([C:6](=[O:7])[H:19])[H:13])([H:11])[H:12])([H:8])([H:9])[H:10]>>[C:1]([C:2]([C:3]([C:4]([C:5]([H:16])([H:17])[H:18])([H:14])[H:15])([C:6][O:7][H:19])[H:13])([H:11])[H:12])([H:8])([H:9])[H:10]"
C       -2.05922379      -1.50083928       0.29777310
C       -0.67479738      -1.28467319      -0.29996794
C        0.01557685      -0.00662058       0.19203264
C        1.44910640       0.09509898      -0.34279275
C        2.21887562       1.29825017       0.18707367
C       -0.74797794       1.16181982      -0.32273195
O       -1.32031922       1.97124739       0.44090179
H       -2.49351476      -2.44013962      -0.04811714
H       -2.01592744      -1.53226527       1.38893474
H       -2.74433873      -0.69652888       0.02025177
H       -0.02860829      -2.13163964      -0.05114242
H       -0.73977630      -1.25477821      -1.39263310
H        0.01084400       0.03485276       1.28856895
H        1.41862100       0.12315964      -1.43706543
H        1.97374073      -0.82607482      -0.07231735
H        3.24606205       1.29984909      -0.18088912
H        2.25208203       1.29437422       1.27909390
H        1.75449315       2.23718979      -0.12304375
H       -1.51491798       2.15771765      -0.82392961
19
Frame=15 idx=011367 GeodesicLength=0.4821971455363094 rxn_smarts="[C:1]([C:2]([C:3]([C:4]([C:5]([H:16])([H:17])[H:18])([H:14])[H:15])([C:6](=[O:7])[H:19])[H:13])([H:11])[H:12])([H:8])([H:9])[H:10]>>[C:1]([C:2]([C:3]([C:4]([C:5]([H:16])([H:17])[H:18])([H:14])[H:15])([C:6][O:7][H:19])[H:13])([H:11])[H:12])([H:8])([H:9])[H:10]"
C       -2.05863275      -1.50053160       0.29990689
C       -0.67512989      -1.28333578      -0.29968250
C        0.01621824      -0.00655395       0.19410863
C        1.44870653       0.09629408      -0.34317840
C        2.22030341       1.29691292       0.18983885
C       -0.74686438       1.16180937      -0.32087925
O       -1.32292336       1.97065247       0.43527123
H       -2.49368365      -2.43919845      -0.04674514
H       -2.01354720      -1.53371807       1.39094626
H       -2.74402352      -0.69558392       0.02486867
H       -0.02880993      -2.13107040      -0.05375772
H       -0.74196021      -1.25131864      -1.39224223
H        0.01249965       0.03376752       1.29042371
H        1.41637382       0.12852071      -1.43735433
H        1.97358134      -0.82615361      -0.07745704
H        3.24643627       1.30010594      -0.18103497
H        2.25650992       1.28812860       1.28173602
H        1.75503914       2.23727049      -0.11467127
H       -1.52009345       2.15400234      -0.84009741
19
Frame=16 idx=011367 GeodesicLength=0.5143729161088759 rxn_smarts="[C:1]([C:2]([C:3]([C:4]([C:5]([H:16])([H:17])[H:18])([H:14])[H:15])([C:6](=[O:7])[H:19])[H:13])([H:11])[H:12])([H:8])([H:9])[H:10]>>[C:1]([C:2]([C:3]([C:4]([C:5]([H:16])([H:17])[H:18])([H:14])[H:15])([C:6][O:7][H:19])[H:13])([H:11])[H:12])([H:8])([H:9])[H:10]"
C       -2.05802742      -1.50020286       0.30208094
C       -0.67547312      -1.28196201      -0.29939800
C        0.01685159      -0.00645293       0.19617370
C        1.44829217       0.09752627      -0.34357611
C        2.22174809       1.29554620       0.19265587
C       -0.74575791       1.16183510      -0.31904007
O       -1.32556540       1.97006302       0.42957665
H       -2.49386299      -2.43821416      -0.04535382
H       -2.01110465      -1.53520501       1.39298852
H       -2.74369388      -0.69460199       0.02960016
H       -0.02901727      -2.13045848      -0.05640694
H       -0.74418602      -1.24780775      -1.39184232
H        0.01415136       0.03271548       1.29226565
H        1.41410817       0.13398339      -1.43763371
H        1.97338459      -0.82620212      -0.08268266
H        3.24678856       1.30040771      -0.18119926
H        2.26104625       1.28170374       1.28439489
H        1.75558110       2.23732998      -0.10607052
H       -1.52526321       2.14999642      -0.85653298
