13
Frame=0 idx=006509 GeodesicLength=0.0 rxn_smarts="[C:1](#[C:2][C@:3]12[C:4]([H:9])([H:10])[C@@:5]1([H:11])[O:6][C:7]2([H:12])[H:13])[H:8]>>[C:1](#[C:2][C:3]1([C:4][H:9])[C:5]([H:10])([H:11])[O:6][C:7]1([H:12])[H:13])[H:8]"
C        2.71564713       0.36642430       0.18965676
C        1.54199852       0.28172540      -0.02943173
C        0.13463816       0.12389501      -0.30282019
C       -0.64560759       1.21888623      -0.89090340
C       -0.95867572       0.43675438       0.73126855
O       -1.55908012      -0.82473778       0.59676382
C       -0.50475529      -1.28317874      -0.27821144
H        3.75898857       0.46042518       0.37842722
H       -1.50170223       0.78524754      -1.42898059
H       -1.54704004       1.35817811       0.31770056
H       -0.65534294       0.76943591       1.72099576
H        0.10581856      -2.03380051       0.22449860
H       -0.88488702      -1.65925508      -1.22896398
13
Frame=1 idx=006509 GeodesicLength=0.056047971548696014 rxn_smarts="[C:1](#[C:2][C@:3]12[C:4]([H:9])([H:10])[C@@:5]1([H:11])[O:6][C:7]2([H:12])[H:13])[H:8]>>[C:1](#[C:2][C:3]1([C:4][H:9])[C:5]([H:10])([H:11])[O:6][C:7]1([H:12])[H:13])[H:8]"
C        2.71607910       0.36632424       0.18639928
C        1.54245299       0.27966126      -0.03237137
C        0.13552728       0.11925932      -0.30389865
C       -0.65055408       1.21281709      -0.88617321
C       -0.95920030       0.43549236       0.73011482
O       -1.56175996      -0.82549436       0.59304871
C       -0.50558130      -1.28618005      -0.27796982
H        3.75701041       0.47025110       0.38311255
H       -1.50443574       0.78518611      -1.43129809
H       -1.53577781       1.38372108       0.31889271
H       -0.65430423       0.75882361       1.72253380
H        0.10403723      -2.03629963       0.22678143
H       -0.88349361      -1.66356212      -1.22917216
13
Frame=2 idx=006509 GeodesicLength=0.11209077196483491 rxn_smarts="[C:1](#[C:2][C@:3]12[C:4]([H:9])([H:10])[C@@:5]1([H:11])[O:6][C:7]2([H:12])[H:13])[H:8]>>[C:1](#[C:2][C:3]1([C:4][H:9])[C:5]([H:10])([H:11])[O:6][C:7]1([H:12])[H:13])[H:8]"
C        2.71631058       0.36660568       0.18379195
C        1.54276747       0.27781428      -0.03489908
C        0.13634599       0.11468203      -0.30480394
C       -0.65558636       1.20669497      -0.88138059
C       -0.96003452       0.43410530       0.72895286
O       -1.56443843      -0.82650654       0.58927382
C       -0.50628187      -1.28920545      -0.27771947
H        3.75511077       0.47951058       0.38674138
H       -1.50718108       0.78515013      -1.43356406
H       -1.52370934       1.40952463       0.31994350
H       -0.65389611       0.74827151       1.72400223
H        0.10242831      -2.03876800       0.22908378
H       -0.88183539      -1.66787913      -1.22942239
13
Frame=3 idx=006509 GeodesicLength=0.16812740772579057 rxn_smarts="[C:1](#[C:2][C@:3]12[C:4]([H:9])([H:10])[C@@:5]1([H:11])[O:6][C:7]2([H:12])[H:13])[H:8]>>[C:1](#[C:2][C:3]1([C:4][H:9])[C:5]([H:10])([H:11])[O:6][C:7]1([H:12])[H:13])[H:8]"
C        2.71640139       0.36717346       0.18134410
C        1.54296864       0.27611933      -0.03734759
C        0.13707631       0.11012972      -0.30567204
C       -0.66077316       1.20050556      -0.87656863
C       -0.96105903       0.43260713       0.72779615
O       -1.56704482      -0.82776155       0.58556120
C       -0.50691137      -1.29228297      -0.27748602
H        3.75309074       0.48844931       0.39019212
H       -1.51008273       0.78512868      -1.43571135
H       -1.51069089       1.43559717       0.32089909
H       -0.65385651       0.73782262       1.72537149
H        0.10098602      -2.04124647       0.23130789
H       -0.88010458      -1.67224198      -1.22968639
13
Frame=4 idx=006509 GeodesicLength=0.22415812295105503 rxn_smarts="[C:1](#[C:2][C@:3]12[C:4]([H:9])([H:10])[C@@:5]1([H:11])[O:6][C:7]2([H:12])[H:13])[H:8]>>[C:1](#[C:2][C:3]1([C:4][H:9])[C:5]([H:10])([H:11])[O:6][C:7]1([H:12])[H:13])[H:8]"
C        2.71637235       0.36796376       0.17882791
C        1.54306514       0.27452682      -0.03987741
C        0.13770671       0.10557982      -0.30656645
C       -0.66614681       1.19423711      -0.87174852
C       -0.96221113       0.43099966       0.72664989
O       -1.56954222      -0.82924961       0.58197036
C       -0.50750149      -1.29542168      -0.27728133
H        3.75082883       0.49723095       0.39388877
H       -1.51320905       0.78511818      -1.43770273
H       -1.49661225       1.46192692       0.32175998
H       -0.65404610       0.72749525       1.72662375
H        0.09970184      -2.04375108       0.23340370
H       -0.87840582      -1.67665610      -1.22994793
13
Frame=5 idx=006509 GeodesicLength=0.28018699066336406 rxn_smarts="[C:1](#[C:2][C@:3]12[C:4]([H:9])([H:10])[C@@:5]1([H:11])[O:6][C:7]2([H:12])[H:13])[H:8]>>[C:1](#[C:2][C:3]1([C:4][H:9])[C:5]([H:10])([H:11])[O:6][C:7]1([H:12])[H:13])[H:8]"
C        2.71617301       0.36902592       0.17666135
C        1.54303206       0.27308152      -0.04220504
C        0.13824349       0.10105932      -0.30736653
C       -0.67165564       1.18791960      -0.86686138
C       -0.96361573       0.42926790       0.72551803
O       -1.57201363      -0.83100192       0.57841263
C       -0.50802581      -1.29861220      -0.27709048
H        3.74854923       0.50573861       0.39708206
H       -1.51642630       0.78513962      -1.43959950
H       -1.48151317       1.48847623       0.32244949
H       -0.65470935       0.71727788       1.72780792
H        0.09855881      -2.04627461       0.23543681
H       -0.87659698      -1.68109787      -1.23024536
13
Frame=6 idx=006509 GeodesicLength=0.33619067761143 rxn_smarts="[C:1](#[C:2][C@:3]12[C:4]([H:9])([H:10])[C@@:5]1([H:11])[O:6][C:7]2([H:12])[H:13])[H:8]>>[C:1](#[C:2][C:3]1([C:4][H:9])[C:5]([H:10])([H:11])[O:6][C:7]1([H:12])[H:13])[H:8]"
C        2.71576897       0.37035421       0.17500084
C        1.54284625       0.27179170      -0.04421322
C        0.13868152       0.09657939      -0.30802028
C       -0.67728899       1.18156482      -0.86187652
C       -0.96531328       0.42739925       0.72439919
O       -1.57447652      -0.83302486       0.57485334
C       -0.50847582      -1.30183665      -0.27690473
H        3.74633678       0.51395194       0.39949289
H       -1.51968132       0.78520271      -1.44142897
H       -1.46539197       1.51518653       0.32291939
H       -0.65592371       0.70716244       1.72893139
H        0.09755047      -2.04880054       0.23743297
H       -0.87463237      -1.68553094      -1.23058628
13
Frame=7 idx=006509 GeodesicLength=0.39222243193173323 rxn_smarts="[C:1](#[C:2][C@:3]12[C:4]([H:9])([H:10])[C@@:5]1([H:11])[O:6][C:7]2([H:12])[H:13])[H:8]>>[C:1](#[C:2][C:3]1([C:4][H:9])[C:5]([H:10])([H:11])[O:6][C:7]1([H:12])[H:13])[H:8]"
C        2.71526593       0.37166551       0.17320644
C        1.54257678       0.27041832      -0.04639147
C        0.13901423       0.09202792      -0.30872667
C       -0.68306498       1.17513056      -0.85684147
C       -0.96709830       0.42540993       0.72331218
O       -1.57687129      -0.83526210       0.57145684
C       -0.50898273      -1.30515903      -0.27676577
H        3.74376994       0.52260919       0.40234029
H       -1.52313034       0.78532493      -1.44307025
H       -1.44793926       1.54211020       0.32321564
H       -0.65726215       0.69717590       1.72995396
H        0.09657844      -2.05143841       0.23924409
H       -0.87285627      -1.69001292      -1.23093379
13
Frame=8 idx=006509 GeodesicLength=0.4482205264338032 rxn_smarts="[C:1](#[C:2][C@:3]12[C:4]([H:9])([H:10])[C@@:5]1([H:11])[O:6][C:7]2([H:12])[H:13])[H:8]>>[C:1](#[C:2][C:3]1([C:4][H:9])[C:5]([H:10])([H:11])[O:6][C:7]1([H:12])[H:13])[H:8]"
C        2.71459415       0.37328731       0.17138311
C        1.54216584       0.26919799      -0.04861268
C        0.13921934       0.08751540      -0.30942746
C       -0.68907811       1.16865049      -0.85172973
C       -0.96905203       0.42329673       0.72226538
O       -1.57914724      -0.83776830       0.56820741
C       -0.50943727      -1.30852037      -0.27665307
H        3.74100113       0.53098033       0.40534877
H       -1.52678567       0.78545856      -1.44456446
H       -1.42930414       1.56911656       0.32326184
H       -0.65887849       0.68736838       1.73089757
H        0.09579641      -2.05407547       0.24091180
H       -0.87109392      -1.69450761      -1.23128847
13
Frame=9 idx=006509 GeodesicLength=0.5042210603007096 rxn_smarts="[C:1](#[C:2][C@:3]12[C:4]([H:9])([H:10])[C@@:5]1([H:11])[O:6][C:7]2([H:12])[H:13])[H:8]>>[C:1](#[C:2][C:3]1([C:4][H:9])[C:5]([H:10])([H:11])[O:6][C:7]1([H:12])[H:13])[H:8]"
C        2.71376624       0.37511669       0.16966227
C        1.54162503       0.26807605      -0.05079528
C        0.13930417       0.08302634      -0.31008314
C       -0.69528374       1.16214697      -0.84650162
C       -0.97120665       0.42105211       0.72127060
O       -1.58135930      -0.84054669       0.56508502
C       -0.50986549      -1.31193339      -0.27656742
H        3.73809299       0.53926169       0.40829567
H       -1.53057684       0.78563932      -1.44592219
H       -1.40947378       1.59617760       0.32300061
H       -0.66082581       0.67773984       1.73178455
H        0.09515218      -2.05675248       0.24243873
H       -0.86934899      -1.69900405      -1.23166780
13
Frame=10 idx=006509 GeodesicLength=0.5602157176070918 rxn_smarts="[C:1](#[C:2][C@:3]12[C:4]([H:9])([H:10])[C@@:5]1([H:11])[O:6][C:7]2([H:12])[H:13])[H:8]>>[C:1](#[C:2][C:3]1([C:4][H:9])[C:5]([H:10])([H:11])[O:6][C:7]1([H:12])[H:13])[H:8]"
C        2.71275748       0.37718396       0.16815258
C        1.54093735       0.26708191      -0.05284837
C        0.13926532       0.07858123      -0.31065007
C       -0.70167844       1.15563657      -0.84112176
C       -0.97359941       0.41866773       0.72033929
O       -1.58352022      -0.84360881       0.56206978
C       -0.51025267      -1.31538261      -0.27650365
H        3.73512294       0.54736949       0.41096193
H       -1.53445477       0.78587401      -1.44716157
H       -1.38847964       1.62322466       0.32236814
H       -0.66317770       0.66830056       1.73263928
H        0.09465276      -2.05945186       0.24383775
H       -0.86757299      -1.70347683      -1.23208331
13
Frame=11 idx=006509 GeodesicLength=0.6162056599467585 rxn_smarts="[C:1](#[C:2][C@:3]12[C:4]([H:9])([H:10])[C@@:5]1([H:11])[O:6][C:7]2([H:12])[H:13])[H:8]>>[C:1](#[C:2][C:3]1([C:4][H:9])[C:5]([H:10])([H:11])[O:6][C:7]1([H:12])[H:13])[H:8]"
C        2.71158159       0.37947188       0.16671734
C        1.54011078       0.26619245      -0.05487152
C        0.13909651       0.07417472      -0.31116307
C       -0.70828268       1.14912399      -0.83558128
C       -0.97618786       0.41614426       0.71948800
O       -1.58560415      -0.84694913       0.55920766
C       -0.51061472      -1.31886894      -0.27646831
H        3.73201115       0.55536703       0.41359997
H       -1.53844889       0.78616672      -1.44825709
H       -1.36628924       1.65020538       0.32131811
H       -0.66584308       0.65907499       1.73346423
H        0.09429991      -2.06218163       0.24507274
H       -0.86582931      -1.70792174      -1.23252677
13
Frame=12 idx=006509 GeodesicLength=0.6721874030938897 rxn_smarts="[C:1](#[C:2][C@:3]12[C:4]([H:9])([H:10])[C@@:5]1([H:11])[O:6][C:7]2([H:12])[H:13])[H:8]>>[C:1](#[C:2][C:3]1([C:4][H:9])[C:5]([H:10])([H:11])[O:6][C:7]1([H:12])[H:13])[H:8]"
C        2.71022782       0.38199294       0.16543261
C        1.53913787       0.26542375      -0.05680021
C        0.13879658       0.06982255      -0.31158877
C       -0.71509165       1.14262824      -0.82984641
C       -0.97899592       0.41347465       0.71873161
O       -1.58762338      -0.85057476       0.55648779
C       -0.51094420      -1.32238096      -0.27645839
H        3.72882017       0.56320785       0.41605569
H       -1.54251699       0.78652908      -1.44921870
H       -1.34294995       1.67705327       0.31978249
H       -0.66886698       0.65007348       1.73428185
H        0.09409578      -2.06493416       0.24614825
H       -0.86408915      -1.71231594      -1.23300782
13
Frame=13 idx=006509 GeodesicLength=0.7281727940374371 rxn_smarts="[C:1](#[C:2][C@:3]12[C:4]([H:9])([H:10])[C@@:5]1([H:11])[O:6][C:7]2([H:12])[H:13])[H:8]>>[C:1](#[C:2][C:3]1([C:4][H:9])[C:5]([H:10])([H:11])[O:6][C:7]1([H:12])[H:13])[H:8]"
C        2.70869883       0.38477585       0.16430328
C        1.53802014       0.26479339      -0.05862141
C        0.13836487       0.06553856      -0.31191520
C       -0.72210774       1.13616902      -0.82389222
C       -0.98203204       0.41065635       0.71809283
O       -1.58958395      -0.85449715       0.55392093
C       -0.51123958      -1.32591826      -0.27647554
H        3.72558510       0.57084642       0.41829924
H       -1.54663701       0.78697030      -1.45004767
H       -1.31850461       1.70371944       0.31769626
H       -0.67226131       0.64131609       1.73512291
H        0.09404347      -2.06771560       0.24705428
H       -0.86234618      -1.71665442      -1.23353767
13
Frame=14 idx=006509 GeodesicLength=0.7841417891321927 rxn_smarts="[C:1](#[C:2][C@:3]12[C:4]([H:9])([H:10])[C@@:5]1([H:11])[O:6][C:7]2([H:12])[H:13])[H:8]>>[C:1](#[C:2][C:3]1([C:4][H:9])[C:5]([H:10])([H:11])[O:6][C:7]1([H:12])[H:13])[H:8]"
C        2.70698908       0.38782640       0.16324234
C        1.53675141       0.26429961      -0.06038443
C        0.13779440       0.06133173      -0.31215356
C       -0.72935376       1.12975261      -0.81769668
C       -0.98525990       0.40768350       0.71758335
O       -1.59144706      -0.85870208       0.55153255
C       -0.51149451      -1.32945650      -0.27651753
H        3.72226111       0.57823858       0.42047967
H       -1.55082068       0.78749125      -1.45072225
H       -1.29301174       1.73012253       0.31498677
H       -0.67595162       0.63281355       1.73597779
H        0.09416808      -2.07050132       0.24777009
H       -0.86062479      -1.72089985      -1.23409811
13
Frame=15 idx=006509 GeodesicLength=0.840119336280345 rxn_smarts="[C:1](#[C:2][C@:3]12[C:4]([H:9])([H:10])[C@@:5]1([H:11])[O:6][C:7]2([H:12])[H:13])[H:8]>>[C:1](#[C:2][C:3]1([C:4][H:9])[C:5]([H:10])([H:11])[O:6][C:7]1([H:12])[H:13])[H:8]"
C        2.70511608       0.39095802       0.16230472
C        1.53536045       0.26377831      -0.06210504
C        0.13709579       0.05713681      -0.31230309
C       -0.73675953       1.12336733      -0.81123172
C       -0.98863559       0.40454275       0.71721764
O       -1.59325215      -0.86315613       0.54932090
C       -0.51178365      -1.33301711      -0.27659704
H        3.71875916       0.58586523       0.42259677
H       -1.55501724       0.78814664      -1.45121422
H       -1.26634249       1.75623779       0.31158165
H       -0.67986593       0.62453072       1.73686597
H        0.09435723      -2.07335152       0.24826698
H       -0.85903212      -1.72503884      -1.23470352
13
Frame=16 idx=006509 GeodesicLength=0.8961055912533755 rxn_smarts="[C:1](#[C:2][C@:3]12[C:4]([H:9])([H:10])[C@@:5]1([H:11])[O:6][C:7]2([H:12])[H:13])[H:8]>>[C:1](#[C:2][C:3]1([C:4][H:9])[C:5]([H:10])([H:11])[O:6][C:7]1([H:12])[H:13])[H:8]"
C        2.70309688       0.39419591       0.16148258
C        1.53385889       0.26324847      -0.06377543
C        0.13627447       0.05296911      -0.31235484
C       -0.74431285       1.11704770      -0.80447374
C       -0.99216420       0.40123503       0.71703004
O       -1.59501242      -0.86787374       0.54730332
C       -0.51210753      -1.33660994      -0.27671810
H        3.71511541       0.59368559       0.42462734
H       -1.55918842       0.78895396      -1.45152988
H       -1.23859108       1.78203037       0.30741506
H       -0.68401214       0.61648879       1.73783187
H        0.09460685      -2.07629030       0.24853485
H       -0.85756385      -1.72908095      -1.23537306
