15
Frame=0 idx=006999 GeodesicLength=0.0 rxn_smarts="[C:1]([C@@:2]([O:3][H:11])([C:4]([N:5]([H:14])[H:15])([H:12])[H:13])[C:6]#[N:7])([H:8])([H:9])[H:10]>>[C:1]([C:2]([O:3][H:11])=[C:6]=[N:7][H:15])([H:8])([H:9])[H:10].[C:4](=[N:5][H:14])([H:12])[H:13]"
C        0.42693378       1.60539725       0.80371996
C        0.75536498       0.21706065       0.35213897
O        1.21692353      -0.66402026       1.31845687
C       -1.40831720      -0.68721013      -0.21022258
N       -1.31619100      -1.41330117      -1.28784225
C        1.01675488      -0.07715474      -0.94622197
N        0.88201710      -0.49886789      -2.05295313
H        1.30016097       2.10346189       1.23954954
H       -0.35433710       1.57725120       1.56772809
H        0.08063717       2.21510641      -0.03071659
H        1.92375675      -0.24700587       1.81943980
H       -1.76243884       0.33503127      -0.30933711
H       -1.40581972      -1.11923555       0.78682621
H       -1.09199638      -2.37885351      -1.06195691
H       -0.26344885      -0.96765950      -1.98860890
15
Frame=1 idx=006999 GeodesicLength=0.14487316472458545 rxn_smarts="[C:1]([C@@:2]([O:3][H:11])([C:4]([N:5]([H:14])[H:15])([H:12])[H:13])[C:6]#[N:7])([H:8])([H:9])[H:10]>>[C:1]([C:2]([O:3][H:11])=[C:6]=[N:7][H:15])([H:8])([H:9])[H:10].[C:4](=[N:5][H:14])([H:12])[H:13]"
C        0.45769189       1.62988847       0.77350565
C        0.74951392       0.21664039       0.36914558
O        1.22227014      -0.64217024       1.34957089
C       -1.38710770      -0.74342315      -0.18710438
N       -1.34347552      -1.37965976      -1.32548075
C        1.04322890      -0.09846629      -0.91999373
N        0.91248001      -0.49080495      -2.03775834
H        1.34659522       2.12898308       1.17399663
H       -0.31003485       1.64485851       1.55147244
H        0.10312733       2.21286313      -0.07651825
H        1.84385528      -0.18725104       1.92423423
H       -1.78984736       0.26460449      -0.16510956
H       -1.37518001      -1.26737613       0.76572138
H       -1.18826478      -2.37456497      -1.18762479
H       -0.28485247      -0.91412154      -2.00805699
15
Frame=2 idx=006999 GeodesicLength=0.2822755901702766 rxn_smarts="[C:1]([C@@:2]([O:3][H:11])([C:4]([N:5]([H:14])[H:15])([H:12])[H:13])[C:6]#[N:7])([H:8])([H:9])[H:10]>>[C:1]([C:2]([O:3][H:11])=[C:6]=[N:7][H:15])([H:8])([H:9])[H:10].[C:4](=[N:5][H:14])([H:12])[H:13]"
C        0.48525584       1.65103780       0.73988770
C        0.74687904       0.21636333       0.38517570
O        1.22989293      -0.61621075       1.38294519
C       -1.36243704      -0.79960716      -0.16330917
N       -1.37264635      -1.33545248      -1.35562196
C        1.07301971      -0.12272634      -0.89290856
N        0.94435541      -0.48959820      -2.01948785
H        1.38668101       2.15110781       1.10881522
H       -0.27112005       1.70854552       1.52688296
H        0.12352778       2.20582865      -0.12588117
H        1.75354278      -0.12796651       2.02342782
H       -1.80644117       0.17902258      -0.01246489
H       -1.33121753      -1.41594194       0.73315016
H       -1.29347585      -2.34737288      -1.30978077
H       -0.30581652      -0.85702942      -2.02083039
15
Frame=3 idx=006999 GeodesicLength=0.4132063506972056 rxn_smarts="[C:1]([C@@:2]([O:3][H:11])([C:4]([N:5]([H:14])[H:15])([H:12])[H:13])[C:6]#[N:7])([H:8])([H:9])[H:10]>>[C:1]([C:2]([O:3][H:11])=[C:6]=[N:7][H:15])([H:8])([H:9])[H:10].[C:4](=[N:5][H:14])([H:12])[H:13]"
C        0.50881471       1.66849202       0.70406442
C        0.74766581       0.21626406       0.39925692
O        1.23957783      -0.58686438       1.41674587
C       -1.33482144      -0.85428289      -0.13978292
N       -1.40251091      -1.28221425      -1.37586330
C        1.10574710      -0.14794278      -0.86636467
N        0.97688819      -0.49449151      -1.99945469
H        1.41910661       2.16983657       1.04750582
H       -0.24025574       1.76591378       1.49403754
H        0.14260172       2.19484579      -0.17749290
H        1.65385587      -0.07184361       2.11352615
H       -1.80931505       0.07932280       0.14277539
H       -1.27624019      -1.55962246       0.68826861
H       -1.40603970      -2.29704491      -1.42067703
H       -0.32507480      -0.80036824      -2.02654521
15
Frame=4 idx=006999 GeodesicLength=0.5393916942516641 rxn_smarts="[C:1]([C@@:2]([O:3][H:11])([C:4]([N:5]([H:14])[H:15])([H:12])[H:13])[C:6]#[N:7])([H:8])([H:9])[H:10]>>[C:1]([C:2]([O:3][H:11])=[C:6]=[N:7][H:15])([H:8])([H:9])[H:10].[C:4](=[N:5][H:14])([H:12])[H:13]"
C        0.52818861       1.68214471       0.66700940
C        0.75148701       0.21602722       0.41103577
O        1.25076282      -0.55485101       1.44997110
C       -1.30507700      -0.90634269      -0.11695324
N       -1.43182494      -1.22212032      -1.38463135
C        1.14095019      -0.17303312      -0.84103295
N        1.00941193      -0.50426700      -1.97863084
H        1.44374262       2.18545925       0.99197295
H       -0.21870246       1.81565342       1.45367915
H        0.16147896       2.18059023      -0.23048443
H        1.54603815      -0.02126769       2.19184177
H       -1.79793211      -0.03274051       0.29484477
H       -1.21413147      -1.69393855       0.63153763
H       -1.52167389      -2.22540403      -1.51430137
H       -0.34271844      -0.74590991      -2.02585836
15
Frame=5 idx=006999 GeodesicLength=0.6631946579612154 rxn_smarts="[C:1]([C@@:2]([O:3][H:11])([C:4]([N:5]([H:14])[H:15])([H:12])[H:13])[C:6]#[N:7])([H:8])([H:9])[H:10]>>[C:1]([C:2]([O:3][H:11])=[C:6]=[N:7][H:15])([H:8])([H:9])[H:10].[C:4](=[N:5][H:14])([H:12])[H:13]"
C        0.54338458       1.69251714       0.62964140
C        0.75794737       0.21579035       0.42066039
O        1.26304962      -0.52011192       1.48236454
C       -1.27370114      -0.95544093      -0.09548609
N       -1.45966996      -1.15699984      -1.38205336
C        1.17833653      -0.19691534      -0.81704604
N        1.04232997      -0.51848002      -1.95726950
H        1.46073247       2.19925443       0.94300542
H       -0.20649945       1.85744502       1.40741471
H        0.18023435       2.16376952      -0.28394915
H        1.43140959       0.02202686       2.25718902
H       -1.77156095      -0.15498463       0.43951876
H       -1.14750067      -1.81646392       0.56318013
H       -1.64029439      -2.13506386      -1.58714684
H       -0.35819792      -0.69634287      -2.02002339
15
Frame=6 idx=006999 GeodesicLength=0.7864104416250308 rxn_smarts="[C:1]([C@@:2]([O:3][H:11])([C:4]([N:5]([H:14])[H:15])([H:12])[H:13])[C:6]#[N:7])([H:8])([H:9])[H:10]>>[C:1]([C:2]([O:3][H:11])=[C:6]=[N:7][H:15])([H:8])([H:9])[H:10].[C:4](=[N:5][H:14])([H:12])[H:13]"
C        0.55538310       1.70016939       0.59211754
C        0.76609521       0.21550679       0.42808352
O        1.27603797      -0.48266356       1.51326158
C       -1.24124240      -1.00175918      -0.07465214
N       -1.48488835      -1.08940984      -1.36733560
C        1.21726271      -0.21914789      -0.79446394
N        1.07474103      -0.53486722      -1.93595037
H        1.47191337       2.21145237       0.89922678
H       -0.20201729       1.89217850       1.35614501
H        0.19999181       2.14527179      -0.33757885
H        1.30894588       0.05483405       2.30879127
H       -1.73261910      -0.28565769       0.57308939
H       -1.08235685      -1.92565785       0.48613465
H       -1.75406262      -2.03033056      -1.63729859
H       -0.37318449      -0.64991912      -2.00957025
15
Frame=7 idx=006999 GeodesicLength=0.9092170189656604 rxn_smarts="[C:1]([C@@:2]([O:3][H:11])([C:4]([N:5]([H:14])[H:15])([H:12])[H:13])[C:6]#[N:7])([H:8])([H:9])[H:10]>>[C:1]([C:2]([O:3][H:11])=[C:6]=[N:7][H:15])([H:8])([H:9])[H:10].[C:4](=[N:5][H:14])([H:12])[H:13]"
C        0.56381629       1.70557580       0.55622627
C        0.77414682       0.21511675       0.43477322
O        1.28486650      -0.44370820       1.54459083
C       -1.20943839      -1.04489605      -0.05714491
N       -1.50643169      -1.02285942      -1.34451126
C        1.25694190      -0.23936777      -0.77164225
N        1.10827848      -0.55225732      -1.91352686
H        1.47738590       2.22265911       0.86120006
H       -0.20385367       1.92041099       1.30362963
H        0.21897886       2.12549724      -0.38910097
H        1.19161471       0.08023503       2.34494289
H       -1.68248009      -0.41967849       0.68995770
H       -1.02207186      -2.01966641       0.40144863
H       -1.86552410      -1.91690712      -1.66398093
H       -0.38622965      -0.61015414      -1.99686205
15
Frame=8 idx=006999 GeodesicLength=1.0332035767648846 rxn_smarts="[C:1]([C@@:2]([O:3][H:11])([C:4]([N:5]([H:14])[H:15])([H:12])[H:13])[C:6]#[N:7])([H:8])([H:9])[H:10]>>[C:1]([C:2]([O:3][H:11])=[C:6]=[N:7][H:15])([H:8])([H:9])[H:10].[C:4](=[N:5][H:14])([H:12])[H:13]"
C        0.56994763       1.70943509       0.52113837
C        0.78176848       0.21478152       0.44070782
O        1.29035512      -0.40273853       1.57577846
C       -1.17805397      -1.08625303      -0.04149201
N       -1.52453091      -0.95762604      -1.31330264
C        1.29720387      -0.25769794      -0.74853595
N        1.14258688      -0.56985121      -1.89032736
H        1.47936736       2.23323227       0.82581034
H       -0.20955662       1.94407027       1.24999072
H        0.23772388       2.10478266      -0.43927161
H        1.07576540       0.09740639       2.36855882
H       -1.62401710      -0.55768024       0.79127231
H       -0.96992483      -2.10107022       0.31159505
H       -1.96949305      -1.79698396      -1.67004588
H       -0.39914215      -0.57380703      -1.98187645
15
Frame=9 idx=006999 GeodesicLength=1.1584163549165942 rxn_smarts="[C:1]([C@@:2]([O:3][H:11])([C:4]([N:5]([H:14])[H:15])([H:12])[H:13])[C:6]#[N:7])([H:8])([H:9])[H:10]>>[C:1]([C:2]([O:3][H:11])=[C:6]=[N:7][H:15])([H:8])([H:9])[H:10].[C:4](=[N:5][H:14])([H:12])[H:13]"
C        0.57445107       1.71241006       0.48702612
C        0.78812998       0.21475990       0.44634077
O        1.29061203      -0.36000668       1.60717972
C       -1.14744047      -1.12662071      -0.02856848
N       -1.53931349      -0.89512639      -1.27568118
C        1.33753675      -0.27405598      -0.72441844
N        1.17808128      -0.58710400      -1.86584235
H        1.47904920       2.24324267       0.79272589
H       -0.21764704       1.96472900       1.19601687
H        0.25654938       2.08372793      -0.48781839
H        0.96323700       0.10805011       2.38150311
H       -1.55784556      -0.69853728       0.87639047
H       -0.92579824      -2.17097415       0.21701907
H       -2.06729424      -1.67338023      -1.65626173
H       -0.41230766      -0.54111425      -1.96561145
15
Frame=10 idx=006999 GeodesicLength=1.2848725735224953 rxn_smarts="[C:1]([C@@:2]([O:3][H:11])([C:4]([N:5]([H:14])[H:15])([H:12])[H:13])[C:6]#[N:7])([H:8])([H:9])[H:10]>>[C:1]([C:2]([O:3][H:11])=[C:6]=[N:7][H:15])([H:8])([H:9])[H:10].[C:4](=[N:5][H:14])([H:12])[H:13]"
C        0.57787839       1.71479406       0.45368750
C        0.79283541       0.21505079       0.45184767
O        1.28435761      -0.31621778       1.63883545
C       -1.11744696      -1.16699366      -0.01839615
N       -1.55089473      -0.83595362      -1.23236965
C        1.37785166      -0.28850010      -0.69887801
N        1.21507555      -0.60324799      -1.83999121
H        1.47747528       2.25260993       0.76090339
H       -0.22684778       1.98352028       1.14203665
H        0.27549105       2.06251253      -0.53484947
H        0.85514058       0.11444697       2.38545125
H       -1.48521683      -0.84211739       0.94533868
H       -0.89159424      -2.23122265       0.11908658
H       -2.15772202      -1.54791556      -1.62440323
H       -0.42638298      -0.51076580      -1.94829945
15
Frame=11 idx=006999 GeodesicLength=1.4106025921967946 rxn_smarts="[C:1]([C@@:2]([O:3][H:11])([C:4]([N:5]([H:14])[H:15])([H:12])[H:13])[C:6]#[N:7])([H:8])([H:9])[H:10]>>[C:1]([C:2]([O:3][H:11])=[C:6]=[N:7][H:15])([H:8])([H:9])[H:10].[C:4](=[N:5][H:14])([H:12])[H:13]"
C        0.58235271       1.71790051       0.42213568
C        0.79439837       0.21631017       0.45677579
O        1.26969569      -0.27255635       1.66938251
C       -1.08916601      -1.20719758      -0.01201139
N       -1.56075709      -0.78496514      -1.18649338
C        1.41633972      -0.30026923      -0.67241033
N        1.25232458      -0.61613554      -1.81363469
H        1.47776887       2.26027476       0.73242350
H       -0.23444091       2.00308861       1.08923640
H        0.29759198       2.04390221      -0.57905276
H        0.75009091       0.11650778       2.38156799
H       -1.40743411      -0.98413920       0.99664979
H       -0.86582404      -2.28142794       0.02138398
H       -2.23939782      -1.43034604      -1.57518815
H       -0.44354284      -0.48094702      -1.93076496
15
Frame=12 idx=006999 GeodesicLength=1.5378734803958398 rxn_smarts="[C:1]([C@@:2]([O:3][H:11])([C:4]([N:5]([H:14])[H:15])([H:12])[H:13])[C:6]#[N:7])([H:8])([H:9])[H:10]>>[C:1]([C:2]([O:3][H:11])=[C:6]=[N:7][H:15])([H:8])([H:9])[H:10].[C:4](=[N:5][H:14])([H:12])[H:13]"
C        0.58648765       1.72088874       0.39061195
C        0.79453243       0.21808657       0.46143323
O        1.24745897      -0.22812527       1.69989725
C       -1.06032900      -1.24876859      -0.00831233
N       -1.56788175      -0.73688242      -1.13511099
C        1.45530628      -0.31030105      -0.64396570
N        1.29209967      -0.62807474      -1.78546749
H        1.47764185       2.26763662       0.70445737
H       -0.24225266       2.02221904       1.03540145
H        0.32045184       2.02520696      -0.62262577
H        0.64633408       0.11629047       2.37079186
H       -1.32228523      -1.12934295       1.03309962
H       -0.85074709      -2.32514985      -0.07898039
H       -2.31445908      -1.31153348      -1.50924362
H       -0.46235794      -0.45215005      -1.91198645
15
Frame=13 idx=006999 GeodesicLength=1.6637427124125765 rxn_smarts="[C:1]([C@@:2]([O:3][H:11])([C:4]([N:5]([H:14])[H:15])([H:12])[H:13])[C:6]#[N:7])([H:8])([H:9])[H:10]>>[C:1]([C:2]([O:3][H:11])=[C:6]=[N:7][H:15])([H:8])([H:9])[H:10].[C:4](=[N:5][H:14])([H:12])[H:13]"
C        0.59379305       1.72589948       0.36098016
C        0.79075302       0.22146324       0.46491548
O        1.21528141      -0.18428186       1.72833397
C       -1.03333540      -1.29052429      -0.00851770
N       -1.57571541      -0.69919584      -1.08314585
C        1.49163706      -0.31765801      -0.61453897
N        1.33177858      -0.63649298      -1.75690069
H        1.48218850       2.27290262       0.68109594
H       -0.24602139       2.04493071       0.98242024
H        0.34967774       2.01111268      -0.66338133
H        0.54154685       0.11176306       2.35291526
H       -1.23186421      -1.27025560       1.05288866
H       -0.84188905      -2.36080792      -0.17604739
H       -2.38143373      -1.20763377      -1.42833600
H       -0.48639700      -0.42122150      -1.89268179
15
Frame=14 idx=006999 GeodesicLength=1.7914402562063243 rxn_smarts="[C:1]([C@@:2]([O:3][H:11])([C:4]([N:5]([H:14])[H:15])([H:12])[H:13])[C:6]#[N:7])([H:8])([H:9])[H:10]>>[C:1]([C:2]([O:3][H:11])=[C:6]=[N:7][H:15])([H:8])([H:9])[H:10].[C:4](=[N:5][H:14])([H:12])[H:13]"
C        0.60120717       1.73091468       0.33100639
C        0.78599291       0.22543165       0.46767466
O        1.17379123      -0.14040119       1.75596346
C       -1.00493853      -1.33370413      -0.01169296
N       -1.58116643      -0.66431625      -1.02559730
C        1.52896519      -0.32348143      -0.58270325
N        1.37502127      -0.64441470      -1.72601960
H        1.48625717       2.27797251       0.65913338
H       -0.25001637       2.06748973       0.92701266
H        0.38093301       1.99694634      -0.70398479
H        0.43500602       0.10575243       2.32768865
H       -1.13202221      -1.41285474       1.05742964
H       -0.84450191      -2.39108158      -0.27461888
H       -2.44165091      -1.10373931      -1.32970639
H       -0.51287761      -0.39051401      -1.87158568
15
Frame=15 idx=006999 GeodesicLength=1.9186739786183598 rxn_smarts="[C:1]([C@@:2]([O:3][H:11])([C:4]([N:5]([H:14])[H:15])([H:12])[H:13])[C:6]#[N:7])([H:8])([H:9])[H:10]>>[C:1]([C:2]([O:3][H:11])=[C:6]=[N:7][H:15])([H:8])([H:9])[H:10].[C:4](=[N:5][H:14])([H:12])[H:13]"
C        0.61255892       1.73828624       0.30273594
C        0.77757315       0.23118038       0.46865435
O        1.12133219      -0.09736496       1.78057582
C       -0.97798021      -1.37688984      -0.01868904
N       -1.58876747      -0.63957857      -0.96806372
C        1.56410686      -0.32692135      -0.54940453
N        1.41919458      -0.64977285      -1.69412021
H        1.49543440       2.28110165       0.64261532
H       -0.24921189       2.09429379       0.87160163
H        0.41991661       1.98749017      -0.74205513
H        0.32511917       0.09539464       2.29427640
H       -1.02566747      -1.54819179       1.04579255
H       -0.85311000      -2.41537359      -0.36758541
H       -2.49490726      -1.01675020      -1.21702745
H       -0.54559158      -0.35690373      -1.84930652
15
Frame=16 idx=006999 GeodesicLength=2.04822066755552 rxn_smarts="[C:1]([C@@:2]([O:3][H:11])([C:4]([N:5]([H:14])[H:15])([H:12])[H:13])[C:6]#[N:7])([H:8])([H:9])[H:10]>>[C:1]([C:2]([O:3][H:11])=[C:6]=[N:7][H:15])([H:8])([H:9])[H:10].[C:4](=[N:5][H:14])([H:12])[H:13]"
C        0.62437844       1.74549166       0.27440779
C        0.76869013       0.23739632       0.46817274
O        1.05816904      -0.05570365       1.80240152
C       -0.94949929      -1.42013878      -0.02899838
N       -1.59451654      -0.61823019      -0.90560607
C        1.60051088      -0.32883678      -0.51360779
N        1.46787501      -0.65498165      -1.65960904
H        1.50363226       2.28382277       0.62927023
H       -0.24850972       2.12038849       0.81323746
H        0.46211386       1.97792580      -0.77945807
H        0.21217592       0.08322608       2.25142901
H       -0.90989658      -1.67961071       1.01745006
H       -0.87418006      -2.43448793      -0.45790047
H       -2.53901887      -0.93349577      -1.08654937
H       -0.58192447      -0.32276565      -1.82463961
