10
Frame=0 idx=010938 GeodesicLength=0.0 rxn_smarts="[N:1]([c:2]1[n:3][c:4]([H:10])[n:5][n:6][n:7]1)([H:8])[H:9]>>[N:1]([C@@:2]1([N:7]=[N+:6]=[N-:5])[N:3]=[C:4]1[H:10])([H:8])[H:9]"
N        1.61647511      -0.21605326       0.30775639
C        0.34296290      -0.01536876      -0.13075473
N       -0.28826722      -1.04522637      -0.81296885
C       -1.04591288      -0.75592393       0.19519529
N       -2.04525928       0.85478079       0.05053676
N       -1.16413310       1.53702414      -0.30982111
N        0.06366683       1.42645682      -0.37230689
H        2.13104803      -0.96261665      -0.12984807
H        2.13531407       0.61538596       0.53170671
H       -1.74589446      -1.43845874       0.67050450
10
Frame=1 idx=010938 GeodesicLength=0.03524762616979859 rxn_smarts="[N:1]([c:2]1[n:3][c:4]([H:10])[n:5][n:6][n:7]1)([H:8])[H:9]>>[N:1]([C@@:2]1([N:7]=[N+:6]=[N-:5])[N:3]=[C:4]1[H:10])([H:8])[H:9]"
N        1.62104899      -0.21224456       0.30926732
C        0.34611977      -0.01234988      -0.12753973
N       -0.28688338      -1.04163038      -0.81155722
C       -1.05232267      -0.75730952       0.19164298
N       -2.05413396       0.85691686       0.04448750
N       -1.16644176       1.54175583      -0.30370538
N        0.06262236       1.42388410      -0.36382030
H        2.12768944      -0.97209846      -0.11433258
H        2.14847447       0.61986637       0.50961962
H       -1.74617328      -1.44679037       0.66593779
10
Frame=2 idx=010938 GeodesicLength=0.07051877116263001 rxn_smarts="[N:1]([c:2]1[n:3][c:4]([H:10])[n:5][n:6][n:7]1)([H:8])[H:9]>>[N:1]([C@@:2]1([N:7]=[N+:6]=[N-:5])[N:3]=[C:4]1[H:10])([H:8])[H:9]"
N        1.62571868      -0.20823964       0.31080494
C        0.34930038      -0.00927462      -0.12415576
N       -0.28538284      -1.03791895      -0.81017179
C       -1.05879174      -0.75875082       0.18788456
N       -2.06308030       0.85903923       0.03815758
N       -1.16880917       1.54652082      -0.29724726
N        0.06149715       1.42143039      -0.35478649
H        2.12407238      -0.98161821      -0.09776148
H        2.16182750       0.62405442       0.48612873
H       -1.74635203      -1.45524262       0.66114696
10
Frame=3 idx=010938 GeodesicLength=0.10578058683063632 rxn_smarts="[N:1]([c:2]1[n:3][c:4]([H:10])[n:5][n:6][n:7]1)([H:8])[H:9]>>[N:1]([C@@:2]1([N:7]=[N+:6]=[N-:5])[N:3]=[C:4]1[H:10])([H:8])[H:9]"
N        1.63050137      -0.20399907       0.31235576
C        0.35250520      -0.00613044      -0.12056969
N       -0.28374283      -1.03403776      -0.80879743
C       -1.06531490      -0.76022905       0.18389071
N       -2.07210351       0.86112135       0.03152410
N       -1.17125104       1.55127931      -0.29039337
N        0.06027870       1.41906702      -0.34512737
H        2.12016335      -0.99113385      -0.07996333
H        2.17538714       0.62785054       0.46101736
H       -1.74642348      -1.46378807       0.65606328
10
Frame=4 idx=010938 GeodesicLength=0.14103953473160039 rxn_smarts="[N:1]([c:2]1[n:3][c:4]([H:10])[n:5][n:6][n:7]1)([H:8])[H:9]>>[N:1]([C@@:2]1([N:7]=[N+:6]=[N-:5])[N:3]=[C:4]1[H:10])([H:8])[H:9]"
N        1.63541894      -0.19943789       0.31393953
C        0.35573520      -0.00287624      -0.11672321
N       -0.28191022      -1.02990835      -0.80747254
C       -1.07187817      -0.76175343       0.17959814
N       -2.08123472       0.86312494       0.02453725
N       -1.17380429       1.55604463      -0.28299011
N        0.05893230       1.41683523      -0.33468697
H        2.11584309      -1.00073484      -0.06048062
H        2.18926401       0.63118569       0.43373211
H       -1.74636614      -1.47247974       0.65054643
10
Frame=5 idx=010938 GeodesicLength=0.17629243293366112 rxn_smarts="[N:1]([c:2]1[n:3][c:4]([H:10])[n:5][n:6][n:7]1)([H:8])[H:9]>>[N:1]([C@@:2]1([N:7]=[N+:6]=[N-:5])[N:3]=[C:4]1[H:10])([H:8])[H:9]"
N        1.64047106      -0.19479777       0.31541715
C        0.35898578       0.00033393      -0.11271403
N       -0.28002988      -1.02583321      -0.80602517
C       -1.07852737      -0.76331179       0.17519894
N       -2.09033031       0.86521924       0.01718669
N       -1.17633307       1.56078818      -0.27549933
N        0.05759032       1.41461059      -0.32381678
H        2.11155741      -1.00975033      -0.04078021
H        2.20285602       0.63387170       0.40594335
H       -1.74623996      -1.48113054       0.64508939
10
Frame=6 idx=010938 GeodesicLength=0.21152423751492327 rxn_smarts="[N:1]([c:2]1[n:3][c:4]([H:10])[n:5][n:6][n:7]1)([H:8])[H:9]>>[N:1]([C@@:2]1([N:7]=[N+:6]=[N-:5])[N:3]=[C:4]1[H:10])([H:8])[H:9]"
N        1.64566672      -0.19001597       0.31679199
C        0.36225906       0.00352707      -0.10850152
N       -0.27805989      -1.02172321      -0.80446177
C       -1.08525825      -0.76488532       0.17063851
N       -2.09941042       0.86735255       0.00943558
N       -1.17885810       1.56547435      -0.26778802
N        0.05623113       1.41236932      -0.31240778
H        2.10723718      -1.01824428      -0.02054978
H        2.21623310       0.63587572       0.37726827
H       -1.74604054      -1.48973022       0.63957453
10
Frame=7 idx=010938 GeodesicLength=0.24675478465873607 rxn_smarts="[N:1]([c:2]1[n:3][c:4]([H:10])[n:5][n:6][n:7]1)([H:8])[H:9]>>[N:1]([C@@:2]1([N:7]=[N+:6]=[N-:5])[N:3]=[C:4]1[H:10])([H:8])[H:9]"
N        1.65102264      -0.18506509       0.31806787
C        0.36555231       0.00671202      -0.10404871
N       -0.27598564      -1.01758186      -0.80280216
C       -1.09206408      -0.76649872       0.16590123
N       -2.10847308       0.86954156       0.00124863
N       -1.18139309       1.57014607      -0.25980357
N        0.05483605       1.41015286      -0.30040711
H        2.10285985      -1.02625034       0.00034186
H        2.22940923       0.63717618       0.34753875
H       -1.74576419      -1.49833269       0.63396320
10
Frame=8 idx=010938 GeodesicLength=0.28198673537775315 rxn_smarts="[N:1]([c:2]1[n:3][c:4]([H:10])[n:5][n:6][n:7]1)([H:8])[H:9]>>[N:1]([C@@:2]1([N:7]=[N+:6]=[N-:5])[N:3]=[C:4]1[H:10])([H:8])[H:9]"
N        1.65655860      -0.17991921       0.31920694
C        0.36886751       0.00989076      -0.09932834
N       -0.27379264      -1.01338894      -0.80102877
C       -1.09894528      -0.76814331       0.16097653
N       -2.11751074       0.87177538      -0.00740719
N       -1.18394035       1.57477916      -0.25150726
N        0.05340440       1.40794264      -0.28775970
H        2.09843948      -1.03370341       0.02196915
H        2.24234605       0.63768400       0.31665960
H       -1.74542704      -1.50691707       0.62821903
10
Frame=9 idx=010938 GeodesicLength=0.3172434113060355 rxn_smarts="[N:1]([c:2]1[n:3][c:4]([H:10])[n:5][n:6][n:7]1)([H:8])[H:9]>>[N:1]([C@@:2]1([N:7]=[N+:6]=[N-:5])[N:3]=[C:4]1[H:10])([H:8])[H:9]"
N        1.66229781      -0.17454075       0.32019584
C        0.37220542       0.01306927      -0.09429562
N       -0.27145388      -1.00912300      -0.79914891
C       -1.10589943      -0.76982609       0.15583093
N       -2.12651783       0.87405734      -0.01657630
N       -1.18650785       1.57938258      -0.24281689
N        0.05192580       1.40574025      -0.27438346
H        2.09395406      -1.04062883       0.04450717
H        2.25502950       0.63737440       0.28440595
H       -1.74503361      -1.51550517       0.62228130
10
Frame=10 idx=010938 GeodesicLength=0.35254493139108767 rxn_smarts="[N:1]([c:2]1[n:3][c:4]([H:10])[n:5][n:6][n:7]1)([H:8])[H:9]>>[N:1]([C@@:2]1([N:7]=[N+:6]=[N-:5])[N:3]=[C:4]1[H:10])([H:8])[H:9]"
N        1.66826246      -0.16889117       0.32100417
C        0.37556379       0.01625438      -0.08890390
N       -0.26894926      -1.00476578      -0.79715585
C       -1.11292785      -0.77155397       0.15044297
N       -2.13548139       0.87639376      -0.02628345
N       -1.18910543       1.58395334      -0.23369246
N        0.05039043       1.40355375      -0.26020655
H        2.08940540      -1.04695543       0.06809414
H        2.26743793       0.63612814       0.25060847
H       -1.74459607      -1.52411701       0.61609246
10
Frame=11 idx=010938 GeodesicLength=0.387923224406399 rxn_smarts="[N:1]([c:2]1[n:3][c:4]([H:10])[n:5][n:6][n:7]1)([H:8])[H:9]>>[N:1]([C@@:2]1([N:7]=[N+:6]=[N-:5])[N:3]=[C:4]1[H:10])([H:8])[H:9]"
N        1.67448998      -0.16291735       0.32158509
C        0.37894896       0.01944656      -0.08308740
N       -0.26623196      -1.00031326      -0.79504403
C       -1.12002705      -0.77333485       0.14479068
N       -2.14438016       0.87877840      -0.03662345
N       -1.19172112       1.58849740      -0.22397997
N        0.04880681       1.40137693      -0.24513723
H        2.08479057      -1.05262153       0.09294249
H        2.27948715       0.63385008       0.21498515
H       -1.74416319      -1.53276238       0.60956867
10
Frame=12 idx=010938 GeodesicLength=0.4232474590124085 rxn_smarts="[N:1]([c:2]1[n:3][c:4]([H:10])[n:5][n:6][n:7]1)([H:8])[H:9]>>[N:1]([C@@:2]1([N:7]=[N+:6]=[N-:5])[N:3]=[C:4]1[H:10])([H:8])[H:9]"
N        1.68096254      -0.15665901       0.32189702
C        0.38234379       0.02261324      -0.07683981
N       -0.26334162      -0.99577937      -0.79277355
C       -1.12717122      -0.77515747       0.13888764
N       -2.15312760       0.88126840      -0.04757029
N       -1.19433930       1.59298791      -0.21378871
N        0.04715682       1.39916183      -0.22922282
H        2.08017234      -1.05747902       0.11882116
H        2.29102031       0.63044935       0.17782734
H       -1.74367606      -1.54140587       0.60276202
10
Frame=13 idx=010938 GeodesicLength=0.45863352813962693 rxn_smarts="[N:1]([c:2]1[n:3][c:4]([H:10])[n:5][n:6][n:7]1)([H:8])[H:9]>>[N:1]([C@@:2]1([N:7]=[N+:6]=[N-:5])[N:3]=[C:4]1[H:10])([H:8])[H:9]"
N        1.68765280      -0.15037533       0.32187455
C        0.38575903       0.02560230      -0.07029980
N       -0.26044597      -0.99142329      -0.79014263
C       -1.13445038      -0.77696493       0.13292912
N       -2.16165494       0.88394524      -0.05916976
N       -1.19684513       1.59733934      -0.20341810
N        0.04556875       1.39669459      -0.21293220
H        2.07606853      -1.06115319       0.14420071
H        2.30165237       0.62611090       0.14084822
H       -1.74330505      -1.54977563       0.59610987
10
Frame=14 idx=010938 GeodesicLength=0.494022604516774 rxn_smarts="[N:1]([c:2]1[n:3][c:4]([H:10])[n:5][n:6][n:7]1)([H:8])[H:9]>>[N:1]([C@@:2]1([N:7]=[N+:6]=[N-:5])[N:3]=[C:4]1[H:10])([H:8])[H:9]"
N        1.69455114      -0.14403250       0.32150688
C        0.38919084       0.02842410      -0.06342557
N       -0.25749481      -0.98722225      -0.78718134
C       -1.14183793      -0.77877362       0.12688186
N       -2.16993136       0.88682957      -0.07146040
N       -1.19926218       1.60157921      -0.19278065
N        0.04400026       1.39400975      -0.19618200
H        2.07242807      -1.06374028       0.16930272
H        2.31138431       0.62084512       0.10379349
H       -1.74302836      -1.55791910       0.58954500
10
Frame=15 idx=010938 GeodesicLength=0.5294835291095462 rxn_smarts="[N:1]([c:2]1[n:3][c:4]([H:10])[n:5][n:6][n:7]1)([H:8])[H:9]>>[N:1]([C@@:2]1([N:7]=[N+:6]=[N-:5])[N:3]=[C:4]1[H:10])([H:8])[H:9]"
N        1.70166111      -0.13761067       0.32078217
C        0.39263984       0.03107806      -0.05621160
N       -0.25452003      -0.98319958      -0.78390572
C       -1.14934345      -0.78061022       0.12073862
N       -2.17791687       0.88994046      -0.08442803
N       -1.20158310       1.60572016      -0.18186162
N        0.04245853       1.39112805      -0.17897661
H        2.06926762      -1.06526353       0.19416672
H        2.32021943       0.61470043       0.06665141
H       -1.74288308      -1.56588317       0.58304467
10
Frame=16 idx=010938 GeodesicLength=0.5649344320904736 rxn_smarts="[N:1]([c:2]1[n:3][c:4]([H:10])[n:5][n:6][n:7]1)([H:8])[H:9]>>[N:1]([C@@:2]1([N:7]=[N+:6]=[N-:5])[N:3]=[C:4]1[H:10])([H:8])[H:9]"
N        1.70890744      -0.13126569       0.31971125
C        0.39610603       0.03348860      -0.04877422
N       -0.25160678      -0.97946981      -0.78024442
C       -1.15697881      -0.78244427       0.11459306
N       -2.18553825       0.89332405      -0.09804768
N       -1.20376231       1.60971206      -0.17084780
N        0.04097128       1.38794238      -0.16159428
H        2.06679618      -1.06569606       0.21798553
H        2.32800652       0.60792858       0.03035941
H       -1.74290130      -1.57351985       0.57685916
