12
Frame=0 idx=011182 GeodesicLength=0.0 rxn_smarts="[N:1]([c:2]1[n:3][c:4]([O:5][H:10])[c:6]([H:11])[n:7]1[H:12])([H:8])[H:9]>>[N-:1]([C+:2]1[N-:3][C+:4]([O:5][H:10])[C:6]([H:9])([H:11])[N:7]1[H:12])[H:8]"
N       -1.76139817      -0.48157892       0.52913288
C       -0.63181476       0.03953391       0.98715056
N        0.53631294      -0.69442264       0.98287019
C        1.06511466      -0.22591355      -0.11519887
O        2.17858211      -0.69678677      -0.66005245
C        0.24024606       0.78194544      -0.73562320
N       -0.45320964       1.29187100       0.42829803
H       -1.79526032      -1.48307927       0.69822998
H       -1.11250296      -0.22901062      -0.70386952
H        2.45327580      -1.46727906      -0.14957514
H        0.63471897       1.46393961      -1.47906422
H       -1.35406469       1.70078087       0.21770179
12
Frame=1 idx=011182 GeodesicLength=0.05867167342708479 rxn_smarts="[N:1]([c:2]1[n:3][c:4]([O:5][H:10])[c:6]([H:11])[n:7]1[H:12])([H:8])[H:9]>>[N-:1]([C+:2]1[N-:3][C+:4]([O:5][H:10])[C:6]([H:9])([H:11])[N:7]1[H:12])[H:8]"
N       -1.76673900      -0.48898448       0.53364414
C       -0.63571533       0.03589043       0.98716005
N        0.53603632      -0.69220110       0.98058580
C        1.07053921      -0.22063382      -0.11491791
O        2.18096121      -0.69839126      -0.66109837
C        0.24163072       0.78080065      -0.74014503
N       -0.45256815       1.28644581       0.42463961
H       -1.79710424      -1.48884123       0.71113760
H       -1.12479324      -0.22992027      -0.72162341
H        2.45505247      -1.46592093      -0.14593953
H        0.63955387       1.46969830      -1.47532354
H       -1.34685385       1.71205791       0.22188061
12
Frame=2 idx=011182 GeodesicLength=0.11732640970167865 rxn_smarts="[N:1]([c:2]1[n:3][c:4]([O:5][H:10])[c:6]([H:11])[n:7]1[H:12])([H:8])[H:9]>>[N-:1]([C+:2]1[N-:3][C+:4]([O:5][H:10])[C:6]([H:9])([H:11])[N:7]1[H:12])[H:8]"
N       -1.77202906      -0.49655703       0.53817919
C       -0.63964453       0.03222792       0.98718115
N        0.53572067      -0.68996228       0.97830190
C        1.07601995      -0.21525717      -0.11452556
O        2.18330517      -0.69999859      -0.66205113
C        0.24304781       0.77960316      -0.74467812
N       -0.45204976       1.28094517       0.42087707
H       -1.79878357      -1.49468935       0.72405346
H       -1.13732397      -0.23058064      -0.73972806
H        2.45681426      -1.46452435      -0.14222029
H        0.64419465       1.47528598      -1.47166336
H       -1.33927161       1.72350721       0.22627376
12
Frame=3 idx=011182 GeodesicLength=0.17596821173472132 rxn_smarts="[N:1]([c:2]1[n:3][c:4]([O:5][H:10])[c:6]([H:11])[n:7]1[H:12])([H:8])[H:9]>>[N-:1]([C+:2]1[N-:3][C+:4]([O:5][H:10])[C:6]([H:9])([H:11])[N:7]1[H:12])[H:8]"
N       -1.77726568      -0.50430538       0.54273844
C       -0.64360481       0.02854627       0.98721351
N        0.53536683      -0.68770061       0.97602305
C        1.08155623      -0.20978008      -0.11401675
O        2.18562893      -0.70158671      -0.66288749
C        0.24449519       0.77834652      -0.74922441
N       -0.45166355       1.27536489       0.41700165
H       -1.80029156      -1.50063007       0.73698692
H       -1.15010214      -0.23097969      -0.75820010
H        2.45854159      -1.46310377      -0.13843115
H        0.64863671       1.48069744      -1.46809270
H       -1.33129774       1.73513119       0.23088903
12
Frame=4 idx=011182 GeodesicLength=0.23460105206802723 rxn_smarts="[N:1]([c:2]1[n:3][c:4]([O:5][H:10])[c:6]([H:11])[n:7]1[H:12])([H:8])[H:9]>>[N-:1]([C+:2]1[N-:3][C+:4]([O:5][H:10])[C:6]([H:9])([H:11])[N:7]1[H:12])[H:8]"
N       -1.78244348      -0.51224223       0.54732248
C       -0.64759912       0.02484732       0.98725703
N        0.53497828      -0.68540259       0.97375938
C        1.08714998      -0.20419271      -0.11338120
O        2.18795930      -0.70311640      -0.66356808
C        0.24597159       0.77702461      -0.75378636
N       -0.45142392       1.26970313       0.41300047
H       -1.80161612      -1.50667111       0.74994884
H       -1.16313074      -0.23110920      -0.77705671
H        2.46019180      -1.46169782      -0.13460581
H        0.65287541       1.48592808      -1.46462188
H       -1.32291298       1.74692893       0.23573184
12
Frame=5 idx=011182 GeodesicLength=0.2932254437743613 rxn_smarts="[N:1]([c:2]1[n:3][c:4]([O:5][H:10])[c:6]([H:11])[n:7]1[H:12])([H:8])[H:9]>>[N-:1]([C+:2]1[N-:3][C+:4]([O:5][H:10])[C:6]([H:9])([H:11])[N:7]1[H:12])[H:8]"
N       -1.78756525      -0.52037246       0.55193266
C       -0.65163032       0.02112703       0.98730990
N        0.53455161      -0.68307193       0.97150723
C        1.09279372      -0.19850031      -0.11262309
O        2.19030786      -0.70457130      -0.66407994
C        0.24747112       0.77562630      -0.75837019
N       -0.45133753       1.26395335       0.40886503
H       -1.80276160      -1.51281538       0.76294810
H       -1.17642580      -0.23095725      -0.79631394
H        2.46177227      -1.46029693      -0.13073531
H        0.65690499       1.49097222      -1.46126239
H       -1.31408107       1.75890668       0.24082194
12
Frame=6 idx=011182 GeodesicLength=0.35184928045988456 rxn_smarts="[N:1]([c:2]1[n:3][c:4]([O:5][H:10])[c:6]([H:11])[n:7]1[H:12])([H:8])[H:9]>>[N-:1]([C+:2]1[N-:3][C+:4]([O:5][H:10])[C:6]([H:9])([H:11])[N:7]1[H:12])[H:8]"
N       -1.79263183      -0.52870481       0.55657250
C       -0.65570217       0.01738190       0.98736953
N        0.53408471      -0.68070852       0.96926610
C        1.09848085      -0.19270620      -0.11174421
O        2.19269067      -0.70592715      -0.66440275
C        0.24898930       0.77414164      -0.76298137
N       -0.45141455       1.25810781       0.40458304
H       -1.80372686      -1.51906675       0.77599612
H       -1.18999965      -0.23050369      -0.81599351
H        2.46327717      -1.45890064      -0.12681823
H        0.66071760       1.49581958      -1.45802629
H       -1.30476524       1.77106685       0.24617906
12
Frame=7 idx=011182 GeodesicLength=0.41047350626940976 rxn_smarts="[N:1]([c:2]1[n:3][c:4]([O:5][H:10])[c:6]([H:11])[n:7]1[H:12])([H:8])[H:9]>>[N-:1]([C+:2]1[N-:3][C+:4]([O:5][H:10])[C:6]([H:9])([H:11])[N:7]1[H:12])[H:8]"
N       -1.79764233      -0.53724794       0.56124772
C       -0.65981712       0.01361075       0.98743433
N        0.53357771      -0.67830776       0.96703894
C        1.10420675      -0.18681002      -0.11074368
O        2.19512889      -0.70715349      -0.66450951
C        0.25052229       0.77256112      -0.76762492
N       -0.45166509       1.25216068       0.40014318
H       -1.80450856      -1.52543034       0.78910401
H       -1.20386181      -0.22973509      -0.83611298
H        2.46468855      -1.45752415      -0.12286649
H        0.66430964       1.50046692      -1.45492295
H       -1.29493892       1.78340932       0.25181236
12
Frame=8 idx=011182 GeodesicLength=0.4691011577165094 rxn_smarts="[N:1]([c:2]1[n:3][c:4]([O:5][H:10])[c:6]([H:11])[n:7]1[H:12])([H:8])[H:9]>>[N-:1]([C+:2]1[N-:3][C+:4]([O:5][H:10])[C:6]([H:9])([H:11])[N:7]1[H:12])[H:8]"
N       -1.80260566      -0.54600684       0.56595928
C       -0.66398116       0.00980344       0.98749912
N        0.53302126      -0.67588378       0.96481330
C        1.10995543      -0.18082727      -0.10963564
O        2.19762347      -0.70824851      -0.66440441
C        0.25205955       0.77086827      -0.77231211
N       -0.45209829       1.24609969       0.39553239
H       -1.80512057      -1.53190621       0.80227967
H       -1.21804263      -0.22862354      -0.85669414
H        2.46605191      -1.45611628      -0.11883364
H        0.66766883       1.50489857      -1.45196949
H       -1.28453215       1.79594247       0.25776566
12
Frame=9 idx=011182 GeodesicLength=0.5277259127677665 rxn_smarts="[N:1]([c:2]1[n:3][c:4]([O:5][H:10])[c:6]([H:11])[n:7]1[H:12])([H:8])[H:9]>>[N-:1]([C+:2]1[N-:3][C+:4]([O:5][H:10])[C:6]([H:9])([H:11])[N:7]1[H:12])[H:8]"
N       -1.80752471      -0.55498879       0.57071126
C       -0.66819808       0.00595613       0.98756160
N        0.53241278      -0.67343612       0.96258864
C        1.11571888      -0.17475963      -0.10842214
O        2.20019066      -0.70918923      -0.66406838
C        0.25359486       0.76905150      -0.77704966
N       -0.45272710       1.23991756       0.39073855
H       -1.80556493      -1.53850006       0.81553397
H       -1.23255527      -0.22715442      -0.87775269
H        2.46736714      -1.45467665      -0.11471897
H        0.67078968       1.50911009      -1.44917627
H       -1.27350392       1.80866964       0.26405409
12
Frame=10 idx=011182 GeodesicLength=0.5863553063532349 rxn_smarts="[N:1]([c:2]1[n:3][c:4]([O:5][H:10])[c:6]([H:11])[n:7]1[H:12])([H:8])[H:9]>>[N-:1]([C+:2]1[N-:3][C+:4]([O:5][H:10])[C:6]([H:9])([H:11])[N:7]1[H:12])[H:8]"
N       -1.81240557      -0.56420452       0.57550658
C       -0.67247600       0.00206199       0.98761446
N        0.53174447      -0.67097010       0.96035792
C        1.12148257      -0.16861655      -0.10711332
O        2.20284025      -0.70995886      -0.66349126
C        0.25511701       0.76709473      -0.78185061
N       -0.45356673       1.23360130       0.38574240
H       -1.80584804      -1.54521317       0.82887978
H       -1.24742489      -0.22530099      -0.89931678
H        2.46865377      -1.45317136      -0.11049117
H        0.67366111       1.51308694      -1.44656069
H       -1.26177796       1.82159057       0.27072268
12
Frame=11 idx=011182 GeodesicLength=0.6449885022428887 rxn_smarts="[N:1]([c:2]1[n:3][c:4]([O:5][H:10])[c:6]([H:11])[n:7]1[H:12])([H:8])[H:9]>>[N-:1]([C+:2]1[N-:3][C+:4]([O:5][H:10])[C:6]([H:9])([H:11])[N:7]1[H:12])[H:8]"
N       -1.81725402      -0.57366549       0.58034773
C       -0.67682409      -0.00188345       0.98765116
N        0.53101046      -0.66848164       0.95812093
C        1.12723553      -0.16239613      -0.10571099
O        2.20558582      -0.71053412      -0.66265398
C        0.25661611       0.76498439      -0.78672602
N       -0.45463924       1.22714253       0.38052439
H       -1.80597110      -1.55205208       0.84232791
H       -1.26266670      -0.22304612      -0.92141070
H        2.46991499      -1.45158901      -0.10613841
H        0.67627056       1.51681809      -1.44414056
H       -1.24927833       1.83470303       0.27780853
12
Frame=12 idx=011182 GeodesicLength=0.7036221054670198 rxn_smarts="[N:1]([c:2]1[n:3][c:4]([O:5][H:10])[c:6]([H:11])[n:7]1[H:12])([H:8])[H:9]>>[N-:1]([C+:2]1[N-:3][C+:4]([O:5][H:10])[C:6]([H:9])([H:11])[N:7]1[H:12])[H:8]"
N       -1.82207812      -0.58338140       0.58523721
C       -0.68125108      -0.00588856       0.98766487
N        0.53020162      -0.66597863       0.95586907
C        1.13296108      -0.15610878      -0.10422683
O        2.20843199      -0.71090278      -0.66155065
C        0.25807913       0.76270303      -0.79168892
N       -0.45596231       1.22052679       0.37506513
H       -1.80594454      -1.55901918       0.85588898
H       -1.27830925      -0.22036150      -0.94405893
H        2.47118264      -1.44988391      -0.10162182
H        0.67860472       1.52028860      -1.44193402
H       -1.23591589       1.84800634       0.28535593
12
Frame=13 idx=011182 GeodesicLength=0.7622534372351668 rxn_smarts="[N:1]([c:2]1[n:3][c:4]([O:5][H:10])[c:6]([H:11])[n:7]1[H:12])([H:8])[H:9]>>[N-:1]([C+:2]1[N-:3][C+:4]([O:5][H:10])[C:6]([H:9])([H:11])[N:7]1[H:12])[H:8]"
N       -1.82688695      -0.59336017       0.59018027
C       -0.68576620      -0.00995901       0.98764924
N        0.52930884      -0.66346269       0.95359736
C        1.13864384      -0.14975625      -0.10266733
O        2.21138091      -0.71105662      -0.66017648
C        0.25949352       0.76023508      -0.79675159
N       -0.45755643       1.21374487       0.36934665
H       -1.80577486      -1.56611841       0.86956965
H       -1.29437210      -0.21722676      -0.96728788
H        2.47248343      -1.44801970      -0.09690871
H        0.68064995       1.52348613      -1.43995938
H       -1.22160394       1.86149353       0.29340819
12
Frame=14 idx=011182 GeodesicLength=0.8208793283143418 rxn_smarts="[N:1]([c:2]1[n:3][c:4]([O:5][H:10])[c:6]([H:11])[n:7]1[H:12])([H:8])[H:9]>>[N-:1]([C+:2]1[N-:3][C+:4]([O:5][H:10])[C:6]([H:9])([H:11])[N:7]1[H:12])[H:8]"
N       -1.83169709      -0.60361470       0.59517606
C       -0.69038593      -0.01410722       0.98758993
N        0.52831534      -0.66094481       0.95129095
C        1.14425938      -0.14335141      -0.10105032
O        2.21443011      -0.71098740      -0.65852913
C        0.26083839       0.75755623      -0.80193628
N       -0.45945085       1.20677774       0.36333826
H       -1.80548012      -1.57335257       0.88338231
H       -1.31089684      -0.21360400      -0.99112802
H        2.47388026      -1.44591775      -0.09193186
H        0.68238430       1.52638653      -1.43824583
H       -1.20619693       1.87515937       0.30204390
12
Frame=15 idx=011182 GeodesicLength=0.8794950716095356 rxn_smarts="[N:1]([c:2]1[n:3][c:4]([O:5][H:10])[c:6]([H:11])[n:7]1[H:12])([H:8])[H:9]>>[N-:1]([C+:2]1[N-:3][C+:4]([O:5][H:10])[C:6]([H:9])([H:11])[N:7]1[H:12])[H:8]"
N       -1.83652634      -0.61415422       0.60022786
C       -0.69512537      -0.01834458       0.98747504
N        0.52720395      -0.65843696       0.94893480
C        1.14978312      -0.13690462      -0.09939227
O        2.21757196      -0.71069867      -0.65661528
C        0.26209265       0.75464364      -0.80726250
N       -0.46167346       1.19960850       0.35701463
H       -1.80507974      -1.58072424       0.89733357
H       -1.32791991      -0.20945909      -1.01560901
H        2.47543906      -1.44349012      -0.08662031
H        0.68378542       1.52896758      -1.43682089
H       -1.18955135       1.88899278       0.31133438
12
Frame=16 idx=011182 GeodesicLength=0.9380904856700278 rxn_smarts="[N:1]([c:2]1[n:3][c:4]([O:5][H:10])[c:6]([H:11])[n:7]1[H:12])([H:8])[H:9]>>[N-:1]([C+:2]1[N-:3][C+:4]([O:5][H:10])[C:6]([H:9])([H:11])[N:7]1[H:12])[H:8]"
N       -1.84139222      -0.62499091       0.60533816
C       -0.70000312      -0.02267991       0.98729062
N        0.52595622      -0.65594243       0.94651781
C        1.15518927      -0.13041936      -0.09770662
O        2.22080261      -0.71017615      -0.65442704
C        0.26323267       0.75147460      -0.81275163
N       -0.46426015       1.19222181       0.35034485
H       -1.80458842      -1.58823782       0.91143155
H       -1.34547464      -0.20475934      -1.04076220
H        2.47721352      -1.44066505      -0.08091389
H        0.68482713       1.53120568      -1.43571655
H       -1.17150289       1.90296890       0.32135495
