14
Frame=0 idx=005422 GeodesicLength=0.0 rxn_smarts="[C:1]([C:2]([C:3]([H:11])([H:12])[H:13])([O:4][C:5](=[O:6])[H:14])[H:10])([H:7])([H:8])[H:9]>>[C-:5]#[O+:6].[C:1]([C:2]([C:3]([H:11])([H:12])[H:13])([O:4][H:14])[H:10])([H:7])([H:8])[H:9]"
C       -0.42134907       1.58112091       0.16701969
C       -0.08167236       0.13408549      -0.15099640
C       -1.26613954      -0.79728998       0.05308899
O        0.99076476      -0.28877451       0.67335230
C        2.32988335      -1.20505751      -0.14831724
O        2.10079545      -2.06056203      -0.86937337
H       -1.23812633       1.93712718      -0.46483009
H       -0.72514784       1.67314809       1.21186406
H        0.44434214       2.22542776       0.00543935
H        0.22625118       0.06941535      -1.20842062
H       -0.99212900      -1.82486258      -0.18873788
H       -2.10497336      -0.50506324      -0.58281619
H       -1.59186889      -0.76591993       1.09506464
H        2.32936955      -0.17279503       0.40766274
14
Frame=1 idx=005422 GeodesicLength=0.06368874500465209 rxn_smarts="[C:1]([C:2]([C:3]([H:11])([H:12])[H:13])([O:4][C:5](=[O:6])[H:14])[H:10])([H:7])([H:8])[H:9]>>[C-:5]#[O+:6].[C:1]([C:2]([C:3]([H:11])([H:12])[H:13])([O:4][H:14])[H:10])([H:7])([H:8])[H:9]"
C       -0.41605452       1.57794722       0.16301904
C       -0.08480429       0.12817785      -0.15123970
C       -1.27306640      -0.79676147       0.05766689
O        0.98517313      -0.30163373       0.67443912
C        2.33511320      -1.19919683      -0.15384190
O        2.12079425      -2.03949989      -0.89844270
H       -1.23117854       1.93625241      -0.46965938
H       -0.71942255       1.67489955       1.20756088
H        0.45305349       2.21670457      -0.00255408
H        0.22089781       0.05935089      -1.20862862
H       -1.00413549      -1.82656494      -0.18044058
H       -2.11057610      -0.50299715      -0.57918928
H       -1.59843371      -0.75959856       1.09957017
H        2.32263972      -0.16707992       0.44174015
14
Frame=2 idx=005422 GeodesicLength=0.1269768015240469 rxn_smarts="[C:1]([C:2]([C:3]([H:11])([H:12])[H:13])([O:4][C:5](=[O:6])[H:14])[H:10])([H:7])([H:8])[H:9]>>[C-:5]#[O+:6].[C:1]([C:2]([C:3]([H:11])([H:12])[H:13])([O:4][H:14])[H:10])([H:7])([H:8])[H:9]"
C       -0.41072166       1.57460552       0.15892528
C       -0.08789078       0.12226213      -0.15156016
C       -1.27983542      -0.79611979       0.06228130
O        0.97969272      -0.31442162       0.67524091
C        2.34019178      -1.19339213      -0.15927067
O        2.14068026      -2.01733067      -0.92729566
H       -1.22425253       1.93516651      -0.47443171
H       -0.71353344       1.67649449       1.20310169
H        0.46172739       2.20770695      -0.01069765
H        0.21550589       0.04925910      -1.20883651
H       -1.01596414      -1.82804257      -0.17210106
H       -2.11607729      -0.50086037      -0.57538480
H       -1.60468773      -0.75314683       1.10404725
H        2.31516494      -0.16218072       0.47598178
14
Frame=3 idx=005422 GeodesicLength=0.19034780487513236 rxn_smarts="[C:1]([C:2]([C:3]([H:11])([H:12])[H:13])([O:4][C:5](=[O:6])[H:14])[H:10])([H:7])([H:8])[H:9]>>[C-:5]#[O+:6].[C:1]([C:2]([C:3]([H:11])([H:12])[H:13])([O:4][H:14])[H:10])([H:7])([H:8])[H:9]"
C       -0.40527599       1.57125312       0.15476561
C       -0.09095023       0.11632540      -0.15198628
C       -1.28653305      -0.79553072       0.06691648
O        0.97433659      -0.32720087       0.67584309
C        2.34519411      -1.18746947      -0.16481549
O        2.16045448      -1.99432704      -0.95576761
H       -1.21726744       1.93407777      -0.47923404
H       -0.70739093       1.67806419       1.19864456
H        0.47048630       2.19869153      -0.01896286
H        0.21001695       0.03914482      -1.20921769
H       -1.02777112      -1.82957534      -0.16379194
H       -2.12158839      -0.49877383      -0.57149228
H       -1.61067624      -0.74677645       1.10862522
H        2.30696494      -0.15790309       0.51047323
14
Frame=4 idx=005422 GeodesicLength=0.25388036394440683 rxn_smarts="[C:1]([C:2]([C:3]([H:11])([H:12])[H:13])([O:4][C:5](=[O:6])[H:14])[H:10])([H:7])([H:8])[H:9]>>[C-:5]#[O+:6].[C:1]([C:2]([C:3]([H:11])([H:12])[H:13])([O:4][H:14])[H:10])([H:7])([H:8])[H:9]"
C       -0.39952444       1.56762682       0.15041187
C       -0.09412536       0.11008432      -0.15251280
C       -1.29350019      -0.79486911       0.07170647
O        0.96887323      -0.34046989       0.67617018
C        2.35047128      -1.18085674      -0.17066273
O        2.18110245      -1.96955219      -0.98433341
H       -1.20997744       1.93285758      -0.48412653
H       -0.70070176       1.67951566       1.19401040
H        0.47964101       2.18911038      -0.02760047
H        0.20421240       0.02856781      -1.20970967
H       -1.04016324      -1.83106940      -0.15528754
H       -2.12740480      -0.49645494      -0.56731107
H       -1.61668897      -0.74017782       1.11338098
H        2.29778582      -0.15431246       0.54586433
14
Frame=5 idx=005422 GeodesicLength=0.31713697926211937 rxn_smarts="[C:1]([C:2]([C:3]([H:11])([H:12])[H:13])([O:4][C:5](=[O:6])[H:14])[H:10])([H:7])([H:8])[H:9]>>[C-:5]#[O+:6].[C:1]([C:2]([C:3]([H:11])([H:12])[H:13])([O:4][H:14])[H:10])([H:7])([H:8])[H:9]"
C       -0.39372895       1.56394823       0.14599072
C       -0.09721869       0.10389276      -0.15312183
C       -1.30025498      -0.79419901       0.07651222
O        0.96359999      -0.35355853       0.67627531
C        2.35552420      -1.17438937      -0.17641257
O        2.20132333      -1.94388996      -1.01252084
H       -1.20268314       1.93152677      -0.48904333
H       -0.69390037       1.68087793       1.18929657
H        0.48877102       2.17947034      -0.03630331
H        0.19840569       0.01806227      -1.21027677
H       -1.05228934      -1.83247693      -0.14678873
H       -2.13308854      -0.49419676      -0.56302029
H       -1.62233160      -0.73361640       1.11815884
H        2.28787138      -0.15145134       0.58125403
14
Frame=6 idx=005422 GeodesicLength=0.3804852408282052 rxn_smarts="[C:1]([C:2]([C:3]([H:11])([H:12])[H:13])([O:4][C:5](=[O:6])[H:14])[H:10])([H:7])([H:8])[H:9]>>[C-:5]#[O+:6].[C:1]([C:2]([C:3]([H:11])([H:12])[H:13])([O:4][H:14])[H:10])([H:7])([H:8])[H:9]"
C       -0.38771547       1.56010863       0.14141598
C       -0.10034886       0.09752796      -0.15383131
C       -1.30708659      -0.79350632       0.08142786
O        0.95834650      -0.36688857       0.67613611
C        2.36064558      -1.16756379      -0.18232721
O        2.22188673      -1.91675737      -1.04059451
H       -1.19518417       1.93010700      -0.49405236
H       -0.68670497       1.68216532       1.18445811
H        0.49814956       2.16949537      -0.04526838
H        0.19239972       0.00728645      -1.21097179
H       -1.06466963      -1.83387639      -0.13816227
H       -2.13890602      -0.49183817      -0.55851417
H       -1.62782584      -0.72695160       1.12308938
H        2.27701347      -0.14930852       0.61719457
14
Frame=7 idx=005422 GeodesicLength=0.44410050784005844 rxn_smarts="[C:1]([C:2]([C:3]([H:11])([H:12])[H:13])([O:4][C:5](=[O:6])[H:14])[H:10])([H:7])([H:8])[H:9]>>[C-:5]#[O+:6].[C:1]([C:2]([C:3]([H:11])([H:12])[H:13])([O:4][H:14])[H:10])([H:7])([H:8])[H:9]"
C       -0.38129804       1.55595782       0.13655468
C       -0.10363378       0.09074611      -0.15464838
C       -1.31427692      -0.79275366       0.08658674
O        0.95293802      -0.38088041       0.67573297
C        2.36611032      -1.15992031      -0.18844201
O        2.24356790      -1.88720085      -1.06910944
H       -1.18726217       1.92856116      -0.49927876
H       -0.67881470       1.68338799       1.17937799
H        0.50805986       2.15883730      -0.05475253
H        0.18598170      -0.00414232      -1.21181788
H       -1.07781997      -1.83531019      -0.12918223
H       -2.14511006      -0.48922259      -0.55365587
H       -1.63338370      -0.71997435       1.12831804
H        2.26494154      -0.14808572       0.65431669
14
Frame=8 idx=005422 GeodesicLength=0.5080033226468841 rxn_smarts="[C:1]([C:2]([C:3]([H:11])([H:12])[H:13])([O:4][C:5](=[O:6])[H:14])[H:10])([H:7])([H:8])[H:9]>>[C-:5]#[O+:6].[C:1]([C:2]([C:3]([H:11])([H:12])[H:13])([O:4][H:14])[H:10])([H:7])([H:8])[H:9]"
C       -0.37413594       1.55112284       0.13121417
C       -0.10725870       0.08316945      -0.15561257
C       -1.32229035      -0.79182672       0.09217318
O        0.94709998      -0.39615984       0.67487308
C        2.37233742      -1.15042810      -0.19508356
O        2.26750706      -1.85369388      -1.09833296
H       -1.17851414       1.92667726      -0.50481180
H       -0.66970548       1.68436553       1.17382671
H        0.51901697       2.14677087      -0.06512795
H        0.17883175      -0.01680180      -1.21280536
H       -1.09260580      -1.83668230      -0.11957504
H       -2.15212824      -0.48604292      -0.54813795
H       -1.63932931      -0.71236798       1.13399354
H        2.25117479      -0.14810240       0.69340651
14
Frame=9 idx=005422 GeodesicLength=0.5721567481660506 rxn_smarts="[C:1]([C:2]([C:3]([H:11])([H:12])[H:13])([O:4][C:5](=[O:6])[H:14])[H:10])([H:7])([H:8])[H:9]>>[C-:5]#[O+:6].[C:1]([C:2]([C:3]([H:11])([H:12])[H:13])([O:4][H:14])[H:10])([H:7])([H:8])[H:9]"
C       -0.36655914       1.54596003       0.12555746
C       -0.11100767       0.07519269      -0.15670968
C       -1.33056991      -0.79083846       0.09801021
O        0.94118316      -0.41204163       0.67369841
C        2.37882318      -1.14009379      -0.20187228
O        2.29226024      -1.81747227      -1.12772612
H       -1.16933936       1.92463743      -0.51059697
H       -0.65988048       1.68524512       1.16800520
H        0.53049187       2.13399582      -0.07603751
H        0.17128595      -0.03009740      -1.21396900
H       -1.10803499      -1.83806028      -0.10961034
H       -2.15946575      -0.48262100      -0.54224310
H       -1.64519310      -0.70446966       1.13998569
H        2.23600601      -0.14933660       0.73350803
14
Frame=10 idx=005422 GeodesicLength=0.6361178326344686 rxn_smarts="[C:1]([C:2]([C:3]([H:11])([H:12])[H:13])([O:4][C:5](=[O:6])[H:14])[H:10])([H:7])([H:8])[H:9]>>[C-:5]#[O+:6].[C:1]([C:2]([C:3]([H:11])([H:12])[H:13])([O:4][H:14])[H:10])([H:7])([H:8])[H:9]"
C       -0.35882804       1.54068523       0.11976434
C       -0.11466979       0.06719642      -0.15791648
C       -1.33861078      -0.78986008       0.10389919
O        0.93546203      -0.42783247       0.67224726
C        2.38503285      -1.12970506      -0.20864557
O        2.31637893      -1.77981342      -1.15646593
H       -1.16002236       1.92245862      -0.51646961
H       -0.64978242       1.68599914       1.16203120
H        0.54204977       2.12104363      -0.08709622
H        0.16369474      -0.04342246      -1.21522596
H       -1.12323259      -1.83937990      -0.09958708
H       -2.16663478      -0.47924631      -0.53618181
H       -1.65058466      -0.69660316       1.14603810
H        2.21974708      -0.15152019       0.77360857
14
Frame=11 idx=005422 GeodesicLength=0.7003089829405807 rxn_smarts="[C:1]([C:2]([C:3]([H:11])([H:12])[H:13])([O:4][C:5](=[O:6])[H:14])[H:10])([H:7])([H:8])[H:9]>>[C-:5]#[O+:6].[C:1]([C:2]([C:3]([H:11])([H:12])[H:13])([O:4][H:14])[H:10])([H:7])([H:8])[H:9]"
C       -0.35062586       1.53498170       0.11360264
C       -0.11846602       0.05874667      -0.15927208
C       -1.34693824      -0.78877478       0.11007593
O        0.92966598      -0.44429521       0.67041153
C        2.39153370      -1.11829505      -0.21565426
O        2.34130013      -1.73905123      -1.18517669
H       -1.15021620       1.92004195      -0.52261952
H       -0.63888445       1.68658042       1.15570815
H        0.55419830       2.10719783      -0.09876000
H        0.15567589      -0.05747457      -1.21664414
H       -1.13913205      -1.84062714      -0.08915464
H       -2.17415591      -0.47555442      -0.52965719
H       -1.65586667      -0.68838139       1.15242602
H        2.20191141      -0.15509476       0.81471427
14
Frame=12 idx=005422 GeodesicLength=0.7652383911192795 rxn_smarts="[C:1]([C:2]([C:3]([H:11])([H:12])[H:13])([O:4][C:5](=[O:6])[H:14])[H:10])([H:7])([H:8])[H:9]>>[C-:5]#[O+:6].[C:1]([C:2]([C:3]([H:11])([H:12])[H:13])([O:4][H:14])[H:10])([H:7])([H:8])[H:9]"
C       -0.34129400       1.52832633       0.10665451
C       -0.12273642       0.04912356      -0.16085876
C       -1.35636704      -0.78749752       0.11693171
O        0.92331153      -0.46259977       0.66796169
C        2.39897697      -1.10412880      -0.22309087
O        2.36901534      -1.69199158      -1.21478671
H       -1.13916271       1.91716125      -0.52937724
H       -0.62614211       1.68690165       1.14865578
H        0.56789589       2.09134227      -0.11181089
H        0.14659054      -0.07340475      -1.21832882
H       -1.15729286      -1.84188651      -0.07771171
H       -2.18278192      -0.47113009      -0.52216674
H       -1.66153307      -0.67927601       1.15958297
H        2.18151986      -0.16094002       0.85834511
14
Frame=13 idx=005422 GeodesicLength=0.8306579114921468 rxn_smarts="[C:1]([C:2]([C:3]([H:11])([H:12])[H:13])([O:4][C:5](=[O:6])[H:14])[H:10])([H:7])([H:8])[H:9]>>[C-:5]#[O+:6].[C:1]([C:2]([C:3]([H:11])([H:12])[H:13])([O:4][H:14])[H:10])([H:7])([H:8])[H:9]"
C       -0.33150867       1.52134204       0.09938996
C       -0.12701962       0.03919634      -0.16259081
C       -1.36582492      -0.78622028       0.12399251
O        0.91703501      -0.48127631       0.66518630
C        2.40656119      -1.08879044      -0.23090261
O        2.39633851      -1.64238804      -1.24367022
H       -1.12757933       1.91406621      -0.53647259
H       -0.61275119       1.68701002       1.14131611
H        0.58211653       2.07484472      -0.12525179
H        0.13725687      -0.08978577      -1.22019899
H       -1.17576234      -1.84313837      -0.06595644
H       -2.19148779      -0.46659168      -0.51436054
H       -1.66686543      -0.67006174       1.16702240
H        2.15949118      -0.16820670       0.90249672
14
Frame=14 idx=005422 GeodesicLength=0.8966154936607339 rxn_smarts="[C:1]([C:2]([C:3]([H:11])([H:12])[H:13])([O:4][C:5](=[O:6])[H:14])[H:10])([H:7])([H:8])[H:9]>>[C-:5]#[O+:6].[C:1]([C:2]([C:3]([H:11])([H:12])[H:13])([O:4][H:14])[H:10])([H:7])([H:8])[H:9]"
C       -0.32018723       1.51287721       0.09090645
C       -0.13196497       0.02757631      -0.16465502
C       -1.37659428      -0.78452941       0.13205320
O        0.90997884      -0.50264485       0.66143060
C        2.41502547      -1.06988539      -0.23868254
O        2.42725147      -1.58293361      -1.27351120
H       -1.11430337       1.91022099      -0.54443759
H       -0.59670375       1.68662829       1.13270397
H        0.59830474       2.05523904      -0.14080220
H        0.12637413      -0.10888219      -1.22229488
H       -1.19710841      -1.84419876      -0.05265145
H       -2.20149233      -0.46082003      -0.50506237
H       -1.67240339      -0.65943368       1.17544653
H        2.13382308      -0.17921394       0.94955651
14
Frame=15 idx=005422 GeodesicLength=0.9633877473995794 rxn_smarts="[C:1]([C:2]([C:3]([H:11])([H:12])[H:13])([O:4][C:5](=[O:6])[H:14])[H:10])([H:7])([H:8])[H:9]>>[C-:5]#[O+:6].[C:1]([C:2]([C:3]([H:11])([H:12])[H:13])([O:4][H:14])[H:10])([H:7])([H:8])[H:9]"
C       -0.30779082       1.50346553       0.08161347
C       -0.13717487       0.01498467      -0.16698550
C       -1.38795124      -0.78267316       0.14070987
O        0.90269980      -0.52538280       0.65703480
C        2.42386071      -1.04859187      -0.24652130
O        2.45896425      -1.51676967      -1.30285742
H       -1.09981866       1.90578407      -0.55312170
H       -0.57897877       1.68584356       1.12329895
H        0.61584626       2.03373290      -0.15758120
H        0.11471697      -0.12954867      -1.22465243
H       -1.21992875      -1.84514932      -0.03841950
H       -2.21213347      -0.45448353      -0.49488688
H       -1.67776711      -0.64811613       1.18454928
H        2.10545570      -0.19309559       0.99781958
14
Frame=16 idx=005422 GeodesicLength=1.0308693651639687 rxn_smarts="[C:1]([C:2]([C:3]([H:11])([H:12])[H:13])([O:4][C:5](=[O:6])[H:14])[H:10])([H:7])([H:8])[H:9]>>[C-:5]#[O+:6].[C:1]([C:2]([C:3]([H:11])([H:12])[H:13])([O:4][H:14])[H:10])([H:7])([H:8])[H:9]"
C       -0.29452884       1.49330057       0.07163287
C       -0.14247425       0.00170104      -0.16955453
C       -1.39944576      -0.78070409       0.14980769
O        0.89541901      -0.54901597       0.65210102
C        2.43253732      -1.02576142      -0.25422315
O        2.49022377      -1.44474428      -1.33103476
H       -1.08434821       1.90082859      -0.56245975
H       -0.55991677       1.68467299       1.11318207
H        0.63436285       2.01074996      -0.17530281
H        0.10257233      -0.15133630      -1.22720299
H       -1.24346942      -1.84597246      -0.02346996
H       -2.22296851      -0.44776029      -0.48403154
H       -1.68258271      -0.63635717       1.19413495
H        2.07461918      -0.20960116       1.04642090
