14
Frame=0 idx=009410 GeodesicLength=0.0 rxn_smarts="[O:1]([C@@:2]1([H:9])[C:3]([H:10])([H:11])[O:4][C:5]([H:12])=[N:6][C:7]1([H:13])[H:14])[H:8]>>[O:1]([C:2](=[C:3]([H:10])[H:11])[H:9])[H:8].[O:4]=[C:5]([N:6]=[C:7]([H:13])[H:14])[H:12]"
O       -1.19036036      -0.49371286       1.50758555
C       -1.20075099       0.15537595       0.29153295
C       -0.58488858       1.37500423       0.17078446
O        1.54552139       0.98429654      -0.36299688
C        1.81897400      -0.16280531       0.01910547
N        1.01882055      -1.22862176      -0.15046892
C       -0.06802738      -0.95613754      -0.87950440
H       -0.39649794      -1.04519153       1.54346408
H       -2.07926927      -0.04022646      -0.31934279
H       -0.72548907       1.96852232      -0.72138675
H       -0.09467668       1.84177511       1.01163918
H        2.72673410      -0.34227207       0.60816615
H        0.00411142      -0.28132287      -1.73135273
H       -0.77420121      -1.77468379      -0.98722533
14
Frame=1 idx=009410 GeodesicLength=0.07492136008147281 rxn_smarts="[O:1]([C@@:2]1([H:9])[C:3]([H:10])([H:11])[O:4][C:5]([H:12])=[N:6][C:7]1([H:13])[H:14])[H:8]>>[O:1]([C:2](=[C:3]([H:10])[H:11])[H:9])[H:8].[O:4]=[C:5]([N:6]=[C:7]([H:13])[H:14])[H:12]"
O       -1.19281264      -0.49006499       1.50101965
C       -1.20559451       0.15741601       0.28411828
C       -0.58960050       1.38053962       0.16602899
O        1.53909569       0.98656941      -0.30033538
C        1.82528920      -0.17697943       0.02373715
N        1.03116101      -1.24109354      -0.16958049
C       -0.06527556      -0.96608342      -0.88503663
H       -0.37489041      -1.00326850       1.55823803
H       -2.09455368      -0.02982228      -0.31398605
H       -0.73838620       1.97633190      -0.72375266
H       -0.12467193       1.85941524       1.01464253
H        2.75116983      -0.37302173       0.57821075
H        0.00238139      -0.28868802      -1.73555775
H       -0.76331168      -1.79125025      -0.99774644
14
Frame=2 idx=009410 GeodesicLength=0.1491535095577269 rxn_smarts="[O:1]([C@@:2]1([H:9])[C:3]([H:10])([H:11])[O:4][C:5]([H:12])=[N:6][C:7]1([H:13])[H:14])[H:8]>>[O:1]([C:2](=[C:3]([H:10])[H:11])[H:9])[H:8].[O:4]=[C:5]([N:6]=[C:7]([H:13])[H:14])[H:12]"
O       -1.19501499      -0.48667066       1.49425795
C       -1.21053645       0.15965642       0.27676524
C       -0.59368281       1.38589329       0.16156405
O        1.53185993       0.98646687      -0.23443834
C        1.83145535      -0.19079788       0.02834976
N        1.04346796      -1.25279161      -0.18818011
C       -0.06239849      -0.97626438      -0.89013589
H       -0.35565313      -0.96096687       1.57200926
H       -2.10983195      -0.01859804      -0.30823275
H       -0.74923344       1.98328859      -0.72636462
H       -0.15507278       1.87680562       1.01756477
H        2.77597089      -0.40113343       0.54455498
H        0.00044914      -0.29668769      -1.73954272
H       -0.75177924      -1.80820024      -1.00817158
14
Frame=3 idx=009410 GeodesicLength=0.22286540625660634 rxn_smarts="[O:1]([C@@:2]1([H:9])[C:3]([H:10])([H:11])[O:4][C:5]([H:12])=[N:6][C:7]1([H:13])[H:14])[H:8]>>[O:1]([C:2](=[C:3]([H:10])[H:11])[H:9])[H:8].[O:4]=[C:5]([N:6]=[C:7]([H:13])[H:14])[H:12]"
O       -1.19643408      -0.48349910       1.48760278
C       -1.21541142       0.16211866       0.26966119
C       -0.59689294       1.39116206       0.15728973
O        1.52397777       0.98376589      -0.16651361
C        1.83772160      -0.20412353       0.03220877
N        1.05615079      -1.26382268      -0.20709770
C       -0.05955518      -0.98672544      -0.89505506
H       -0.33851527      -0.91962430       1.58435538
H       -2.12534404      -0.00635691      -0.30142659
H       -0.75813508       1.98969750      -0.72928486
H       -0.18504575       1.89396902       1.01993013
H        2.79964138      -0.42571688       0.51031020
H       -0.00227033      -0.30523460      -1.74362281
H       -0.73988746      -1.82560969      -1.01835755
14
Frame=4 idx=009410 GeodesicLength=0.29628737138191674 rxn_smarts="[O:1]([C@@:2]1([H:9])[C:3]([H:10])([H:11])[O:4][C:5]([H:12])=[N:6][C:7]1([H:13])[H:14])[H:8]>>[O:1]([C:2](=[C:3]([H:10])[H:11])[H:9])[H:8].[O:4]=[C:5]([N:6]=[C:7]([H:13])[H:14])[H:12]"
O       -1.19832468      -0.48052334       1.48066972
C       -1.22054556       0.16490387       0.26254125
C       -0.59927358       1.39627385       0.15331868
O        1.51522542       0.97816034      -0.09522056
C        1.84389109      -0.21692366       0.03623772
N        1.06907660      -1.27413741      -0.22539399
C       -0.05655765      -0.99757145      -0.89931933
H       -0.32433565      -0.87887384       1.59580818
H       -2.14101203       0.00723164      -0.29436398
H       -0.76452997       1.99548194      -0.73247349
H       -0.21503393       1.91065938       1.02206411
H        2.82397970      -0.44648408       0.47146215
H       -0.00525063      -0.31459862      -1.74735921
H       -0.72730912      -1.84359863      -1.02797125
14
Frame=5 idx=009410 GeodesicLength=0.3691412730718444 rxn_smarts="[O:1]([C@@:2]1([H:9])[C:3]([H:10])([H:11])[O:4][C:5]([H:12])=[N:6][C:7]1([H:13])[H:14])[H:8]>>[O:1]([C:2](=[C:3]([H:10])[H:11])[H:9])[H:8].[O:4]=[C:5]([N:6]=[C:7]([H:13])[H:14])[H:12]"
O       -1.19993746      -0.47772318       1.47371624
C       -1.22548885       0.16794146       0.25554585
C       -0.60031456       1.40115177       0.14968389
O        1.50549102       0.96952185      -0.02205444
C        1.84978123      -0.22876275       0.03953815
N        1.08233731      -1.28356971      -0.24409547
C       -0.05368829      -1.00891069      -0.90338260
H       -0.31249098      -0.83951165       1.60615582
H       -2.15659569       0.02219339      -0.28656157
H       -0.76835290       2.00071020      -0.73578571
H       -0.24381847       1.92674412       1.02380913
H        2.84671368      -0.46246736       0.43183471
H       -0.00932655      -0.32494891      -1.75131904
H       -0.71430949      -1.86236853      -1.03708496
14
Frame=6 idx=009410 GeodesicLength=0.44140511683282424 rxn_smarts="[O:1]([C@@:2]1([H:9])[C:3]([H:10])([H:11])[O:4][C:5]([H:12])=[N:6][C:7]1([H:13])[H:14])[H:8]>>[O:1]([C:2](=[C:3]([H:10])[H:11])[H:9])[H:8].[O:4]=[C:5]([N:6]=[C:7]([H:13])[H:14])[H:12]"
O       -1.20158398      -0.47502415       1.46662461
C       -1.23019883       0.17128364       0.24860142
C       -0.59985424       1.40572592       0.14645479
O        1.49462802       0.95764900       0.05253052
C        1.85514662      -0.23941716       0.04226246
N        1.09599057      -1.29198491      -0.26328709
C       -0.05093009      -1.02084039      -0.90718381
H       -0.30315868      -0.80184661       1.61547040
H       -2.17193392       0.03878948      -0.27812922
H       -0.76947390       2.00544414      -0.73902071
H       -0.27100491       1.94200949       1.02520641
H        2.86774753      -0.47322040       0.39141966
H       -0.01462836      -0.33651148      -1.75548083
H       -0.70074582      -1.88205658      -1.04546860
14
Frame=7 idx=009410 GeodesicLength=0.5133999224687593 rxn_smarts="[O:1]([C@@:2]1([H:9])[C:3]([H:10])([H:11])[O:4][C:5]([H:12])=[N:6][C:7]1([H:13])[H:14])[H:8]>>[O:1]([C:2](=[C:3]([H:10])[H:11])[H:9])[H:8].[O:4]=[C:5]([N:6]=[C:7]([H:13])[H:14])[H:12]"
O       -1.20382787      -0.47255297       1.45925789
C       -1.23480129       0.17497865       0.24160300
C       -0.59779143       1.41004883       0.14370027
O        1.48273563       0.94251468       0.12794969
C        1.85993264      -0.24874061       0.04472587
N        1.11017612      -1.29937776      -0.28292623
C       -0.04826786      -1.03353615      -0.91062514
H       -0.29660917      -0.76618430       1.62399609
H       -2.18709502       0.05728467      -0.26931001
H       -0.76786664       2.01003331      -0.74196861
H       -0.29622070       1.95633781       1.02636532
H        2.88742136      -0.47836310       0.34991793
H       -0.02122993      -0.34947799      -1.75981499
H       -0.68655584      -1.90296507      -1.05287109
14
Frame=8 idx=009410 GeodesicLength=0.5849933380416247 rxn_smarts="[O:1]([C@@:2]1([H:9])[C:3]([H:10])([H:11])[O:4][C:5]([H:12])=[N:6][C:7]1([H:13])[H:14])[H:8]>>[O:1]([C:2](=[C:3]([H:10])[H:11])[H:9])[H:8].[O:4]=[C:5]([N:6]=[C:7]([H:13])[H:14])[H:12]"
O       -1.20672058      -0.47025978       1.45154357
C       -1.23915165       0.17903826       0.23449343
C       -0.59393799       1.41401483       0.14147758
O        1.46973266       0.92409499       0.20329008
C        1.86388605      -0.25660205       0.04700479
N        1.12489402      -1.30556565      -0.30329269
C       -0.04574109      -1.04706901      -0.91375182
H       -0.29277479      -0.73273777       1.63179811
H       -2.20182531       0.07783335      -0.26015193
H       -0.76356984       2.01451911      -0.74439343
H       -0.31890782       1.96949256       1.02737115
H        2.90515155      -0.47751010       0.30815110
H       -0.02938630      -0.36405229      -1.76439024
H       -0.67164891      -1.92519644      -1.05914971
14
Frame=9 idx=009410 GeodesicLength=0.6563437194499109 rxn_smarts="[O:1]([C@@:2]1([H:9])[C:3]([H:10])([H:11])[O:4][C:5]([H:12])=[N:6][C:7]1([H:13])[H:14])[H:8]>>[O:1]([C:2](=[C:3]([H:10])[H:11])[H:9])[H:8].[O:4]=[C:5]([N:6]=[C:7]([H:13])[H:14])[H:12]"
O       -1.21053983      -0.46817501       1.44335992
C       -1.24325073       0.18348907       0.22716213
C       -0.58821533       1.41761582       0.13984554
O        1.45566813       0.90247879       0.27788549
C        1.86687376      -0.26305931       0.04952047
N        1.14015986      -1.31049886      -0.32443474
C       -0.04335055      -1.06156152      -0.91652090
H       -0.29173307      -0.70160953       1.63907287
H       -2.21601422       0.10058397      -0.25087687
H       -0.75666616       2.01909611      -0.74609024
H       -0.33871539       1.98137634       1.02838388
H        2.92090871      -0.47038354       0.26603642
H       -0.03919035      -0.38041343      -1.76916963
H       -0.65593483      -1.94893891      -1.06417433
14
Frame=10 idx=009410 GeodesicLength=0.7273299450459554 rxn_smarts="[O:1]([C@@:2]1([H:9])[C:3]([H:10])([H:11])[O:4][C:5]([H:12])=[N:6][C:7]1([H:13])[H:14])[H:8]>>[O:1]([C:2](=[C:3]([H:10])[H:11])[H:9])[H:8].[O:4]=[C:5]([N:6]=[C:7]([H:13])[H:14])[H:12]"
O       -1.21478929      -0.46626998       1.43479468
C       -1.24691732       0.18827471       0.21969089
C       -0.58064827       1.42079035       0.13873567
O        1.44059864       0.87801450       0.35009523
C        1.86891640      -0.26797607       0.05157555
N        1.15604539      -1.31382482      -0.34723369
C       -0.04117833      -1.07693281      -0.91921467
H       -0.29277709      -0.67290496       1.64565746
H       -2.22950810       0.12544348      -0.24100914
H       -0.74774874       2.02381761      -0.74690705
H       -0.35513238       1.99186764       1.02932508
H        2.93367812      -0.45761564       0.22680107
H       -0.05116507      -0.39854092      -1.77438293
H       -0.63937396      -1.97414310      -1.06792815
14
Frame=11 idx=009410 GeodesicLength=0.7982193742989936 rxn_smarts="[O:1]([C@@:2]1([H:9])[C:3]([H:10])([H:11])[O:4][C:5]([H:12])=[N:6][C:7]1([H:13])[H:14])[H:8]>>[O:1]([C:2](=[C:3]([H:10])[H:11])[H:9])[H:8].[O:4]=[C:5]([N:6]=[C:7]([H:13])[H:14])[H:12]"
O       -1.21989776      -0.46457273       1.42568108
C       -1.25027709       0.19344062       0.21193507
C       -0.57132329       1.42359070       0.13819920
O        1.42466712       0.85092712       0.41974504
C        1.86995717      -0.27172414       0.05402131
N        1.17248398      -1.31557268      -0.37146013
C       -0.03915145      -1.09328644      -0.92168846
H       -0.29613051      -0.64640531       1.65187390
H       -2.24224034       0.15244400      -0.23095476
H       -0.73694242       2.02889653      -0.74670795
H       -0.36822747       2.00100762       1.03043416
H        2.94402485      -0.43924721       0.18909947
H       -0.06513854      -0.41855024      -1.77981462
H       -0.62180425      -2.00094784      -1.07036333
14
Frame=12 idx=009410 GeodesicLength=0.8689073785126739 rxn_smarts="[O:1]([C@@:2]1([H:9])[C:3]([H:10])([H:11])[O:4][C:5]([H:12])=[N:6][C:7]1([H:13])[H:14])[H:8]>>[O:1]([C:2](=[C:3]([H:10])[H:11])[H:9])[H:8].[O:4]=[C:5]([N:6]=[C:7]([H:13])[H:14])[H:12]"
O       -1.22579016      -0.46304322       1.41599443
C       -1.25327102       0.19897651       0.20386447
C       -0.56032209       1.42593710       0.13819336
O        1.40789240       0.82145733       0.48631294
C        1.86992905      -0.27461650       0.05707762
N        1.18935156      -1.31552394      -0.39732155
C       -0.03722790      -1.11054278      -0.92395279
H       -0.30161749      -0.62187189       1.65784011
H       -2.25398305       0.18150172      -0.22070739
H       -0.72448566       2.03429091      -0.74546057
H       -0.37800188       2.00871265       1.03176699
H        2.95170206      -0.41563548       0.15323170
H       -0.08114188      -0.44042072      -1.78538264
H       -0.60303393      -2.02922169      -1.07145669
14
Frame=13 idx=009410 GeodesicLength=0.9395759745546535 rxn_smarts="[O:1]([C@@:2]1([H:9])[C:3]([H:10])([H:11])[O:4][C:5]([H:12])=[N:6][C:7]1([H:13])[H:14])[H:8]>>[O:1]([C:2](=[C:3]([H:10])[H:11])[H:9])[H:8].[O:4]=[C:5]([N:6]=[C:7]([H:13])[H:14])[H:12]"
O       -1.23237233      -0.46165664       1.40570684
C       -1.25596641       0.20488217       0.19546289
C       -0.54782593       1.42786496       0.13867050
O        1.39044192       0.78994253       0.54940626
C        1.86902099      -0.27699079       0.06083758
N        1.20661799      -1.31348766      -0.42511285
C       -0.03538875      -1.12867434      -0.92607157
H       -0.30896594      -0.59905464       1.66359837
H       -2.26476429       0.21248534      -0.21020080
H       -0.71074303       2.04006833      -0.74315185
H       -0.38455467       2.01509978       1.03336930
H        2.95674025      -0.38738853       0.11976455
H       -0.09930453      -0.46414219      -1.79101734
H       -0.58293527      -2.05894831      -1.07126189
14
Frame=14 idx=009410 GeodesicLength=1.010370287574132 rxn_smarts="[O:1]([C@@:2]1([H:9])[C:3]([H:10])([H:11])[O:4][C:5]([H:12])=[N:6][C:7]1([H:13])[H:14])[H:8]>>[O:1]([C:2](=[C:3]([H:10])[H:11])[H:9])[H:8].[O:4]=[C:5]([N:6]=[C:7]([H:13])[H:14])[H:12]"
O       -1.24005209      -0.46039600       1.39473157
C       -1.25846638       0.21118291       0.18667568
C       -0.53383896       1.42939139       0.13966080
O        1.37236776       0.75649402       0.60925967
C        1.86734533      -0.27944238       0.06587810
N        1.22412945      -1.30940566      -0.45471116
C       -0.03351544      -1.14775591      -0.92789698
H       -0.31855022      -0.57779060       1.66928021
H       -2.27449052       0.24536051      -0.19962876
H       -0.69545871       2.04629585      -0.73972753
H       -0.38806871       2.02027598       1.03536661
H        2.95924908      -0.35419866       0.08723925
H       -0.11933243      -0.48981276      -1.79643479
H       -0.56131814      -2.09019869      -1.06969265
14
Frame=15 idx=009410 GeodesicLength=1.0809116016466105 rxn_smarts="[O:1]([C@@:2]1([H:9])[C:3]([H:10])([H:11])[O:4][C:5]([H:12])=[N:6][C:7]1([H:13])[H:14])[H:8]>>[O:1]([C:2](=[C:3]([H:10])[H:11])[H:9])[H:8].[O:4]=[C:5]([N:6]=[C:7]([H:13])[H:14])[H:12]"
O       -1.24795433      -0.45921347       1.38312745
C       -1.26060146       0.21783117       0.17752924
C       -0.51860791       1.43032474       0.14092293
O        1.35363389       0.72136815       0.66526932
C        1.86492986      -0.28203956       0.07156002
N        1.24168265      -1.30251313      -0.48680507
C       -0.03166822      -1.16743863      -0.92960348
H       -0.32942135      -0.55773910       1.67476830
H       -2.28294758       0.27995300      -0.18859575
H       -0.67927088       2.05265376      -0.73545213
H       -0.38861989       2.02402633       1.03751585
H        2.95861901      -0.31748335       0.05819616
H       -0.14191852      -0.51722919      -1.80167179
H       -0.53785526      -2.12250073      -1.06676104
14
Frame=16 idx=009410 GeodesicLength=1.1516857218170167 rxn_smarts="[O:1]([C@@:2]1([H:9])[C:3]([H:10])([H:11])[O:4][C:5]([H:12])=[N:6][C:7]1([H:13])[H:14])[H:8]>>[O:1]([C:2](=[C:3]([H:10])[H:11])[H:9])[H:8].[O:4]=[C:5]([N:6]=[C:7]([H:13])[H:14])[H:12]"
O       -1.25663158      -0.45810302       1.37086372
C       -1.26260072       0.22490736       0.16804542
C       -0.50212151       1.43081546       0.14256112
O        1.33443644       0.68470050       0.71787063
C        1.86207575      -0.28544166       0.07844257
N        1.25913001      -1.29267866      -0.52139057
C       -0.02972916      -1.18790132      -0.93114579
H       -0.34206733      -0.53867186       1.68024973
H       -2.29021684       0.31608029      -0.17738781
H       -0.66183382       2.05932876      -0.73023621
H       -0.38641914       2.02669424       1.04003896
H        2.95509596      -0.27696474       0.03106279
H       -0.16680850      -0.54662781      -1.80651516
H       -0.51230955      -2.15613755      -1.06245941
