12
Frame=0 idx=001411 GeodesicLength=0.0 rxn_smarts="[C:1]([C:2](=[O:3])[C:4]([C:5](=[O:6])[H:12])([H:10])[H:11])([H:7])([H:8])[H:9]>>[C:1]([C:4]([C:2](=[O:3])[C:5](=[O:6])[H:12])([H:10])[H:11])([H:7])([H:8])[H:9]"
C        1.09635999       0.13934920      -0.60696119
C       -0.16248715       0.47273580       0.44604166
O       -0.21463895       1.69519698       0.75147029
C       -0.06889607      -0.62740228       1.31994421
C       -1.30134683       0.05198966      -0.68488636
O       -1.54369219      -1.01430574      -1.12616166
H        1.11211643      -0.87488952      -0.99459310
H        2.00032454       0.38905045      -0.05977305
H        0.93172149       0.87356624      -1.39425719
H       -0.16259880      -1.63497929       0.93353514
H        0.08071261      -0.48364709       2.38562412
H       -1.76757503       1.01333558      -0.96998288
12
Frame=1 idx=001411 GeodesicLength=0.11282301509666808 rxn_smarts="[C:1]([C:2](=[O:3])[C:4]([C:5](=[O:6])[H:12])([H:10])[H:11])([H:7])([H:8])[H:9]>>[C:1]([C:4]([C:2](=[O:3])[C:5](=[O:6])[H:12])([H:10])[H:11])([H:7])([H:8])[H:9]"
C        1.11700510       0.13432827      -0.59292238
C       -0.16258381       0.50150710       0.43599424
O       -0.22528263       1.71704308       0.74587396
C       -0.07113307      -0.61755446       1.29019239
C       -1.32823666       0.04025209      -0.66498161
O       -1.56303654      -1.02372479      -1.11869292
H        1.11744614      -0.87153336      -1.00257999
H        2.02655615       0.35132260      -0.04052186
H        0.98259170       0.87840267      -1.37694497
H       -0.14861411      -1.62901299       0.91125609
H        0.07324459      -0.47332676       2.35677469
H       -1.81795686       0.99229656      -0.94344764
12
Frame=2 idx=001411 GeodesicLength=0.22569415615226351 rxn_smarts="[C:1]([C:2](=[O:3])[C:4]([C:5](=[O:6])[H:12])([H:10])[H:11])([H:7])([H:8])[H:9]>>[C:1]([C:4]([C:2](=[O:3])[C:5](=[O:6])[H:12])([H:10])[H:11])([H:7])([H:8])[H:9]"
C        1.13856654       0.12929233      -0.57893848
C       -0.16264742       0.52981580       0.42349774
O       -0.23631027       1.73831122       0.73847964
C       -0.07308385      -0.60677463       1.25951984
C       -1.35595753       0.02777097      -0.64437339
O       -1.58291639      -1.03339724      -1.11139243
H        1.12316406      -0.86665588      -1.01239211
H        2.05240191       0.31084453      -0.02028358
H        1.03762434       0.88462753      -1.35744841
H       -0.13516732      -1.62225329       0.88933666
H        0.06516530      -0.46136167       2.32700520
H       -1.87083938       0.96978032      -0.91301068
12
Frame=3 idx=001411 GeodesicLength=0.3385959565880041 rxn_smarts="[C:1]([C:2](=[O:3])[C:4]([C:5](=[O:6])[H:12])([H:10])[H:11])([H:7])([H:8])[H:9]>>[C:1]([C:4]([C:2](=[O:3])[C:5](=[O:6])[H:12])([H:10])[H:11])([H:7])([H:8])[H:9]"
C        1.16107927       0.12424699      -0.56496048
C       -0.16277418       0.55766677       0.40828145
O       -0.24773709       1.75899759       0.72898197
C       -0.07476931      -0.59504768       1.22785556
C       -1.38455910       0.01451148      -0.62302032
O       -1.60342082      -1.04328941      -1.10425019
H        1.12933568      -0.86001502      -1.02406293
H        2.07764876       0.26748010       0.00091198
H        1.09709155       0.89213812      -1.33531349
H       -0.12228071      -1.61467666       0.86767555
H        0.05655710      -0.44764755       2.29620158
H       -1.92617116       0.94563527      -0.87830068
12
Frame=4 idx=001411 GeodesicLength=0.4515049715460202 rxn_smarts="[C:1]([C:2](=[O:3])[C:4]([C:5](=[O:6])[H:12])([H:10])[H:11])([H:7])([H:8])[H:9]>>[C:1]([C:4]([C:2](=[O:3])[C:5](=[O:6])[H:12])([H:10])[H:11])([H:7])([H:8])[H:9]"
C        1.18456596       0.11920723      -0.55092391
C       -0.16306556       0.58505211       0.39005315
O       -0.25957842       1.77909559       0.71704028
C       -0.07621525      -0.58236697       1.19511889
C       -1.41408848       0.00043624      -0.60085027
O       -1.62466089      -1.05335308      -1.09724475
H        1.13605874      -0.85131970      -1.03762387
H        2.10205070       0.22110788       0.02299528
H        1.16116954       0.90077848      -1.31000093
H       -0.10997268      -1.60626513       0.84616363
H        0.04751257      -0.43208192       2.26423791
H       -1.98377621       0.91970927      -0.83896540
12
Frame=5 idx=001411 GeodesicLength=0.5643938822762685 rxn_smarts="[C:1]([C:2](=[O:3])[C:4]([C:5](=[O:6])[H:12])([H:10])[H:11])([H:7])([H:8])[H:9]>>[C:1]([C:4]([C:2](=[O:3])[C:5](=[O:6])[H:12])([H:10])[H:11])([H:7])([H:8])[H:9]"
C        1.20903421       0.11419642      -0.53673741
C       -0.16362832       0.61193875       0.36850218
O       -0.27185348       1.79856983       0.70227475
C       -0.07745299      -0.56873050       1.16120776
C       -1.44457256      -0.01448605      -0.57775322
O       -1.64676150      -1.06350200      -1.09032759
H        1.14347739      -0.84021515      -1.05307580
H        2.12533223       0.17162766       0.04583979
H        1.22989475       0.91030963      -1.28087979
H       -0.09826305      -1.59699194       0.82467495
H        0.03813301      -0.41456168       2.23094863
H       -2.04333969       0.89184504      -0.79467424
12
Frame=6 idx=001411 GeodesicLength=0.6772337484745801 rxn_smarts="[C:1]([C:2](=[O:3])[C:4]([C:5](=[O:6])[H:12])([H:10])[H:11])([H:7])([H:8])[H:9]>>[C:1]([C:4]([C:2](=[O:3])[C:5](=[O:6])[H:12])([H:10])[H:11])([H:7])([H:8])[H:9]"
C        1.23445594       0.10924825      -0.52230323
C       -0.16457484       0.63826969       0.34331893
O       -0.28457908       1.81739455       0.68429424
C       -0.07851166      -0.55417284       1.12604090
C       -1.47602057      -0.03029589      -0.55359255
O       -1.66991131      -1.07367249      -1.08340106
H        1.15179098      -0.82631982      -1.07041234
H        2.14717648       0.11898858       0.06925194
H        1.30310092       0.92048158      -1.24725130
H       -0.08715916      -1.58687534       0.80309780
H        0.02855514      -0.39501760       2.19620894
H       -2.10432283       0.86197133      -0.74525226
12
Frame=7 idx=001411 GeodesicLength=0.7899971812089287 rxn_smarts="[C:1]([C:2](=[O:3])[C:4]([C:5](=[O:6])[H:12])([H:10])[H:11])([H:7])([H:8])[H:9]>>[C:1]([C:4]([C:2](=[O:3])[C:5](=[O:6])[H:12])([H:10])[H:11])([H:7])([H:8])[H:9]"
C        1.26076778       0.10440012      -0.50749495
C       -0.16601663       0.66394209       0.31420733
O       -0.29776846       1.83549573       0.66269953
C       -0.07942150      -0.53875735       1.08952399
C       -1.50838793      -0.04701673      -0.52819595
O       -1.69433345      -1.08377123      -1.07629218
H        1.16128517      -0.80922533      -1.08953183
H        2.16725028       0.06323284       0.09294053
H        1.38035279       0.93096314      -1.20836984
H       -0.07666829      -1.57594508       0.78130484
H        0.01893327      -0.37341702       2.15986904
H       -2.16599304       0.83009881      -0.69066050
12
Frame=8 idx=001411 GeodesicLength=0.9026590704570024 rxn_smarts="[C:1]([C:2](=[O:3])[C:4]([C:5](=[O:6])[H:12])([H:10])[H:11])([H:7])([H:8])[H:9]>>[C:1]([C:4]([C:2](=[O:3])[C:5](=[O:6])[H:12])([H:10])[H:11])([H:7])([H:8])[H:9]"
C        1.28785748       0.09969577      -0.49217570
C       -0.16805791       0.68880620       0.28091710
O       -0.31142557       1.85276603       0.63712163
C       -0.08021393      -0.52259573       1.05157798
C       -1.54155559      -0.06464844      -0.50137260
O       -1.72029481      -1.09371017      -1.06872058
H        1.17234131      -0.78853273      -1.11024390
H        2.18520790       0.00451918       0.11651562
H        1.46090756       0.94138594      -1.16350955
H       -0.06678976      -1.56427250       0.75917361
H        0.00943648      -0.34979529       2.12179510
H       -2.22741315       0.79638175      -0.63107872
12
Frame=9 idx=001411 GeodesicLength=1.0151940391458762 rxn_smarts="[C:1]([C:2](=[O:3])[C:4]([C:5](=[O:6])[H:12])([H:10])[H:11])([H:7])([H:8])[H:9]>>[C:1]([C:4]([C:2](=[O:3])[C:5](=[O:6])[H:12])([H:10])[H:11])([H:7])([H:8])[H:9]"
C        1.31556703       0.09517066      -0.47619704
C       -0.17076984       0.71267537       0.24325582
O       -0.32551642       1.86907960       0.60722562
C       -0.08092279      -0.50585065       1.01213564
C       -1.57528514      -0.08312795      -0.47299564
O       -1.74807795      -1.10339978      -1.06035243
H        1.18546109      -0.76392924      -1.13221389
H        2.20072022      -0.05682677       0.13952983
H        1.54370023       0.95134311      -1.11205708
H       -0.05753040      -1.55198135       0.73657790
H        0.00023201      -0.32426464       2.08187323
H       -2.28757803       0.76111164      -0.56678195
12
Frame=10 idx=001411 GeodesicLength=1.1275982130787285 rxn_smarts="[C:1]([C:2](=[O:3])[C:4]([C:5](=[O:6])[H:12])([H:10])[H:11])([H:7])([H:8])[H:9]>>[C:1]([C:4]([C:2](=[O:3])[C:5](=[O:6])[H:12])([H:10])[H:11])([H:7])([H:8])[H:9]"
C        1.34367621       0.09085730      -0.45942872
C       -0.17419449       0.73530177       0.20113026
O       -0.33997536       1.88425517       0.57276859
C       -0.08158528      -0.48875858       0.97113362
C       -1.60925599      -0.10234021      -0.44293884
O       -1.77802354      -1.11279609      -1.05066896
H        1.20126766      -0.73524904      -1.15495546
H        2.21350839      -0.12024285       0.16146051
H        1.62733848       0.96046717      -1.05354034
H       -0.04888638      -1.53924587       0.71336868
H       -0.00853071      -0.29707071       2.04000337
H       -2.34533899       0.72482194      -0.49833273
12
Frame=11 idx=001411 GeodesicLength=1.239886003863877 rxn_smarts="[C:1]([C:2](=[O:3])[C:4]([C:5](=[O:6])[H:12])([H:10])[H:11])([H:7])([H:8])[H:9]>>[C:1]([C:4]([C:2](=[O:3])[C:5](=[O:6])[H:12])([H:10])[H:11])([H:7])([H:8])[H:9]"
C        1.37192901       0.08677547      -0.44176237
C       -0.17831651       0.75641382       0.15453773
O       -0.35468312       1.89810163       0.53358577
C       -0.08224330      -0.47161158       0.92850630
C       -1.64304806      -0.12206928      -0.41118298
O       -1.81045847      -1.12187717      -1.03910067
H        1.22047030      -0.70253536      -1.17783824
H        2.22338602      -0.18494369       0.18182735
H        1.71022075       0.96842945      -0.98773070
H       -0.04086181      -1.52629719       0.68936415
H       -0.01675309      -0.26856662       1.99609619
H       -2.39964170       0.68818053      -0.42630255
12
Frame=12 idx=001411 GeodesicLength=1.3521535123160677 rxn_smarts="[C:1]([C:2](=[O:3])[C:4]([C:5](=[O:6])[H:12])([H:10])[H:11])([H:7])([H:8])[H:9]>>[C:1]([C:4]([C:2](=[O:3])[C:5](=[O:6])[H:12])([H:10])[H:11])([H:7])([H:8])[H:9]"
C        1.40007517       0.08294856      -0.42314381
C       -0.18307368       0.77574332       0.10357420
O       -0.36948784       1.91047229       0.48962663
C       -0.08295166      -0.45475830       0.88418756
C       -1.67623953      -0.14202956      -0.37776391
O       -1.84572060      -1.13070602      -1.02500950
H        1.24382528      -0.66606115      -1.20017500
H        2.23032574      -0.24997757       0.20022258
H        1.79070534       0.97503348      -0.91463784
H       -0.03346698      -1.51345007       0.66433412
H       -0.02441149      -0.23920772       1.95009072
H       -2.44957976       0.65199272      -0.35130576
12
Frame=13 idx=001411 GeodesicLength=1.46414592194115 rxn_smarts="[C:1]([C:2](=[O:3])[C:4]([C:5](=[O:6])[H:12])([H:10])[H:11])([H:7])([H:8])[H:9]>>[C:1]([C:4]([C:2](=[O:3])[C:5](=[O:6])[H:12])([H:10])[H:11])([H:7])([H:8])[H:9]"
C        1.42769771       0.07933203      -0.40346746
C       -0.18828276       0.79293616       0.04829447
O       -0.38409618       1.92096250       0.44073065
C       -0.08376113      -0.43856356       0.83800743
C       -1.70812892      -0.16170058      -0.34305027
O       -1.88389241      -1.13900370      -1.00801474
H        1.27191829      -0.62635122      -1.22098220
H        2.23427088      -0.31385584       0.21672037
H        1.86686163       0.97989563      -0.83477724
H       -0.02677990      -1.50090160       0.63792746
H       -0.03156329      -0.20960122       1.90181724
H       -2.49424390       0.61685137      -0.27320570
12
Frame=14 idx=001411 GeodesicLength=1.5762543980096688 rxn_smarts="[C:1]([C:2](=[O:3])[C:4]([C:5](=[O:6])[H:12])([H:10])[H:11])([H:7])([H:8])[H:9]>>[C:1]([C:4]([C:2](=[O:3])[C:5](=[O:6])[H:12])([H:10])[H:11])([H:7])([H:8])[H:9]"
C        1.45465574       0.07599913      -0.38280199
C       -0.19386476       0.80778947      -0.01102941
O       -0.39839848       1.92961618       0.38711582
C       -0.08472177      -0.42345630       0.78989523
C       -1.73859670      -0.18078479      -0.30699129
O       -1.92538764      -1.14706916      -0.98731996
H        1.30537423      -0.58398381      -1.23971571
H        2.23567324      -0.37563905       0.23119358
H        1.93739423       0.98323445      -0.74848009
H       -0.02076070      -1.48915249       0.60975901
H       -0.03824786      -0.18034322       1.85126265
H       -2.53311954       0.58378960      -0.19288784
12
Frame=15 idx=001411 GeodesicLength=1.6883361779832704 rxn_smarts="[C:1]([C:2](=[O:3])[C:4]([C:5](=[O:6])[H:12])([H:10])[H:11])([H:7])([H:8])[H:9]>>[C:1]([C:4]([C:2](=[O:3])[C:5](=[O:6])[H:12])([H:10])[H:11])([H:7])([H:8])[H:9]"
C        1.48054446       0.07299539      -0.36115058
C       -0.19966780       0.81997492      -0.07424606
O       -0.41220382       1.93609013       0.32877510
C       -0.08584495      -0.40980517       0.73972363
C       -1.76716915      -0.19885916      -0.26971865
O       -1.97010396      -1.15476019      -0.96235590
H        1.34431676      -0.53936251      -1.25570474
H        2.23469383      -0.43434893       0.24384775
H        2.00078449       0.98509110      -0.65625509
H       -0.01538084      -1.47844615       0.57942233
H       -0.04448784      -0.15208022       1.79833418
H       -2.56548119       0.55351078      -0.11067196
12
Frame=16 idx=001411 GeodesicLength=1.8003865778402925 rxn_smarts="[C:1]([C:2](=[O:3])[C:4]([C:5](=[O:6])[H:12])([H:10])[H:11])([H:7])([H:8])[H:9]>>[C:1]([C:4]([C:2](=[O:3])[C:5](=[O:6])[H:12])([H:10])[H:11])([H:7])([H:8])[H:9]"
C        1.50498612       0.07038155      -0.33851819
C       -0.20555593       0.82919509      -0.14125416
O       -0.42539175       1.94008618       0.26563012
C       -0.08712662      -0.39789254       0.68737672
C       -1.79341464      -0.21556039      -0.23136925
O       -2.01779361      -1.16193110      -0.93264510
H        1.38858517      -0.49264414      -1.26844365
H        2.23152982      -0.48944047       0.25485318
H        2.05576536       0.98554939      -0.55837672
H       -0.01059835      -1.46897412       0.54651442
H       -0.05027511      -0.12530332       1.74295759
H       -2.59071046       0.52653385      -0.02672497
