14
Frame=0 idx=000651 GeodesicLength=0.0 rxn_smarts="[O:1]([C@@:2]1([H:8])[C:3]([H:9])([H:10])[C@@:4]2([H:11])[C:5]([H:12])([H:13])[C@@:6]12[H:14])[H:7]>>[O:1]=[C:2]([C:3]([C:4]1([H:11])[C:5]([H:12])([H:13])[C:6]1([H:7])[H:14])([H:9])[H:10])[H:8]"
O       -1.04127847       1.88399423      -0.13127165
C       -1.00802568       0.68947241       0.43740100
C       -1.15130065      -0.59755736      -0.37667929
C        0.28405516      -0.95841673      -0.06898165
C        1.32628138      -0.12345005      -0.67011715
C        0.74353468       0.34562321       0.65286450
H        0.16740993       1.49029917       0.26471758
H       -1.36197693       0.58091362       1.47363043
H       -1.36509200      -0.41143081      -1.42752997
H       -1.88035019      -1.28886380       0.04222122
H        0.54754278      -1.90134716       0.38881927
H        1.09902581       0.45940533      -1.55593377
H        2.34264383      -0.48951398      -0.60971462
H        1.29753031       0.32087198       1.58057411
14
Frame=1 idx=000651 GeodesicLength=0.08715619943189425 rxn_smarts="[O:1]([C@@:2]1([H:8])[C:3]([H:9])([H:10])[C@@:4]2([H:11])[C:5]([H:12])([H:13])[C@@:6]12[H:14])[H:7]>>[O:1]=[C:2]([C:3]([C:4]1([H:11])[C:5]([H:12])([H:13])[C:6]1([H:7])[H:14])([H:9])[H:10])[H:8]"
O       -1.06083423       1.88482728      -0.11590214
C       -1.02187322       0.68820803       0.44535091
C       -1.14837616      -0.59439513      -0.37812398
C        0.28500145      -0.95761265      -0.06257988
C        1.33022274      -0.13010435      -0.67218659
C        0.74992819       0.34768253       0.64731115
H        0.17316533       1.50662175       0.25852190
H       -1.37611435       0.57236333       1.48040878
H       -1.35396879      -0.40044965      -1.42941642
H       -1.87949555      -1.29085549       0.02869984
H        0.54291748      -1.89950658       0.40059641
H        1.10376364       0.44789089      -1.56141547
H        2.34492747      -0.50090940      -0.61256605
H        1.31073599       0.32623945       1.57130153
14
Frame=2 idx=000651 GeodesicLength=0.17429253968529157 rxn_smarts="[O:1]([C@@:2]1([H:8])[C:3]([H:9])([H:10])[C@@:4]2([H:11])[C:5]([H:12])([H:13])[C@@:6]12[H:14])[H:7]>>[O:1]=[C:2]([C:3]([C:4]1([H:11])[C:5]([H:12])([H:13])[C:6]1([H:7])[H:14])([H:9])[H:10])[H:8]"
O       -1.08025442       1.88553480      -0.09972301
C       -1.03607952       0.68662320       0.45358156
C       -1.14540880      -0.59109856      -0.37957274
C        0.28594488      -0.95667167      -0.05612292
C        1.33424931      -0.13696086      -0.67428905
C        0.75635967       0.34994548       0.64149257
H        0.17907123       1.52332281       0.25149814
H       -1.39061990       0.56319152       1.48737662
H       -1.34280813      -0.38895258      -1.43111181
H       -1.87845233      -1.29285959       0.01475470
H        0.53820870      -1.89737489       0.41266575
H        1.10867250       0.43591352      -1.56707981
H        2.34723154      -0.51257623      -0.61521996
H        1.32388528       0.33196304       1.56174997
14
Frame=3 idx=000651 GeodesicLength=0.2614218166871143 rxn_smarts="[O:1]([C@@:2]1([H:8])[C:3]([H:9])([H:10])[C@@:4]2([H:11])[C:5]([H:12])([H:13])[C@@:6]12[H:14])[H:7]>>[O:1]=[C:2]([C:3]([C:4]1([H:11])[C:5]([H:12])([H:13])[C:6]1([H:7])[H:14])([H:9])[H:10])[H:8]"
O       -1.09949187       1.88610684      -0.08268461
C       -1.05066521       0.68469286       0.46210520
C       -1.14240067      -0.58765927      -0.38102141
C        0.28688363      -0.95558374      -0.04961039
C        1.33836230      -0.14402504      -0.67642064
C        0.76282265       0.35242203       0.63539366
H        0.18513441       1.54041674       0.24357753
H       -1.40551347       0.55335733       1.49453728
H       -1.33161535      -0.37691296      -1.43260087
H       -1.87720849      -1.29486974       0.00036925
H        0.53341414      -1.89493192       0.42503170
H        1.11375747       0.42344452      -1.57293261
H        2.34955755      -0.52451434      -0.61765421
H        1.33696290       0.33805668       1.55191012
14
Frame=4 idx=000651 GeodesicLength=0.3485433918821714 rxn_smarts="[O:1]([C@@:2]1([H:8])[C:3]([H:9])([H:10])[C@@:4]2([H:11])[C:5]([H:12])([H:13])[C@@:6]12[H:14])[H:7]>>[O:1]=[C:2]([C:3]([C:4]1([H:11])[C:5]([H:12])([H:13])[C:6]1([H:7])[H:14])([H:9])[H:10])[H:8]"
O       -1.11849194       1.88652911      -0.06473381
C       -1.06565188       0.68238970       0.47093580
C       -1.13935345      -0.58406832      -0.38246679
C        0.28781519      -0.95433752      -0.04304319
C        1.34256292      -0.15130198      -0.67857599
C        0.76930947       0.35512286       0.62899812
H        0.19135470       1.55791651       0.23468812
H       -1.42081384       0.54281884       1.50189240
H       -1.32039759      -0.36430266      -1.43386401
H       -1.87574621      -1.29687547      -0.01447606
H        0.52852956      -1.89215508       0.43769756
H        1.11902438       0.41045232      -1.57897898
H        2.35190565      -0.53672431      -0.61984320
H        1.34995304       0.34453600       1.54177003
14
Frame=5 idx=000651 GeodesicLength=0.4356611039383864 rxn_smarts="[O:1]([C@@:2]1([H:8])[C:3]([H:9])([H:10])[C@@:4]2([H:11])[C:5]([H:12])([H:13])[C@@:6]12[H:14])[H:7]>>[O:1]=[C:2]([C:3]([C:4]1([H:11])[C:5]([H:12])([H:13])[C:6]1([H:7])[H:14])([H:9])[H:10])[H:8]"
O       -1.13718925       1.88678777      -0.04581882
C       -1.08106362       0.67968579       0.48008290
C       -1.13626978      -0.58031626      -0.38390782
C        0.28873737      -0.95292122      -0.03642219
C        1.34685169      -0.15879533      -0.68075093
C        0.77581259       0.35805857       0.62229108
H        0.19773413       1.57583577       0.22476042
H       -1.43654136       0.53153820       1.50944389
H       -1.30916202      -0.35109549      -1.43488487
H       -1.87405535      -1.29887257      -0.02979661
H        0.52355353      -1.88902543       0.45066662
H        1.12447542       0.39690640      -1.58522128
H        2.35427767      -0.54920155      -0.62176435
H        1.36283900       0.35141535       1.53132197
14
Frame=6 idx=000651 GeodesicLength=0.5227860937534148 rxn_smarts="[O:1]([C@@:2]1([H:8])[C:3]([H:9])([H:10])[C@@:4]2([H:11])[C:5]([H:12])([H:13])[C@@:6]12[H:14])[H:7]>>[O:1]=[C:2]([C:3]([C:4]1([H:11])[C:5]([H:12])([H:13])[C:6]1([H:7])[H:14])([H:9])[H:10])[H:8]"
O       -1.15551233       1.88686587      -0.02587413
C       -1.09692610       0.67654668       0.48955754
C       -1.13315387      -0.57639322      -0.38533769
C        0.28964731      -0.95132308      -0.02974662
C        1.35122766      -0.16650953      -0.68293791
C        0.78232192       0.36124015       0.61525357
H        0.20427703       1.59418976       0.21371032
H       -1.45271926       0.51946289       1.51718701
H       -1.29791659      -0.33726055      -1.43563898
H       -1.87211392      -1.30084394      -0.04561754
H        0.51848162      -1.88551497       0.46394344
H        1.13011165       0.38276841      -1.59166321
H        2.35667251      -0.56194217      -0.62338767
H        1.37560238       0.35871369       1.52055188
14
Frame=7 idx=000651 GeodesicLength=0.6099046342872121 rxn_smarts="[O:1]([C@@:2]1([H:8])[C:3]([H:9])([H:10])[C@@:4]2([H:11])[C:5]([H:12])([H:13])[C@@:6]12[H:14])[H:7]>>[O:1]=[C:2]([C:3]([C:4]1([H:11])[C:5]([H:12])([H:13])[C:6]1([H:7])[H:14])([H:9])[H:10])[H:8]"
O       -1.17336717       1.88675061      -0.00484140
C       -1.11326792       0.67294090       0.49936137
C       -1.13000848      -0.57229099      -0.38675470
C        0.29054271      -0.94953107      -0.02301596
C        1.35568827      -0.17444500      -0.68513002
C        0.78882910       0.36467798       0.60787119
H        0.21097760       1.61298864       0.20146548
H       -1.46937408       0.50655280       1.52511374
H       -1.28666948      -0.32277649      -1.43610498
H       -1.86991139      -1.30278068      -0.06195078
H        0.51331582      -1.88160464       0.47752913
H        1.13593044       0.36801017      -1.59830501
H        2.35908910      -0.57493680      -0.62468977
H        1.38822548       0.36644457       1.50945174
14
Frame=8 idx=000651 GeodesicLength=0.6970141445623715 rxn_smarts="[O:1]([C@@:2]1([H:8])[C:3]([H:9])([H:10])[C@@:4]2([H:11])[C:5]([H:12])([H:13])[C@@:6]12[H:14])[H:7]>>[O:1]=[C:2]([C:3]([C:4]1([H:11])[C:5]([H:12])([H:13])[C:6]1([H:7])[H:14])([H:9])[H:10])[H:8]"
O       -1.19065833       1.88641712       0.01734704
C       -1.13011843       0.66883082       0.50949871
C       -1.12683854      -0.56799979      -0.38815302
C        0.29141991      -0.94753230      -0.01623052
C        1.36023106      -0.18260356      -0.68731765
C        0.79532226       0.36838100       0.60012392
H        0.21783006       1.63224558       0.18794189
H       -1.48652930       0.49276038       1.53321465
H       -1.27542821      -0.30761396      -1.43625825
H       -1.86742673      -1.30466209      -0.07881435
H        0.50805258      -1.87726697       0.49142388
H        1.14192933       0.35259330      -1.60514420
H        2.36152676      -0.58817437      -0.62563951
H        1.40068758       0.37462483       1.49800742
14
Frame=9 idx=000651 GeodesicLength=0.7840525060873633 rxn_smarts="[O:1]([C@@:2]1([H:8])[C:3]([H:9])([H:10])[C@@:4]2([H:11])[C:5]([H:12])([H:13])[C@@:6]12[H:14])[H:7]>>[O:1]=[C:2]([C:3]([C:4]1([H:11])[C:5]([H:12])([H:13])[C:6]1([H:7])[H:14])([H:9])[H:10])[H:8]"
O       -1.20725538       1.88584557       0.04076933
C       -1.14750698       0.66418073       0.51996429
C       -1.12365002      -0.56350776      -0.38952817
C        0.29227538      -0.94531460      -0.00938575
C        1.36484965      -0.19098300      -0.68949244
C        0.80179079       0.37236386       0.59199442
H        0.22480688       1.65196089       0.17306071
H       -1.50421035       0.47803929       1.54147035
H       -1.26420032      -0.29175260      -1.43607071
H       -1.86464651      -1.30646923      -0.09623565
H        0.50269363      -1.87248165       0.50563512
H        1.14809942       0.33647910      -1.61217935
H        2.36398155      -0.60163803      -0.62621171
H        1.41297227       0.38327741       1.48620956
14
Frame=10 idx=000651 GeodesicLength=0.8710902878952398 rxn_smarts="[O:1]([C@@:2]1([H:8])[C:3]([H:9])([H:10])[C@@:4]2([H:11])[C:5]([H:12])([H:13])[C@@:6]12[H:14])[H:7]>>[O:1]=[C:2]([C:3]([C:4]1([H:11])[C:5]([H:12])([H:13])[C:6]1([H:7])[H:14])([H:9])[H:10])[H:8]"
O       -1.22306632       1.88500921       0.06547923
C       -1.16546997       0.65896179       0.53074641
C       -1.12044724      -0.55880894      -0.39087321
C        0.29310664      -0.94286210      -0.00248032
C        1.36953881      -0.19958238      -0.69164594
C        0.80822955       0.37662895       0.58347354
H        0.23192729       1.67215858       0.15675793
H       -1.52245334       0.46235301       1.54985663
H       -1.25299555      -0.27517949      -1.43552017
H       -1.86154938      -1.30818821      -0.11421824
H        0.49723925      -1.86722134       0.52015880
H        1.15442653       0.31964530      -1.61939849
H        2.36644972      -0.61531724      -0.62638785
H        1.42506403       0.39240284       1.47405167
14
Frame=11 idx=000651 GeodesicLength=0.9581176679487546 rxn_smarts="[O:1]([C@@:2]1([H:8])[C:3]([H:9])([H:10])[C@@:4]2([H:11])[C:5]([H:12])([H:13])[C@@:6]12[H:14])[H:7]>>[O:1]=[C:2]([C:3]([C:4]1([H:11])[C:5]([H:12])([H:13])[C:6]1([H:7])[H:14])([H:9])[H:10])[H:8]"
O       -1.23797030       1.88388487       0.09153445
C       -1.18403773       0.65314789       0.54182668
C       -1.11723622      -0.55389640      -0.39218127
C        0.29391145      -0.94016126       0.00448969
C        1.37429013      -0.20839613      -0.69377110
C        0.81463473       0.38118110       0.57455198
H        0.23917949       1.69284687       0.13898026
H       -1.54129444       0.44566717       1.55833854
H       -1.24182030      -0.25788748      -1.43458331
H       -1.85811891      -1.30980121      -0.13277027
H        0.49169211      -1.86146610       0.53499718
H        1.16089113       0.30206771      -1.62678894
H        2.36892444      -0.62919470      -0.62615376
H        1.43695440       0.40200766       1.46152985
14
Frame=12 idx=000651 GeodesicLength=1.0451314799022118 rxn_smarts="[O:1]([C@@:2]1([H:8])[C:3]([H:9])([H:10])[C@@:4]2([H:11])[C:5]([H:12])([H:13])[C@@:6]12[H:14])[H:7]>>[O:1]=[C:2]([C:3]([C:4]1([H:11])[C:5]([H:12])([H:13])[C:6]1([H:7])[H:14])([H:9])[H:10])[H:8]"
O       -1.25182074       1.88243427       0.11901026
C       -1.20325211       0.64670819       0.55317596
C       -1.11402296      -0.54876203      -0.39344426
C        0.29468689      -0.93719591       0.01153027
C        1.37909382      -0.21741900      -0.69585797
C        0.82100205       0.38602645       0.56521881
H        0.24654354       1.71403882       0.11966544
H       -1.56077069       0.42794561       1.56687549
H       -1.23068373      -0.23987103      -1.43323171
H       -1.85433421      -1.31128312      -0.15190288
H        0.48605484      -1.85518863       0.55015299
H        1.16747222       0.28371995      -1.63433756
H        2.37139799      -0.64325247      -0.62549157
H        1.44863308       0.41209890       1.44863673
14
Frame=13 idx=000651 GeodesicLength=1.1321296092134467 rxn_smarts="[O:1]([C@@:2]1([H:8])[C:3]([H:9])([H:10])[C@@:4]2([H:11])[C:5]([H:12])([H:13])[C@@:6]12[H:14])[H:7]>>[O:1]=[C:2]([C:3]([C:4]1([H:11])[C:5]([H:12])([H:13])[C:6]1([H:7])[H:14])([H:9])[H:10])[H:8]"
O       -1.26446982       1.88061612       0.14797647
C       -1.22315382       0.63962017       0.56475588
C       -1.11081449      -0.54339956      -0.39465304
C        0.29543007      -0.93394972       0.01864909
C        1.38393774      -0.22664288      -0.69789771
C        0.82732983       0.39116940       0.55546572
H        0.25400412       1.73574220       0.09876945
H       -1.58092301       0.40915852       1.57541189
H       -1.21959211      -0.22113332      -1.43144224
H       -1.85017981      -1.31261054      -0.17161591
H        0.48033235      -1.84836639       0.56563113
H        1.17414257       0.26458520      -1.64202750
H        2.37386099      -0.65746992      -0.62439109
H        1.46009540       0.42268074       1.43536786
14
Frame=14 idx=000651 GeodesicLength=1.2191104473832217 rxn_smarts="[O:1]([C@@:2]1([H:8])[C:3]([H:9])([H:10])[C@@:4]2([H:11])[C:5]([H:12])([H:13])[C@@:6]12[H:14])[H:7]>>[O:1]=[C:2]([C:3]([C:4]1([H:11])[C:5]([H:12])([H:13])[C:6]1([H:7])[H:14])([H:9])[H:10])[H:8]"
O       -1.27576422       1.87837517       0.17849424
C       -1.24378513       0.63187085       0.57651539
C       -1.10761556      -0.53780309      -0.39579765
C        0.29613908      -0.93040404       0.02585462
C        1.38880918      -0.23605876      -0.69988346
C        0.83362295       0.39660923       0.54528871
H        0.26152881       1.75797104       0.07627063
H       -1.60179321       0.38929195       1.58388251
H       -1.20855461      -0.20168691      -1.42918790
H       -1.84563303      -1.31376077      -0.19190621
H        0.47452731      -1.84097134       0.58143577
H        1.18087125       0.24465036      -1.64983591
H        2.37630221      -0.67182791      -0.62284965
H        1.47134495       0.43374421       1.42171891
14
Frame=15 idx=000651 GeodesicLength=1.3060740836040197 rxn_smarts="[O:1]([C@@:2]1([H:8])[C:3]([H:9])([H:10])[C@@:4]2([H:11])[C:5]([H:12])([H:13])[C@@:6]12[H:14])[H:7]>>[O:1]=[C:2]([C:3]([C:4]1([H:11])[C:5]([H:12])([H:13])[C:6]1([H:7])[H:14])([H:9])[H:10])[H:8]"
O       -1.28555373       1.87565038       0.21061902
C       -1.26518772       0.62345801       0.58838905
C       -1.10443223      -0.53196909      -0.39686498
C        0.29681318      -0.92654097       0.03315795
C        1.39369285      -0.24565639      -0.70180938
C        0.83989245       0.40234284       0.53468760
H        0.26908311       1.78073639       0.05217178
H       -1.62342693       0.36834093       1.59220704
H       -1.19757593      -0.18155687      -1.42644991
H       -1.84067531      -1.31470809      -0.21275857
H        0.46864579      -1.83297950       0.59757318
H        1.18762067       0.22391334      -1.65773650
H        2.37870783      -0.68630856      -0.62087455
H        1.48239597       0.44527759       1.40768827
14
Frame=16 idx=000651 GeodesicLength=1.3930140555793702 rxn_smarts="[O:1]([C@@:2]1([H:8])[C:3]([H:9])([H:10])[C@@:4]2([H:11])[C:5]([H:12])([H:13])[C@@:6]12[H:14])[H:7]>>[O:1]=[C:2]([C:3]([C:4]1([H:11])[C:5]([H:12])([H:13])[C:6]1([H:7])[H:14])([H:9])[H:10])[H:8]"
O       -1.29368023       1.87235800       0.24440327
C       -1.28740455       0.61438783       0.60029609
C       -1.10126944      -0.52589267      -0.39783893
C        0.29745212      -0.92234098       0.04057259
C        1.39857159      -0.25542565      -0.70367157
C        0.84615491       0.40836575       0.52366376
H        0.27661624       1.80405351       0.02650027
H       -1.64587097       0.34631143       1.60028778
H       -1.18665990      -0.16077451      -1.42320553
H       -1.83528543      -1.31542214      -0.23415287
H        0.46269363      -1.82436406       0.61405484
H        1.19434894       0.20237621      -1.66570316
H        2.38106097      -0.70089729      -0.61847960
H        1.49327213       0.45726457       1.39327307
