9
Frame=0 idx=005102 GeodesicLength=0.0 rxn_smarts="[O:1]([c:2]1[n:3][n:4]([H:8])[n:5][c:6]1[H:9])[H:7]>>[O:1]=[c:2]1[n:3]([H:7])[n:4]([H:8])[n:5][c:6]1[H:9]"
O       -2.06841436      -0.29998824      -0.20817385
C       -0.86302158       0.10485576      -0.07116428
N       -0.10471183      -0.93244483       0.26632801
N        1.18130447      -0.54450663       0.15711485
N        1.26282658       0.74765543      -0.06454871
C        0.03244593       1.19801153      -0.24072662
H       -1.22142670      -1.45677176       0.06224143
H        1.93821303      -1.04391533       0.59016445
H       -0.15721554       2.22710403      -0.49123529
9
Frame=1 idx=005102 GeodesicLength=0.035355792358383854 rxn_smarts="[O:1]([c:2]1[n:3][n:4]([H:8])[n:5][c:6]1[H:9])[H:7]>>[O:1]=[c:2]1[n:3]([H:7])[n:4]([H:8])[n:5][c:6]1[H:9]"
O       -2.06334950      -0.29827485      -0.21718236
C       -0.86524854       0.11260510      -0.03729951
N       -0.10369915      -0.93354546       0.27375202
N        1.18160263      -0.54508035       0.15156969
N        1.26319686       0.74995529      -0.05924169
C        0.03401673       1.19655066      -0.24535684
H       -1.22618644      -1.46294803       0.04881854
H        1.93859578      -1.04294797       0.58661590
H       -0.15892836       2.22368562      -0.50167574
9
Frame=2 idx=005102 GeodesicLength=0.0705841944019911 rxn_smarts="[O:1]([c:2]1[n:3][n:4]([H:8])[n:5][c:6]1[H:9])[H:7]>>[O:1]=[c:2]1[n:3]([H:7])[n:4]([H:8])[n:5][c:6]1[H:9]"
O       -2.05846468      -0.29562982      -0.22279349
C       -0.86638739       0.11867726      -0.01049178
N       -0.10265978      -0.93472507       0.28033253
N        1.18195243      -0.54565677       0.14656628
N        1.26380220       0.75160635      -0.05684917
C        0.03538977       1.19521332      -0.24806486
H       -1.23124744      -1.46880336       0.03583283
H        1.93857543      -1.04100197       0.58545286
H       -0.16096054       2.22032005      -0.50998519
9
Frame=3 idx=005102 GeodesicLength=0.10586807190526741 rxn_smarts="[O:1]([c:2]1[n:3][n:4]([H:8])[n:5][c:6]1[H:9])[H:7]>>[O:1]=[c:2]1[n:3]([H:7])[n:4]([H:8])[n:5][c:6]1[H:9]"
O       -2.05351134      -0.29283008      -0.22763928
C       -0.86692324       0.12380700       0.01167481
N       -0.10165022      -0.93572734       0.28701298
N        1.18225565      -0.54632356       0.14190203
N        1.26459092       0.75266709      -0.05696026
C        0.03673646       1.19377938      -0.25069695
H       -1.23663325      -1.47447549       0.02438025
H        1.93833121      -1.03845335       0.58563791
H       -0.16319619       2.21755635      -0.51531148
9
Frame=4 idx=005102 GeodesicLength=0.14120759415338485 rxn_smarts="[O:1]([c:2]1[n:3][n:4]([H:8])[n:5][c:6]1[H:9])[H:7]>>[O:1]=[c:2]1[n:3]([H:7])[n:4]([H:8])[n:5][c:6]1[H:9]"
O       -2.04867409      -0.28986763      -0.23135744
C       -0.86708344       0.12838970       0.03121381
N       -0.10063009      -0.93671909       0.29356340
N        1.18254164      -0.54697246       0.13751511
N        1.26545674       0.75360445      -0.05769496
C        0.03802747       1.19248856      -0.25256418
H       -1.24216581      -1.48004345       0.01318332
H        1.93802723      -1.03573493       0.58628290
H       -0.16549965       2.21485485      -0.52014197
9
Frame=5 idx=005102 GeodesicLength=0.17653983493597142 rxn_smarts="[O:1]([c:2]1[n:3][n:4]([H:8])[n:5][c:6]1[H:9])[H:7]>>[O:1]=[c:2]1[n:3]([H:7])[n:4]([H:8])[n:5][c:6]1[H:9]"
O       -2.04391682      -0.28677843      -0.23416038
C       -0.86698669       0.13260506       0.04906165
N       -0.09958115      -0.93771853       0.29998447
N        1.18280705      -0.54759411       0.13336150
N        1.26635293       0.75448593      -0.05868439
C        0.03926746       1.19132484      -0.25375081
H       -1.24778694      -1.48549032       0.00196316
H        1.93769421      -1.03292671       0.58715675
H       -0.16785006       2.21209227      -0.52493195
9
Frame=6 idx=005102 GeodesicLength=0.2118858191226586 rxn_smarts="[O:1]([c:2]1[n:3][n:4]([H:8])[n:5][c:6]1[H:9])[H:7]>>[O:1]=[c:2]1[n:3]([H:7])[n:4]([H:8])[n:5][c:6]1[H:9]"
O       -2.03924310      -0.28353637      -0.23605273
C       -0.86671325       0.13657847       0.06589080
N       -0.09848767      -0.93876542       0.30623304
N        1.18305665      -0.54816101       0.12941443
N        1.26724192       0.75541244      -0.05950079
C        0.04044305       1.19031733      -0.25416259
H       -1.25343256      -1.49081716      -0.00960246
H        1.93737120      -1.03013810       0.58804391
H       -0.17023623       2.20910983      -0.53026362
9
Frame=7 idx=005102 GeodesicLength=0.24726248228598843 rxn_smarts="[O:1]([c:2]1[n:3][n:4]([H:8])[n:5][c:6]1[H:9])[H:7]>>[O:1]=[c:2]1[n:3]([H:7])[n:4]([H:8])[n:5][c:6]1[H:9]"
O       -2.03459025      -0.28022889      -0.23734400
C       -0.86625575       0.14034351       0.08177561
N       -0.09735784      -0.93982791       0.31237811
N        1.18328651      -0.54868111       0.12564195
N        1.26814341       0.75636246      -0.06024077
C        0.04159846       1.18941575      -0.25408963
H       -1.25918588      -1.49601842      -0.02125419
H        1.93705054      -1.02735015       0.58893083
H       -0.17268919       2.20598477      -0.53579790
9
Frame=8 idx=005102 GeodesicLength=0.28266103179703567 rxn_smarts="[O:1]([c:2]1[n:3][n:4]([H:8])[n:5][c:6]1[H:9])[H:7]>>[O:1]=[c:2]1[n:3]([H:7])[n:4]([H:8])[n:5][c:6]1[H:9]"
O       -2.03003086      -0.27680723      -0.23785581
C       -0.86566676       0.14395113       0.09711425
N       -0.09617517      -0.94094587       0.31836231
N        1.18351484      -0.54913932       0.12204573
N        1.26903844       0.75739360      -0.06068298
C        0.04271498       1.18865146      -0.25340178
H       -1.26497095      -1.50106859      -0.03336688
H        1.93676469      -1.02461239       0.58976553
H       -0.17518920       2.20257722      -0.54198038
9
Frame=9 idx=005102 GeodesicLength=0.31795207910921885 rxn_smarts="[O:1]([c:2]1[n:3][n:4]([H:8])[n:5][c:6]1[H:9])[H:7]>>[O:1]=[c:2]1[n:3]([H:7])[n:4]([H:8])[n:5][c:6]1[H:9]"
O       -2.02557615      -0.27318374      -0.23725956
C       -0.86496524       0.14743035       0.11246436
N       -0.09491046      -0.94219688       0.32400927
N        1.18374918      -0.54948435       0.11859646
N        1.26988901       0.75862663      -0.06026744
C        0.04374051       1.18820487      -0.25133216
H       -1.27069949      -1.50581280      -0.04652691
H        1.93653758      -1.02205169       0.59030249
H       -0.17776494       2.19846760      -0.54998653
9
Frame=10 idx=005102 GeodesicLength=0.3532973526525484 rxn_smarts="[O:1]([c:2]1[n:3][n:4]([H:8])[n:5][c:6]1[H:9])[H:7]>>[O:1]=[c:2]1[n:3]([H:7])[n:4]([H:8])[n:5][c:6]1[H:9]"
O       -2.02104128      -0.26978257      -0.23700723
C       -0.86414778       0.15079853       0.12659036
N       -0.09367092      -0.94328133       0.32999842
N        1.18393560      -0.54988207       0.11531442
N        1.27079891       0.75963535      -0.06078507
C        0.04485695       1.18745359      -0.25048007
H       -1.27663192      -1.51056171      -0.05882323
H        1.93626417      -1.01927348       0.59120857
H       -0.18036372       2.19489370      -0.55601616
9
Frame=11 idx=005102 GeodesicLength=0.388665937986396 rxn_smarts="[O:1]([c:2]1[n:3][n:4]([H:8])[n:5][c:6]1[H:9])[H:7]>>[O:1]=[c:2]1[n:3]([H:7])[n:4]([H:8])[n:5][c:6]1[H:9]"
O       -2.01648382      -0.26648468      -0.23665800
C       -0.86323640       0.15408317       0.14006077
N       -0.09241551      -0.94431777       0.33610931
N        1.18409275      -0.55028682       0.11217843
N        1.27173243       0.76057952      -0.06159184
C        0.04599528       1.18665141      -0.24992263
H       -1.28268941      -1.51523700      -0.07093751
H        1.93599403      -1.01643677       0.59222400
H       -0.18298935       2.19144893      -0.56146254
9
Frame=12 idx=005102 GeodesicLength=0.4240423248827481 rxn_smarts="[O:1]([c:2]1[n:3][n:4]([H:8])[n:5][c:6]1[H:9])[H:7]>>[O:1]=[c:2]1[n:3]([H:7])[n:4]([H:8])[n:5][c:6]1[H:9]"
O       -2.01191748      -0.26324660      -0.23609589
C       -0.86224101       0.15730352       0.15306962
N       -0.09113833      -0.94532237       0.34229592
N        1.18422685      -0.55068508       0.10917877
N        1.27267897       0.76148819      -0.06253652
C        0.04714569       1.18582129      -0.24945375
H       -1.28884105      -1.51981691      -0.08308222
H        1.93573582      -1.01356246       0.59329334
H       -0.18564947       2.18802041      -0.56666927
9
Frame=13 idx=005102 GeodesicLength=0.4594347163418775 rxn_smarts="[O:1]([c:2]1[n:3][n:4]([H:8])[n:5][c:6]1[H:9])[H:7]>>[O:1]=[c:2]1[n:3]([H:7])[n:4]([H:8])[n:5][c:6]1[H:9]"
O       -2.00733969      -0.26006208      -0.23527194
C       -0.86117086       0.16047737       0.16574043
N       -0.08983113      -0.94631466       0.34854000
N        1.18434195      -0.55107669       0.10631001
N        1.27363211       0.76237830      -0.06355707
C        0.04829516       1.18498817      -0.24898068
H       -1.29507899      -1.52427696      -0.09537132
H        1.93549612      -1.01066416       0.59439562
H       -0.18834466       2.18455071      -0.57180505
9
Frame=14 idx=005102 GeodesicLength=0.49488032698460865 rxn_smarts="[O:1]([c:2]1[n:3][n:4]([H:8])[n:5][c:6]1[H:9])[H:7]>>[O:1]=[c:2]1[n:3]([H:7])[n:4]([H:8])[n:5][c:6]1[H:9]"
O       -2.00278671      -0.25688914      -0.23405673
C       -0.86002795       0.16362412       0.17824483
N       -0.08848779      -0.94732351       0.35479311
N        1.18445114      -0.55145479       0.10356978
N        1.27459398       0.76328027      -0.06454744
C        0.04943647       1.18419627      -0.24832097
H       -1.30137446      -1.52859461      -0.10801722
H        1.93528626      -1.00776383       0.59550876
H       -0.19109095       2.18092522      -0.57717412
9
Frame=15 idx=005102 GeodesicLength=0.5302412685103399 rxn_smarts="[O:1]([c:2]1[n:3][n:4]([H:8])[n:5][c:6]1[H:9])[H:7]>>[O:1]=[c:2]1[n:3]([H:7])[n:4]([H:8])[n:5][c:6]1[H:9]"
O       -1.99824935      -0.25371092      -0.23237926
C       -0.85878133       0.16669241       0.19054828
N       -0.08710937      -0.94832139       0.36107521
N        1.18453877      -0.55180509       0.10097745
N        1.27555689       0.76413655      -0.06562301
C        0.05057226       1.18339548      -0.24754061
H       -1.30771221      -1.53271156      -0.12109674
H        1.93508233      -1.00480249       0.59671024
H       -0.19389799       2.17712701      -0.58267155
9
Frame=16 idx=005102 GeodesicLength=0.5656541130751231 rxn_smarts="[O:1]([c:2]1[n:3][n:4]([H:8])[n:5][c:6]1[H:9])[H:7]>>[O:1]=[c:2]1[n:3]([H:7])[n:4]([H:8])[n:5][c:6]1[H:9]"
O       -1.99370479      -0.25059626      -0.23043808
C       -0.85747095       0.16975444       0.20267340
N       -0.08569031      -0.94932575       0.36739030
N        1.18462048      -0.55215500       0.09849780
N        1.27652104       0.76499796      -0.06671877
C        0.05170534       1.18260368      -0.24672348
H       -1.31413977      -1.53669057      -0.13439736
H        1.93490131      -1.00182712       0.59793250
H       -0.19674234       2.17323861      -0.58821632
