14
Frame=0 idx=001735 GeodesicLength=0.0 rxn_smarts="[O:1]([C@@:2]1([H:8])[C:3]([H:9])([H:10])[C:4]([H:11])([H:12])[O:5][C:6]1([H:13])[H:14])[H:7]>>[C:2]1[C:3]([H:9])([H:10])[C:4]([H:11])([H:12])[O:5][C:6]1([H:13])[H:14].[O:1]([H:7])[H:8]"
O        0.64905225      -1.28831843      -1.51429641
C        0.39182071       0.51612359      -0.74801998
C       -1.04725018       0.44202786      -0.36968255
C       -1.04203468      -0.23033814       1.00117772
O        0.19070528       0.15882705       1.59275703
C        1.09561825       0.52830934       0.55993466
H        1.49807790      -1.59358947      -1.17879369
H        0.81256609      -0.20758767      -1.78843186
H       -1.66973566      -0.03650271      -1.12200198
H       -1.36845043       1.48885589      -0.28329674
H       -1.08790079      -1.32004649       0.89427344
H       -1.85074172       0.09604215       1.65586814
H        1.44413582       1.55660315       0.73061852
H        1.98413716      -0.11040607       0.56989365
14
Frame=1 idx=001735 GeodesicLength=0.0659760949316985 rxn_smarts="[O:1]([C@@:2]1([H:8])[C:3]([H:9])([H:10])[C:4]([H:11])([H:12])[O:5][C:6]1([H:13])[H:14])[H:7]>>[C:2]1[C:3]([H:9])([H:10])[C:4]([H:11])([H:12])[O:5][C:6]1([H:13])[H:14].[O:1]([H:7])[H:8]"
O        0.66377510      -1.27743647      -1.54878385
C        0.39516298       0.50162482      -0.74078502
C       -1.04461648       0.43179028      -0.36704024
C       -1.04822314      -0.22134451       1.01291490
O        0.20013079       0.12402057       1.59603779
C        1.09600627       0.52108725       0.56759913
H        1.50333791      -1.59923421      -1.20570530
H        0.82481206      -0.18243344      -1.80773429
H       -1.65986636      -0.06699088      -1.11296847
H       -1.37675531       1.47638841      -0.30654249
H       -1.13331741      -1.31001690       0.92440933
H       -1.84035776       0.14506281       1.66751136
H        1.42241119       1.55629109       0.74344607
H        1.99750017      -0.09880881       0.57764109
14
Frame=2 idx=001735 GeodesicLength=0.13205303091366827 rxn_smarts="[O:1]([C@@:2]1([H:8])[C:3]([H:9])([H:10])[C:4]([H:11])([H:12])[O:5][C:6]1([H:13])[H:14])[H:7]>>[C:2]1[C:3]([H:9])([H:10])[C:4]([H:11])([H:12])[O:5][C:6]1([H:13])[H:14].[O:1]([H:7])[H:8]"
O        0.67966109      -1.26470044      -1.58526445
C        0.39855630       0.48621975      -0.73326948
C       -1.04204757       0.42013567      -0.36449576
C       -1.05455999      -0.21134144       1.02534921
O        0.20890174       0.08800056       1.59871560
C        1.09610779       0.51287869       0.57574527
H        1.50904048      -1.60400116      -1.23503906
H        0.83725233      -0.15488998      -1.82658830
H       -1.64934722      -0.10029141      -1.10296657
H       -1.38557854       1.46166605      -0.33174673
H       -1.18091464      -1.29714076       0.95718222
H       -1.82749824       0.19684870       1.67898281
H        1.40020440       1.55446546       0.75699063
H        2.01022207      -0.08784969       0.58640460
14
Frame=3 idx=001735 GeodesicLength=0.1981078397380763 rxn_smarts="[O:1]([C@@:2]1([H:8])[C:3]([H:9])([H:10])[C:4]([H:11])([H:12])[O:5][C:6]1([H:13])[H:14])[H:7]>>[C:2]1[C:3]([H:9])([H:10])[C:4]([H:11])([H:12])[O:5][C:6]1([H:13])[H:14].[O:1]([H:7])[H:8]"
O        0.69673599      -1.24989385      -1.62368114
C        0.40199358       0.46983334      -0.72546984
C       -1.03956518       0.40695096      -0.36205749
C       -1.06103926      -0.20023153       1.03844123
O        0.21677133       0.05093328       1.60076638
C        1.09587231       0.50357708       0.58440784
H        1.51528510      -1.60765514      -1.26707081
H        0.84969649      -0.12482242      -1.84481556
H       -1.63808210      -0.13662844      -1.09183467
H       -1.39494987       1.44440075      -0.35897586
H       -1.23057826      -1.28098510       0.99273508
H       -1.81192872       0.25136518       1.69001911
H        1.37766839       1.55097913       0.77116605
H        2.02212020      -0.07782323       0.59636969
14
Frame=4 idx=001735 GeodesicLength=0.2640026839235514 rxn_smarts="[O:1]([C@@:2]1([H:8])[C:3]([H:9])([H:10])[C:4]([H:11])([H:12])[O:5][C:6]1([H:13])[H:14])[H:7]>>[C:2]1[C:3]([H:9])([H:10])[C:4]([H:11])([H:12])[O:5][C:6]1([H:13])[H:14].[O:1]([H:7])[H:8]"
O        0.71493749      -1.23268747      -1.66408052
C        0.40547714       0.45243002      -0.71739152
C       -1.03718897       0.39213112      -0.35972084
C       -1.06760502      -0.18795929       1.05213703
O        0.22344764       0.01330240       1.60228608
C        1.09528407       0.49311136       0.59361867
H        1.52184330      -1.61011658      -1.30187940
H        0.86206983      -0.09201085      -1.86218946
H       -1.62596534      -0.17619378      -1.07939017
H       -1.40492214       1.42428170      -0.38824385
H       -1.28187140      -1.26117688       1.03114737
H       -1.79362204       0.30829612       1.70019440
H        1.35513393       1.54573223       0.78575545
H        2.03298151      -0.06914010       0.60775675
14
Frame=5 idx=001735 GeodesicLength=0.3295051014851216 rxn_smarts="[O:1]([C@@:2]1([H:8])[C:3]([H:9])([H:10])[C:4]([H:11])([H:12])[O:5][C:6]1([H:13])[H:14])[H:7]>>[C:2]1[C:3]([H:9])([H:10])[C:4]([H:11])([H:12])[O:5][C:6]1([H:13])[H:14].[O:1]([H:7])[H:8]"
O        0.73408859      -1.21264372      -1.70655168
C        0.40900882       0.43402720      -0.70903807
C       -1.03489134       0.37560472      -0.35743960
C       -1.07408700      -0.17457222       1.06630833
O        0.22868084      -0.02419871       1.60343350
C        1.09433320       0.48151394       0.60337105
H        1.52787799      -1.61164173      -1.33916025
H        0.87449840      -0.05619458      -1.87832406
H       -1.61280776      -0.21905318      -1.06544045
H       -1.41550010       1.40100935      -0.41940535
H       -1.33401763      -1.23749638       1.07221559
H       -1.77272289       0.36701303       1.70890602
H        1.33293921       1.53877104       0.80042187
H        2.04259967      -0.06213876       0.62070308
14
Frame=6 idx=001735 GeodesicLength=0.39460128838641345 rxn_smarts="[O:1]([C@@:2]1([H:8])[C:3]([H:9])([H:10])[C:4]([H:11])([H:12])[O:5][C:6]1([H:13])[H:14])[H:7]>>[C:2]1[C:3]([H:9])([H:10])[C:4]([H:11])([H:12])[O:5][C:6]1([H:13])[H:14].[O:1]([H:7])[H:8]"
O        0.75414048      -1.18967674      -1.75065390
C        0.41261373       0.41450156      -0.70041122
C       -1.03269043       0.35730064      -0.35523853
C       -1.08058574      -0.15995048       1.08083318
O        0.23218578      -0.06129800       1.60435391
C        1.09300201       0.46864490       0.61370590
H        1.53390589      -1.61166726      -1.37953747
H        0.88641218      -0.01747149      -1.89300693
H       -1.59850496      -0.26534083      -1.04975778
H       -1.42664876       1.37430485      -0.45247519
H       -1.38684432      -1.20953222       1.11591034
H       -1.74919032       0.42745090       1.71583590
H        1.31136279       1.52999454       0.81501805
H        2.05084167      -0.05726038       0.63542373
14
Frame=7 idx=001735 GeodesicLength=0.45906947377907587 rxn_smarts="[O:1]([C@@:2]1([H:8])[C:3]([H:9])([H:10])[C:4]([H:11])([H:12])[O:5][C:6]1([H:13])[H:14])[H:7]>>[C:2]1[C:3]([H:9])([H:10])[C:4]([H:11])([H:12])[O:5][C:6]1([H:13])[H:14].[O:1]([H:7])[H:8]"
O        0.77473524      -1.16332774      -1.79640394
C        0.41633324       0.39387740      -0.69151143
C       -1.03053051       0.33725564      -0.35303705
C       -1.08693290      -0.14421428       1.09554210
O        0.23373469      -0.09671102       1.60556089
C        1.09136843       0.45460869       0.62460946
H        1.53870498      -1.61061199      -1.42263867
H        0.89799781       0.02434818      -1.90574542
H       -1.58282674      -0.31489594      -1.03214603
H       -1.43830611       1.34396922      -0.48721470
H       -1.43901783      -1.17742480       1.16170162
H       -1.72382096       0.48853410       1.72023853
H        1.29102652       1.51958297       0.82896440
H        2.05753412      -0.05499041       0.65208023
14
Frame=8 idx=001735 GeodesicLength=0.5229976227158064 rxn_smarts="[O:1]([C@@:2]1([H:8])[C:3]([H:9])([H:10])[C:4]([H:11])([H:12])[O:5][C:6]1([H:13])[H:14])[H:7]>>[C:2]1[C:3]([H:9])([H:10])[C:4]([H:11])([H:12])[O:5][C:6]1([H:13])[H:14].[O:1]([H:7])[H:8]"
O        0.79572745      -1.13369884      -1.84310029
C        0.42020347       0.37196475      -0.68230377
C       -1.02837929       0.31537542      -0.35084166
C       -1.09325727      -0.12719059       1.11025045
O        0.23315407      -0.13045288       1.60718772
C        1.08940020       0.43923985       0.63611376
H        1.54321883      -1.60758188      -1.46935632
H        0.90842473       0.06892383      -1.91628246
H       -1.56562429      -0.36779007      -1.01229830
H       -1.45034803       1.30968810      -0.52356925
H       -1.49065581      -1.14074170       1.20940003
H       -1.69651829       0.55048132       1.72179626
H        1.27204336       1.50746126       0.84222743
H        2.06261087      -0.05567856       0.67077640
14
Frame=9 idx=001735 GeodesicLength=0.5864204963355402 rxn_smarts="[O:1]([C@@:2]1([H:8])[C:3]([H:9])([H:10])[C:4]([H:11])([H:12])[O:5][C:6]1([H:13])[H:14])[H:7]>>[C:2]1[C:3]([H:9])([H:10])[C:4]([H:11])([H:12])[O:5][C:6]1([H:13])[H:14].[O:1]([H:7])[H:8]"
O        0.81677549      -1.10029651      -1.89074607
C        0.42431312       0.34878542      -0.67280131
C       -1.02615209       0.29162538      -0.34858965
C       -1.09942616      -0.10900877       1.12477783
O        0.23046591      -0.16176111       1.60969980
C        1.08722216       0.42269091       0.64820749
H        1.54603023      -1.60306284      -1.51924840
H        0.91800540       0.11641095      -1.92406967
H       -1.54661600      -0.42387214      -0.99003492
H       -1.46268852       1.27116568      -0.56135326
H       -1.54090855      -1.09969132       1.25832207
H       -1.66795732       0.61254573       1.71991343
H        1.25478057       1.49390700       0.85443500
H        2.06615577      -0.05943838       0.69148766
14
Frame=10 idx=001735 GeodesicLength=0.649055479573881 rxn_smarts="[O:1]([C@@:2]1([H:8])[C:3]([H:9])([H:10])[C:4]([H:11])([H:12])[O:5][C:6]1([H:13])[H:14])[H:7]>>[C:2]1[C:3]([H:9])([H:10])[C:4]([H:11])([H:12])[O:5][C:6]1([H:13])[H:14].[O:1]([H:7])[H:8]"
O        0.83734739      -1.06350849      -1.93835016
C        0.42877318       0.32446105      -0.66311774
C       -1.02373169       0.26638827      -0.34628129
C       -1.10528186      -0.09000915       1.13868467
O        0.22586466      -0.19039741       1.61314077
C        1.08491402       0.40531631       0.66077238
H        1.54641879      -1.59738952      -1.57172723
H        0.92647785       0.16606693      -1.92869331
H       -1.52579363      -0.48210199      -0.96548509
H       -1.47498278       1.22874743      -0.59993049
H       -1.58899740      -1.05485822       1.30721956
H       -1.63856551       0.67366278       1.71433118
H        1.23917654       1.47939071       0.86540478
H        2.06838044      -0.06576868       0.71403196
14
Frame=11 idx=001735 GeodesicLength=0.711110317144642 rxn_smarts="[O:1]([C@@:2]1([H:8])[C:3]([H:9])([H:10])[C:4]([H:11])([H:12])[O:5][C:6]1([H:13])[H:14])[H:7]>>[C:2]1[C:3]([H:9])([H:10])[C:4]([H:11])([H:12])[O:5][C:6]1([H:13])[H:14].[O:1]([H:7])[H:8]"
O        0.85716201      -1.02342672      -1.98539590
C        0.43368080       0.29899405      -0.65328936
C       -1.02104744       0.23965268      -0.34393233
C       -1.11081867      -0.07024389       1.15177760
O        0.21950142      -0.21651993       1.61758034
C        1.08254076       0.38719365       0.67380625
H        1.54421732      -1.59031875      -1.62694197
H        0.93365283       0.21751318      -1.92986804
H       -1.50307552      -0.54220494      -0.93855705
H       -1.48707115       1.18227167      -0.63914581
H       -1.63499058      -1.00626407       1.35556511
H       -1.60840303       0.73372241       1.70486880
H        1.22516908       1.46405410       0.87519184
H        2.06948217      -0.07442343       0.73834052
14
Frame=12 idx=001735 GeodesicLength=0.7724369819202546 rxn_smarts="[O:1]([C@@:2]1([H:8])[C:3]([H:9])([H:10])[C:4]([H:11])([H:12])[O:5][C:6]1([H:13])[H:14])[H:7]>>[C:2]1[C:3]([H:9])([H:10])[C:4]([H:11])([H:12])[O:5][C:6]1([H:13])[H:14].[O:1]([H:7])[H:8]"
O        0.87557784      -0.98109412      -2.03071994
C        0.43909902       0.27228843      -0.64333371
C       -1.01801221       0.21181289      -0.34154244
C       -1.11604845      -0.04979969       1.16369602
O        0.21142789      -0.24000329       1.62298921
C        1.08009274       0.36840608       0.68723713
H        1.54068050      -1.58095063      -1.68521329
H        0.93859144       0.26956727      -1.92754700
H       -1.47875713      -0.60315516      -0.90929577
H       -1.49856527       1.13223794      -0.67837947
H       -1.67851497      -0.95427735       1.40250766
H       -1.57774509       0.79225458       1.69147825
H        1.21274656       1.44802176       0.88373169
H        2.06942714      -0.08530871       0.76439165
14
Frame=13 idx=001735 GeodesicLength=0.8328187352709029 rxn_smarts="[O:1]([C@@:2]1([H:8])[C:3]([H:9])([H:10])[C:4]([H:11])([H:12])[O:5][C:6]1([H:13])[H:14])[H:7]>>[C:2]1[C:3]([H:9])([H:10])[C:4]([H:11])([H:12])[O:5][C:6]1([H:13])[H:14].[O:1]([H:7])[H:8]"
O        0.89240032      -0.93662011      -2.07394326
C        0.44518481       0.24485175      -0.63342992
C       -1.01443616       0.18347656      -0.33911174
C       -1.12058338      -0.02946655       1.17411000
O        0.20232765      -0.26067465       1.62922437
C        1.07774243       0.34978385       0.70084930
H        1.53243561      -1.57141962      -1.74434891
H        0.94244291       0.32185245      -1.92129058
H       -1.45283081      -0.66349537      -0.87841784
H       -1.50905899       1.07950481      -0.71695109
H       -1.71846670      -0.90063984       1.44634751
H       -1.54738602       0.84758852       1.67439339
H        1.20151114       1.43220158       0.89083105
H        2.06871719      -0.09694339       0.79173771
14
Frame=14 idx=001735 GeodesicLength=0.8926927938549108 rxn_smarts="[O:1]([C@@:2]1([H:8])[C:3]([H:9])([H:10])[C:4]([H:11])([H:12])[O:5][C:6]1([H:13])[H:14])[H:7]>>[C:2]1[C:3]([H:9])([H:10])[C:4]([H:11])([H:12])[O:5][C:6]1([H:13])[H:14].[O:1]([H:7])[H:8]"
O        0.90752048      -0.89057131      -2.11464584
C        0.45199554       0.21662648      -0.62359347
C       -1.01032972       0.15454450      -0.33671992
C       -1.12456781      -0.00914131       1.18298016
O        0.19226535      -0.27917690       1.63611210
C        1.07548956       0.33120391       0.71469531
H        1.52081854      -1.56066829      -1.80512650
H        0.94470380       0.37377281      -1.91132894
H       -1.42563817      -0.72312629      -0.84592527
H       -1.51849627       1.02399060      -0.75482511
H       -1.75565978      -0.84499753       1.48729365
H       -1.51686100       0.90026506       1.65379980
H        1.19128529       1.41643462       0.89684446
H        2.06747418      -0.10915635       0.82043957
14
Frame=15 idx=001735 GeodesicLength=0.9520780921434794 rxn_smarts="[O:1]([C@@:2]1([H:8])[C:3]([H:9])([H:10])[C:4]([H:11])([H:12])[O:5][C:6]1([H:13])[H:14])[H:7]>>[C:2]1[C:3]([H:9])([H:10])[C:4]([H:11])([H:12])[O:5][C:6]1([H:13])[H:14].[O:1]([H:7])[H:8]"
O        0.92075736      -0.84365640      -2.15238524
C        0.45956663       0.18764423      -0.61385205
C       -1.00565647       0.12535622      -0.33436436
C       -1.12798228       0.01100090       1.19019363
O        0.18145429      -0.29555132       1.64353032
C        1.07336209       0.31283696       0.72867328
H        1.50603242      -1.54854864      -1.86723833
H        0.94529478       0.42465707      -1.89774940
H       -1.39753773      -0.78129744      -0.81210379
H       -1.52664731       0.96631826      -0.79159065
H       -1.78992617      -0.78801762       1.52481269
H       -1.48646201       0.94993568       1.63000854
H        1.18196181       1.40090437       0.90170418
H        2.06578260      -0.12158226       0.85036116
14
Frame=16 idx=001735 GeodesicLength=1.0108778716953417 rxn_smarts="[O:1]([C@@:2]1([H:8])[C:3]([H:9])([H:10])[C:4]([H:11])([H:12])[O:5][C:6]1([H:13])[H:14])[H:7]>>[C:2]1[C:3]([H:9])([H:10])[C:4]([H:11])([H:12])[O:5][C:6]1([H:13])[H:14].[O:1]([H:7])[H:8]"
O        0.93194308      -0.79665677      -2.18684484
C        0.46787670       0.15794856      -0.60426142
C       -1.00040443       0.09629741      -0.33205923
C       -1.13077923       0.03078709       1.19571379
O        0.17012646      -0.30988853       1.65133562
C        1.07136063       0.29484591       0.74267259
H        1.48838966      -1.53486585      -1.93018305
H        0.94419821       0.47378944      -1.88077742
H       -1.36897827      -0.83722706      -0.77736731
H       -1.53330618       0.90718949      -0.82690558
H       -1.82110391      -0.73041796       1.55846351
H       -1.45641784       0.99627007       1.60349945
H        1.17340260       1.38573153       0.90536890
H        2.06369251      -0.13380333       0.88134501
