10
Frame=0 idx=000958 GeodesicLength=0.0 rxn_smarts="[O:1]=[C:2]1[C:3]([H:6])([H:7])[N:4]([H:8])[C:5]1([H:9])[H:10]>>[O-:1][C:2]1=[C:3]([H:7])[N+:4]([H:6])([H:8])[C:5]1([H:9])[H:10]"
O        2.24800206      -0.48116040      -0.24763795
C        1.10239353      -0.16053382      -0.06514699
C        0.40401224       1.03969975       0.29937833
N       -0.99636331       0.23796294       0.20391356
C       -0.21474060      -0.95907882      -0.17357903
H       -0.54231105       0.69294610       1.17622032
H        0.46912693       2.06865835      -0.02306647
H       -1.68972262       0.60631407      -0.43092603
H       -0.36353923      -1.82248516       0.47288910
H       -0.41685794      -1.22232300      -1.21204485
10
Frame=1 idx=000958 GeodesicLength=0.04962957519995695 rxn_smarts="[O:1]=[C:2]1[C:3]([H:6])([H:7])[N:4]([H:8])[C:5]1([H:9])[H:10]>>[O-:1][C:2]1=[C:3]([H:7])[N+:4]([H:6])([H:8])[C:5]1([H:9])[H:10]"
O        2.25075582      -0.48274081      -0.24090069
C        1.10411033      -0.16147825      -0.06698929
C        0.40195248       1.03809311       0.29768054
N       -0.98906043       0.24228183       0.19570393
C       -0.21327213      -0.95914634      -0.18056791
H       -0.54562145       0.69899787       1.18584903
H        0.47248095       2.06674269      -0.02509810
H       -1.70222435       0.60339151      -0.41984021
H       -0.36340286      -1.81820198       0.47168423
H       -0.41571834      -1.22793963      -1.21752153
10
Frame=2 idx=000958 GeodesicLength=0.09924909354721866 rxn_smarts="[O:1]=[C:2]1[C:3]([H:6])([H:7])[N:4]([H:8])[C:5]1([H:9])[H:10]>>[O-:1][C:2]1=[C:3]([H:7])[N+:4]([H:6])([H:8])[C:5]1([H:9])[H:10]"
O        2.25347723      -0.48438947      -0.23404388
C        1.10586216      -0.16243245      -0.06881787
C        0.39997690       1.03650251       0.29598647
N       -0.98177617       0.24666399       0.18718298
C       -0.21177056      -0.95916870      -0.18765812
H       -0.54916679       0.70530920       1.19516864
H        0.47597624       2.06481701      -0.02711090
H       -1.71473881       0.60009362      -0.40798935
H       -0.36336807      -1.81381324       0.47034598
H       -0.41447212      -1.23358247      -1.22306395
10
Frame=3 idx=000958 GeodesicLength=0.14887168366376086 rxn_smarts="[O:1]=[C:2]1[C:3]([H:6])([H:7])[N:4]([H:8])[C:5]1([H:9])[H:10]>>[O-:1][C:2]1=[C:3]([H:7])[N+:4]([H:6])([H:8])[C:5]1([H:9])[H:10]"
O        2.25617618      -0.48609527      -0.22711909
C        1.10765484      -0.16339743      -0.07062810
C        0.39808629       1.03492663       0.29430438
N       -0.97452809       0.25112711       0.17830710
C       -0.21024103      -0.95914547      -0.19484311
H       -0.55298626       0.71187047       1.20417823
H        0.47963187       2.06289140      -0.02907025
H       -1.72722497       0.59640084      -0.39536704
H       -0.36345240      -1.80930738       0.46890507
H       -0.41311644      -1.23927091      -1.22866719
10
Frame=4 idx=000958 GeodesicLength=0.19856955117773117 rxn_smarts="[O:1]=[C:2]1[C:3]([H:6])([H:7])[N:4]([H:8])[C:5]1([H:9])[H:10]>>[O-:1][C:2]1=[C:3]([H:7])[N+:4]([H:6])([H:8])[C:5]1([H:9])[H:10]"
O        2.25895581      -0.48785200      -0.22019853
C        1.10953398      -0.16437685      -0.07242160
C        0.39628797       1.03336449       0.29264193
N       -0.96739320       0.25569191       0.16903539
C       -0.20869706      -0.95907957      -0.20211200
H       -0.55716319       0.71864620       1.21291967
H        0.48348243       2.06099435      -0.03096480
H       -1.73966427       0.59232038      -0.38198533
H       -0.36368343      -1.80469917       0.46743561
H       -0.41165904      -1.24500975      -1.23435034
10
Frame=5 idx=000958 GeodesicLength=0.2480526609482806 rxn_smarts="[O:1]=[C:2]1[C:3]([H:6])([H:7])[N:4]([H:8])[C:5]1([H:9])[H:10]>>[O-:1][C:2]1=[C:3]([H:7])[N+:4]([H:6])([H:8])[C:5]1([H:9])[H:10]"
O        2.26140843      -0.48967595      -0.21309515
C        1.11131569      -0.16536071      -0.07418685
C        0.39453722       1.03181874       0.29097879
N       -0.96008328       0.26036210       0.15933128
C       -0.20709683      -0.95895237      -0.20950199
H       -0.56144730       0.72575924       1.22116693
H        0.48742236       2.05904279      -0.03271068
H       -1.75199003       0.58772174      -0.36767874
H       -0.36401015      -1.79987496       0.46570821
H       -0.41005612      -1.25084061      -1.24001179
10
Frame=6 idx=000958 GeodesicLength=0.29759335180782265 rxn_smarts="[O:1]=[C:2]1[C:3]([H:6])([H:7])[N:4]([H:8])[C:5]1([H:9])[H:10]>>[O-:1][C:2]1=[C:3]([H:7])[N+:4]([H:6])([H:8])[C:5]1([H:9])[H:10]"
O        2.26393491      -0.49150035      -0.20620322
C        1.11317689      -0.16636704      -0.07589957
C        0.39285894       1.03027495       0.28937932
N       -0.95292649       0.26515046       0.14919676
C       -0.20549555      -0.95879144      -0.21693118
H       -0.56616727       0.73305644       1.22917995
H        0.49157025       2.05712735      -0.03429284
H       -1.76409278       0.58276101      -0.35276046
H       -0.36450108      -1.79493545       0.46403349
H       -0.40835783      -1.25677593      -1.24570227
10
Frame=7 idx=000958 GeodesicLength=0.34718780524724147 rxn_smarts="[O:1]=[C:2]1[C:3]([H:6])([H:7])[N:4]([H:8])[C:5]1([H:9])[H:10]>>[O-:1][C:2]1=[C:3]([H:7])[N+:4]([H:6])([H:8])[C:5]1([H:9])[H:10]"
O        2.26646041      -0.49341986      -0.19914501
C        1.11508175      -0.16737640      -0.07763112
C        0.39124970       1.02875856       0.28774321
N       -0.94582538       0.27009664       0.13852960
C       -0.20388019      -0.95856140      -0.22450172
H       -0.57121640       0.74060682       1.23682389
H        0.49589938       2.05523478      -0.03580074
H       -1.77605864       0.57725558      -0.33676850
H       -0.36517203      -1.78980942       0.46224574
H       -0.40653860      -1.26278529      -1.25149534
10
Frame=8 idx=000958 GeodesicLength=0.39664244530111475 rxn_smarts="[O:1]=[C:2]1[C:3]([H:6])([H:7])[N:4]([H:8])[C:5]1([H:9])[H:10]>>[O-:1][C:2]1=[C:3]([H:7])[N+:4]([H:6])([H:8])[C:5]1([H:9])[H:10]"
O        2.26885419      -0.49537485      -0.19202210
C        1.11696654      -0.16837264      -0.07935081
C        0.38969424       1.02727484       0.28608719
N       -0.93873324       0.27521390       0.12731821
C       -0.20226123      -0.95825883      -0.23217180
H       -0.57656334       0.74836196       1.24404867
H        0.50044464       2.05338895      -0.03715497
H       -1.78774947       0.57114195      -0.31981306
H       -0.36604896      -1.78450679       0.46034868
H       -0.40460336      -1.26886848      -1.25729002
10
Frame=9 idx=000958 GeodesicLength=0.44612529056300854 rxn_smarts="[O:1]=[C:2]1[C:3]([H:6])([H:7])[N:4]([H:8])[C:5]1([H:9])[H:10]>>[O-:1][C:2]1=[C:3]([H:7])[N+:4]([H:6])([H:8])[C:5]1([H:9])[H:10]"
O        2.27115003      -0.49738890      -0.18488978
C        1.11883937      -0.16937580      -0.08108227
C        0.38816005       1.02579835       0.28443235
N       -0.93169207       0.28050341       0.11554608
C       -0.20062917      -0.95788731      -0.23994983
H       -0.58226834       0.75636627       1.25091094
H        0.50514813       2.05153820      -0.03831523
H       -1.79907401       0.56450198      -0.30190933
H       -0.36709403      -1.77895980       0.45837947
H       -0.40253995      -1.27509639      -1.26312239
10
Frame=10 idx=000958 GeodesicLength=0.49560676934358494 rxn_smarts="[O:1]=[C:2]1[C:3]([H:6])([H:7])[N:4]([H:8])[C:5]1([H:9])[H:10]>>[O-:1][C:2]1=[C:3]([H:7])[N+:4]([H:6])([H:8])[C:5]1([H:9])[H:10]"
O        2.27340937      -0.49946489      -0.17765024
C        1.12072683      -0.17036083      -0.08285261
C        0.38666087       1.02435983       0.28273078
N       -0.92473861       0.28601348       0.10312281
C       -0.19901833      -0.95743207      -0.24785508
H       -0.58834642       0.76456421       1.25737553
H        0.51007273       2.04975158      -0.03930263
H       -1.81000244       0.55719724      -0.28290033
H       -0.36837801      -1.77318900       0.45634130
H       -0.40038599      -1.28143956      -1.26900953
10
Frame=11 idx=000958 GeodesicLength=0.5450345579450349 rxn_smarts="[O:1]=[C:2]1[C:3]([H:6])([H:7])[N:4]([H:8])[C:5]1([H:9])[H:10]>>[O-:1][C:2]1=[C:3]([H:7])[N+:4]([H:6])([H:8])[C:5]1([H:9])[H:10]"
O        2.27551525      -0.50160192      -0.17028778
C        1.12256641      -0.17131924      -0.08468038
C        0.38515699       1.02295715       0.28097255
N       -0.91783603       0.29174976       0.09004025
C       -0.19742731      -0.95688683      -0.25588822
H       -0.59475697       0.77295816       1.26341283
H        0.51517993       2.04801686      -0.04007872
H       -1.82037717       0.54920865      -0.26277792
H       -0.36988944      -1.76715874       0.45419841
H       -0.39813166      -1.28792384      -1.27491101
10
Frame=12 idx=000958 GeodesicLength=0.5944639265023689 rxn_smarts="[O:1]=[C:2]1[C:3]([H:6])([H:7])[N:4]([H:8])[C:5]1([H:9])[H:10]>>[O-:1][C:2]1=[C:3]([H:7])[N+:4]([H:6])([H:8])[C:5]1([H:9])[H:10]"
O        2.27753420      -0.50379929      -0.16277966
C        1.12438199      -0.17223992      -0.08659372
C        0.38363384       1.02159589       0.27913427
N       -0.91105482       0.29772585       0.07626757
C       -0.19588249      -0.95624717      -0.26405623
H       -0.60153033       0.78151617       1.26906301
H        0.52047326       2.04635610      -0.04064997
H       -1.83008798       0.54051469      -0.24151840
H       -0.37165615      -1.76086991       0.45198572
H       -0.39581153      -1.29455240      -1.28085260
10
Frame=13 idx=000958 GeodesicLength=0.6438812954614707 rxn_smarts="[O:1]=[C:2]1[C:3]([H:6])([H:7])[N:4]([H:8])[C:5]1([H:9])[H:10]>>[O-:1][C:2]1=[C:3]([H:7])[N+:4]([H:6])([H:8])[C:5]1([H:9])[H:10]"
O        2.27934418      -0.50603511      -0.15519203
C        1.12610366      -0.17311733      -0.08861939
C        0.38203188       1.02025690       0.27722582
N       -0.90437487       0.30393520       0.06182460
C       -0.19438584      -0.95551406      -0.27233531
H       -0.60863749       0.79023177       1.27433371
H        0.52587622       2.04473625      -0.04092999
H       -1.83887681       0.53116011      -0.21924570
H       -0.37364651      -1.75427803       0.44970369
H       -0.39343443      -1.30137570      -1.28676541
10
Frame=14 idx=000958 GeodesicLength=0.6933085020597355 rxn_smarts="[O:1]=[C:2]1[C:3]([H:6])([H:7])[N:4]([H:8])[C:5]1([H:9])[H:10]>>[O-:1][C:2]1=[C:3]([H:7])[N+:4]([H:6])([H:8])[C:5]1([H:9])[H:10]"
O        2.28103147      -0.50829794      -0.14750470
C        1.12776263      -0.17393549      -0.09077378
C        0.38033561       1.01895153       0.27521720
N       -0.89788755       0.31037655       0.04673188
C       -0.19297471      -0.95468591      -0.28071671
H       -0.61608209       0.79904165       1.27930665
H        0.53139009       2.04319869      -0.04096090
H       -1.84661976       0.52113570      -0.19602945
H       -0.37589543      -1.74743035       0.44739408
H       -0.39106026      -1.30835442      -1.29266426
10
Frame=15 idx=000958 GeodesicLength=0.7426993631673855 rxn_smarts="[O:1]=[C:2]1[C:3]([H:6])([H:7])[N:4]([H:8])[C:5]1([H:9])[H:10]>>[O-:1][C:2]1=[C:3]([H:7])[N+:4]([H:6])([H:8])[C:5]1([H:9])[H:10]"
O        2.28245502      -0.51051688      -0.13986203
C        1.12927159      -0.17468149      -0.09307849
C        0.37847092       1.01765346       0.27315314
N       -0.89158039       0.31697757       0.03112498
C       -0.19166006      -0.95379553      -0.28914311
H       -0.62378064       0.80793158       1.28406429
H        0.53688444       2.04170494      -0.04063449
H       -1.85298600       0.51062394      -0.17225638
H       -0.37832721      -1.74033330       0.44506981
H       -0.38874766      -1.31556429      -1.29843770
10
Frame=16 idx=000958 GeodesicLength=0.7920759859870473 rxn_smarts="[O:1]=[C:2]1[C:3]([H:6])([H:7])[N:4]([H:8])[C:5]1([H:9])[H:10]>>[O-:1][C:2]1=[C:3]([H:7])[N+:4]([H:6])([H:8])[C:5]1([H:9])[H:10]"
O        2.28361245      -0.51267565      -0.13224100
C        1.13061819      -0.17534864      -0.09553245
C        0.37640049       1.01635959       0.27100962
N       -0.88549911       0.32369529       0.01510156
C       -0.19046016      -0.95285202      -0.29760421
H       -0.63167964       0.81688287       1.28870290
H        0.54229584       2.04025118      -0.04000672
H       -1.85782176       0.49969293      -0.14807013
H       -0.38093060      -1.73303977       0.44271886
H       -0.38653570      -1.32296578      -1.30407844
