12
Frame=0 idx=008320 GeodesicLength=0.0 rxn_smarts="[C:1]([c:2]1[c:3]([O:4][H:11])[n:5][c:6]([H:12])[o:7]1)([H:8])([H:9])[H:10]>>[C:1]([c:2]1[c:3]([O:4][H:11])[n:5]([H:12])[c-:6][o+:7]1)([H:8])([H:9])[H:10]"
C       -1.71878468      -0.57043094       0.15320922
C       -0.26391698      -0.36407361      -0.00168111
C        0.51662113       0.72722008      -0.06151686
O        0.17106601       2.01681729       0.10402708
N        1.80588293       0.32907595      -0.37021367
C        1.80875153      -1.04035865      -0.42728268
O        0.54931635      -1.45296295      -0.15510835
H       -2.13084145      -1.07598748      -0.72210012
H       -1.93642125      -1.18314148       1.02967844
H       -2.21438856       0.39273278       0.26467826
H        0.89026040       2.56571657      -0.21928051
H        2.52245461      -0.34460760       0.40559033
12
Frame=1 idx=008320 GeodesicLength=0.04632870513384333 rxn_smarts="[C:1]([c:2]1[c:3]([O:4][H:11])[n:5][c:6]([H:12])[o:7]1)([H:8])([H:9])[H:10]>>[C:1]([c:2]1[c:3]([O:4][H:11])[n:5]([H:12])[c-:6][o+:7]1)([H:8])([H:9])[H:10]"
C       -1.72552273      -0.57208180       0.15037991
C       -0.26870994      -0.36400778       0.01433040
C        0.51199492       0.72641156      -0.06156653
O        0.15830732       2.01774796       0.06456877
N        1.79564987       0.32321176      -0.38137775
C        1.80055425      -1.04346115      -0.41359853
O        0.54653363      -1.45462180      -0.12282965
H       -2.12598816      -1.08494559      -0.72607721
H       -1.95405347      -1.17754229       1.02914796
H       -2.22453575       0.39093692       0.24782738
H        0.91179034       2.56959628      -0.15922924
H        2.57397971      -0.33124408       0.35842450
12
Frame=2 idx=008320 GeodesicLength=0.09180420027760874 rxn_smarts="[C:1]([c:2]1[c:3]([O:4][H:11])[n:5][c:6]([H:12])[o:7]1)([H:8])([H:9])[H:10]>>[C:1]([c:2]1[c:3]([O:4][H:11])[n:5]([H:12])[c-:6][o+:7]1)([H:8])([H:9])[H:10]"
C       -1.73131185      -0.57272972       0.14861258
C       -0.27314378      -0.36342552       0.02659368
C        0.50855498       0.72558801      -0.06094399
O        0.14741336       2.01844735       0.01416127
N        1.78819737       0.31716023      -0.38498612
C        1.79433672      -1.04629816      -0.39664526
O        0.54312872      -1.45571246      -0.09885157
H       -2.12355236      -1.09013504      -0.72891546
H       -1.96818580      -1.17322973       1.02860960
H       -2.23260233       0.39013135       0.23646233
H        0.92372592       2.57222765      -0.09744574
H        2.62343906      -0.32202396       0.31334868
12
Frame=3 idx=008320 GeodesicLength=0.13723679033920308 rxn_smarts="[C:1]([c:2]1[c:3]([O:4][H:11])[n:5][c:6]([H:12])[o:7]1)([H:8])([H:9])[H:10]>>[C:1]([c:2]1[c:3]([O:4][H:11])[n:5]([H:12])[c-:6][o+:7]1)([H:8])([H:9])[H:10]"
C       -1.73653443      -0.57217504       0.14689373
C       -0.27715685      -0.36236510       0.03775051
C        0.50616152       0.72479267      -0.05906938
O        0.14080793       2.01833046      -0.03825075
N        1.78287067       0.31094380      -0.38287656
C        1.78914974      -1.04904147      -0.37729320
O        0.53951351      -1.45649046      -0.07747601
H       -2.12149365      -1.09350377      -0.73156413
H       -1.98134734      -1.16825988       1.02776178
H       -2.23925021       0.39079708       0.22607384
H        0.92388594       2.57352132      -0.03687428
H        2.67339316      -0.31654961       0.26492444
12
Frame=4 idx=008320 GeodesicLength=0.18325364016929602 rxn_smarts="[C:1]([c:2]1[c:3]([O:4][H:11])[n:5][c:6]([H:12])[o:7]1)([H:8])([H:9])[H:10]>>[C:1]([c:2]1[c:3]([O:4][H:11])[n:5]([H:12])[c-:6][o+:7]1)([H:8])([H:9])[H:10]"
C       -1.74119103      -0.57031731       0.14519797
C       -0.28060441      -0.36136000       0.04799142
C        0.50507228       0.72354151      -0.05532481
O        0.13841353       2.01637576      -0.08994969
N        1.77970374       0.30410470      -0.37516587
C        1.78569783      -1.05223161      -0.35287193
O        0.53550828      -1.45761803      -0.05987700
H       -2.12035320      -1.09242123      -0.73533437
H       -1.99382437      -1.16427178       1.02533260
H       -2.24401232       0.39311938       0.21916081
H        0.91155340       2.57477757       0.01805876
H        2.72403628      -0.31369895       0.21278211
12
Frame=5 idx=008320 GeodesicLength=0.2296292371592366 rxn_smarts="[C:1]([c:2]1[c:3]([O:4][H:11])[n:5][c:6]([H:12])[o:7]1)([H:8])([H:9])[H:10]>>[C:1]([c:2]1[c:3]([O:4][H:11])[n:5]([H:12])[c-:6][o+:7]1)([H:8])([H:9])[H:10]"
C       -1.74551510      -0.56760245       0.14353964
C       -0.28407386      -0.36011688       0.05335688
C        0.50393948       0.72240608      -0.05621978
O        0.14004751       2.01390199      -0.13811767
N        1.77937561       0.29748975      -0.35986997
C        1.78403673      -1.05507737      -0.32338103
O        0.53100538      -1.45868060      -0.04797077
H       -2.12166096      -1.09172186      -0.73711271
H       -2.00347148      -1.15823999       1.02440783
H       -2.24779835       0.39660034       0.21242375
H        0.89002381       2.57517439       0.07074068
H        2.77409122      -0.31413340       0.15820317
12
Frame=6 idx=008320 GeodesicLength=0.2762138894205669 rxn_smarts="[C:1]([c:2]1[c:3]([O:4][H:11])[n:5][c:6]([H:12])[o:7]1)([H:8])([H:9])[H:10]>>[C:1]([c:2]1[c:3]([O:4][H:11])[n:5]([H:12])[c-:6][o+:7]1)([H:8])([H:9])[H:10]"
C       -1.74983849      -0.56424443       0.14057230
C       -0.28733126      -0.35888760       0.06034166
C        0.50364053       0.72102031      -0.05303609
O        0.14470566       2.01039969      -0.17862144
N        1.77984587       0.29059044      -0.33967926
C        1.78329665      -1.05797793      -0.28610290
O        0.52661424      -1.45988885      -0.03344177
H       -2.12149200      -1.08998066      -0.74104946
H       -2.01510839      -1.15161250       1.02149761
H       -2.25120183       0.40095518       0.20357503
H        0.86149711       2.57588051       0.11710783
H        2.82537192      -0.31625416       0.08883648
12
Frame=7 idx=008320 GeodesicLength=0.3217258062887726 rxn_smarts="[C:1]([c:2]1[c:3]([O:4][H:11])[n:5][c:6]([H:12])[o:7]1)([H:8])([H:9])[H:10]>>[C:1]([c:2]1[c:3]([O:4][H:11])[n:5]([H:12])[c-:6][o+:7]1)([H:8])([H:9])[H:10]"
C       -1.75388671      -0.56054896       0.13692302
C       -0.29052898      -0.35747668       0.06421344
C        0.50347247       0.71988038      -0.05111615
O        0.15187906       2.00702202      -0.21446346
N        1.78278005       0.28447059      -0.30912612
C        1.78426900      -1.05993135      -0.23942378
O        0.52221208      -1.46086080      -0.02239274
H       -2.12226481      -1.08912358      -0.74440189
H       -2.02524481      -1.14357633       1.01892606
H       -2.25414895       0.40574015       0.19339818
H        0.82758655       2.57639600       0.15997328
H        2.87387505      -0.32199143       0.00749018
12
Frame=8 idx=008320 GeodesicLength=0.36459654537980773 rxn_smarts="[C:1]([c:2]1[c:3]([O:4][H:11])[n:5][c:6]([H:12])[o:7]1)([H:8])([H:9])[H:10]>>[C:1]([c:2]1[c:3]([O:4][H:11])[n:5]([H:12])[c-:6][o+:7]1)([H:8])([H:9])[H:10]"
C       -1.75661335      -0.55612353       0.13489812
C       -0.29274354      -0.35655656       0.06149578
C        0.50435716       0.71866914      -0.05101238
O        0.16201811       2.00215124      -0.25657654
N        1.79032526       0.27969251      -0.25900339
C        1.78788313      -1.06077154      -0.18087393
O        0.51767283      -1.46216274      -0.03030019
H       -2.12803822      -1.08092526      -0.74742418
H       -2.02906465      -1.14055121       1.01568254
H       -2.25414330       0.41149482       0.19478568
H        0.78379953       2.57817242       0.19343219
H        2.91454704      -0.33308930      -0.07510370
12
Frame=9 idx=008320 GeodesicLength=0.4025884084030385 rxn_smarts="[C:1]([c:2]1[c:3]([O:4][H:11])[n:5][c:6]([H:12])[o:7]1)([H:8])([H:9])[H:10]>>[C:1]([c:2]1[c:3]([O:4][H:11])[n:5]([H:12])[c-:6][o+:7]1)([H:8])([H:9])[H:10]"
C       -1.75750154      -0.55145571       0.13313095
C       -0.29336534      -0.35562545       0.05520389
C        0.50700090       0.71768918      -0.05169086
O        0.17664987       1.99659209      -0.30017476
N        1.80071745       0.27633508      -0.18854244
C        1.79189065      -1.06087447      -0.11465449
O        0.51552760      -1.46250661      -0.04746504
H       -2.13455279      -1.06995918      -0.75056887
H       -2.02849366      -1.13986952       1.01175604
H       -2.25151831       0.41761853       0.20061172
H        0.73320936       2.58058887       0.21958276
H        2.94043582      -0.34853279      -0.16718889
12
Frame=10 idx=008320 GeodesicLength=0.4371542907961494 rxn_smarts="[C:1]([c:2]1[c:3]([O:4][H:11])[n:5][c:6]([H:12])[o:7]1)([H:8])([H:9])[H:10]>>[C:1]([c:2]1[c:3]([O:4][H:11])[n:5]([H:12])[c-:6][o+:7]1)([H:8])([H:9])[H:10]"
C       -1.75634699      -0.54750788       0.12804846
C       -0.29180580      -0.35375112       0.05363418
C        0.51214125       0.71718860      -0.05013229
O        0.19465928       1.99293221      -0.32891249
N        1.81019768       0.27341801      -0.12209348
C        1.79555923      -1.06017644      -0.05045232
O        0.51783817      -1.46158802      -0.04541654
H       -2.13217888      -1.06791289      -0.75508830
H       -2.03068792      -1.13319950       1.00750930
H       -2.24873838       0.42277532       0.19168929
H        0.68722330       2.58106812       0.24771077
H        2.94213905      -0.36324642      -0.27649656
12
Frame=11 idx=008320 GeodesicLength=0.47572065187508683 rxn_smarts="[C:1]([c:2]1[c:3]([O:4][H:11])[n:5][c:6]([H:12])[o:7]1)([H:8])([H:9])[H:10]>>[C:1]([c:2]1[c:3]([O:4][H:11])[n:5]([H:12])[c-:6][o+:7]1)([H:8])([H:9])[H:10]"
C       -1.75249504      -0.54248602       0.12453156
C       -0.28760813      -0.35267170       0.04959256
C        0.52067948       0.71545105      -0.04997563
O        0.21841805       1.98751893      -0.35922285
N        1.81992343       0.26937048      -0.06008644
C        1.79953096      -1.06084680       0.00190490
O        0.52264410      -1.46137758      -0.04815239
H       -2.13024453      -1.06221834      -0.75817741
H       -2.02847205      -1.12678178       1.00445439
H       -2.24160956       0.42958072       0.18793422
H        0.63251424       2.57955101       0.27234248
H        2.92671904      -0.37508998      -0.36514539
12
Frame=12 idx=008320 GeodesicLength=0.5170165383223096 rxn_smarts="[C:1]([c:2]1[c:3]([O:4][H:11])[n:5][c:6]([H:12])[o:7]1)([H:8])([H:9])[H:10]>>[C:1]([c:2]1[c:3]([O:4][H:11])[n:5]([H:12])[c-:6][o+:7]1)([H:8])([H:9])[H:10]"
C       -1.74750958      -0.53703276       0.12124264
C       -0.28242256      -0.35103935       0.04333261
C        0.53045882       0.71369712      -0.05574625
O        0.24283585       1.98497926      -0.38060899
N        1.82875932       0.26498745      -0.01941842
C        1.80307189      -1.06117827       0.04608274
O        0.52850457      -1.46104450      -0.04794873
H       -2.12779335      -1.06031036      -0.75829692
H       -2.02407524      -1.11616564       1.00443962
H       -2.23371352       0.43686186       0.18059216
H        0.57577171       2.57372184       0.30011560
H        2.90611209      -0.38747664      -0.43378605
12
Frame=13 idx=008320 GeodesicLength=0.5598718595110894 rxn_smarts="[C:1]([c:2]1[c:3]([O:4][H:11])[n:5][c:6]([H:12])[o:7]1)([H:8])([H:9])[H:10]>>[C:1]([c:2]1[c:3]([O:4][H:11])[n:5]([H:12])[c-:6][o+:7]1)([H:8])([H:9])[H:10]"
C       -1.74185877      -0.53107007       0.11820925
C       -0.27641278      -0.34927426       0.03903680
C        0.54124021       0.71187565      -0.06023110
O        0.26801425       1.98312556      -0.39665212
N        1.83759992       0.26025219       0.01148087
C        1.80668863      -1.06174376       0.08173876
O        0.53472903      -1.46093802      -0.04464149
H       -2.12386869      -1.05792763      -0.75846360
H       -2.02020460      -1.10468161       1.00449569
H       -2.22510775       0.44469419       0.17274627
H        0.51559840       2.56574563       0.32455993
H        2.88358216      -0.40005786      -0.49227926
12
Frame=14 idx=008320 GeodesicLength=0.6035365357930328 rxn_smarts="[C:1]([c:2]1[c:3]([O:4][H:11])[n:5][c:6]([H:12])[o:7]1)([H:8])([H:9])[H:10]>>[C:1]([c:2]1[c:3]([O:4][H:11])[n:5]([H:12])[c-:6][o+:7]1)([H:8])([H:9])[H:10]"
C       -1.73584341      -0.52483517       0.11567996
C       -0.26996398      -0.34737656       0.03616069
C        0.55252900       0.71024480      -0.06211041
O        0.29345334       1.98157804      -0.40862330
N        1.84654168       0.25527125       0.03636404
C        1.81020526      -1.06246468       0.11217731
O        0.54101018      -1.46079608      -0.04163070
H       -2.11943876      -1.05340189      -0.75929265
H       -2.01641334      -1.09454894       1.00382670
H       -2.21600493       0.45273613       0.16718372
H        0.45319779       2.55670094       0.34278250
H        2.86072716      -0.41310785      -0.54251785
12
Frame=15 idx=008320 GeodesicLength=0.6478756615042113 rxn_smarts="[C:1]([c:2]1[c:3]([O:4][H:11])[n:5][c:6]([H:12])[o:7]1)([H:8])([H:9])[H:10]>>[C:1]([c:2]1[c:3]([O:4][H:11])[n:5]([H:12])[c-:6][o+:7]1)([H:8])([H:9])[H:10]"
C       -1.72960254      -0.51830351       0.11378212
C       -0.26327602      -0.34543585       0.03369063
C        0.56418333       0.70867078      -0.06230203
O        0.31937260       1.98033706      -0.41744614
N        1.85553373       0.24988308       0.05886671
C        1.81352474      -1.06366250       0.13833042
O        0.54718348      -1.46068225      -0.04034518
H       -2.11529130      -1.04661672      -0.76044563
H       -2.01221957      -1.08585666       1.00271146
H       -2.20638198       0.46108229       0.16451020
H        0.38877101       2.54625460       0.35446622
H        2.83820253      -0.42567032      -0.58581878
12
Frame=16 idx=008320 GeodesicLength=0.6928427234963979 rxn_smarts="[C:1]([c:2]1[c:3]([O:4][H:11])[n:5][c:6]([H:12])[o:7]1)([H:8])([H:9])[H:10]>>[C:1]([c:2]1[c:3]([O:4][H:11])[n:5]([H:12])[c-:6][o+:7]1)([H:8])([H:9])[H:10]"
C       -1.72321177      -0.51151421       0.11239455
C       -0.25643254      -0.34344243       0.03158133
C        0.57608674       0.70714052      -0.06125168
O        0.34564817       1.97952281      -0.42301537
N        1.86452179       0.24413293       0.08006340
C        1.81668798      -1.06530808       0.16125807
O        0.55324873      -1.46057919      -0.04034310
H       -2.11137938      -1.03781175      -0.76197329
H       -2.00776223      -1.07848718       1.00112400
H       -2.19635746       0.46968629       0.16439120
H        0.32300455       2.53406934       0.35986320
H        2.81594543      -0.43740905      -0.62409232
