11
Frame=0 idx=005882 GeodesicLength=0.0 rxn_smarts="[C:1]([n:2]1[c:3]([H:10])[c:4]([H:11])[n:5][n:6]1)([H:7])([H:8])[H:9]>>[C:1]([N:2]([C+:3]=[C:4]([N:5]=[N-:6])[H:11])[H:10])([H:7])([H:8])[H:9]"
C       -1.62792999      -0.02409852       0.13832798
N       -0.19395173      -0.01896370      -0.13807774
C        0.78262463       0.88524726       0.47961829
C        1.90706756       0.13449869       0.18763570
N        1.62714794      -1.07351799      -0.38265673
N        0.37830433      -1.18800991      -0.59084199
H       -2.14374562      -0.50037180      -0.69229185
H       -1.80264670      -0.58043832       1.05618345
H       -1.95503999       1.00440317       0.26768073
H        0.09563901       0.96269138      -0.71624203
H        2.93253052       0.39855973       0.39066415
11
Frame=1 idx=005882 GeodesicLength=0.09890928710344941 rxn_smarts="[C:1]([n:2]1[c:3]([H:10])[c:4]([H:11])[n:5][n:6]1)([H:7])([H:8])[H:9]>>[C:1]([N:2]([C+:3]=[C:4]([N:5]=[N-:6])[H:11])[H:10])([H:7])([H:8])[H:9]"
C       -1.62981988      -0.02154951       0.14321496
N       -0.19779475      -0.01622423      -0.14107867
C        0.77680680       0.87098182       0.48303596
C        1.90866113       0.12888897       0.19301819
N        1.63574542      -1.06652972      -0.40328753
N        0.39471164      -1.19345386      -0.62503359
H       -2.15017812      -0.52484887      -0.66850254
H       -1.79628368      -0.55159567       1.07808347
H       -1.96903299       1.00662166       0.24235557
H        0.09627460       0.97888932      -0.71741373
H        2.93090983       0.38882008       0.41560792
11
Frame=2 idx=005882 GeodesicLength=0.1977965902491456 rxn_smarts="[C:1]([n:2]1[c:3]([H:10])[c:4]([H:11])[n:5][n:6]1)([H:7])([H:8])[H:9]>>[C:1]([N:2]([C+:3]=[C:4]([N:5]=[N-:6])[H:11])[H:10])([H:7])([H:8])[H:9]"
C       -1.63183476      -0.01899483       0.14815782
N       -0.20179156      -0.01340626      -0.14385050
C        0.77109167       0.85663109       0.48621836
C        1.91015986       0.12299163       0.19839718
N        1.64447493      -1.05907288      -0.42408855
N        0.41166892      -1.19834204      -0.66002488
H       -2.15585741      -0.54995867      -0.64339132
H       -1.79026866      -0.52130476       1.09964686
H       -1.98347353       1.00775169       0.21625371
H        0.09689094       0.99558656      -0.71789823
H        2.92893960       0.37811846       0.44057954
11
Frame=3 idx=005882 GeodesicLength=0.2966871036253128 rxn_smarts="[C:1]([n:2]1[c:3]([H:10])[c:4]([H:11])[n:5][n:6]1)([H:7])([H:8])[H:9]>>[C:1]([N:2]([C+:3]=[C:4]([N:5]=[N-:6])[H:11])[H:10])([H:7])([H:8])[H:9]"
C       -1.63400516      -0.01642673       0.15313409
N       -0.20595039      -0.01053764      -0.14631543
C        0.76547222       0.84211505       0.48929886
C        1.91154316       0.11668440       0.20394735
N        1.65331143      -1.05121690      -0.44487501
N        0.42920378      -1.20265773      -0.69581842
H       -2.16072134      -0.57557677      -0.61703547
H       -1.78473978      -0.48956794       1.12075589
H       -1.99834889       1.00774860       0.18936041
H        0.09754603       1.01276452      -0.71755510
H        2.92668894       0.36667113       0.46510282
11
Frame=4 idx=005882 GeodesicLength=0.3956305651393187 rxn_smarts="[C:1]([n:2]1[c:3]([H:10])[c:4]([H:11])[n:5][n:6]1)([H:7])([H:8])[H:9]>>[C:1]([N:2]([C+:3]=[C:4]([N:5]=[N-:6])[H:11])[H:10])([H:7])([H:8])[H:9]"
C       -1.63633597      -0.01385389       0.15817794
N       -0.21028375      -0.00759357      -0.14848530
C        0.75995710       0.82748744       0.49218693
C        1.91280834       0.11000483       0.20952695
N        1.66226714      -1.04283997      -0.46576026
N        0.44736905      -1.20630839      -0.73252483
H       -2.16469510      -0.60180304      -0.58919933
H       -1.77968330      -0.45620869       1.14142235
H       -2.01370046       1.00647539       0.16157565
H        0.09818367       1.03045322      -0.71640775
H        2.92411327       0.35418666       0.48948766
11
Frame=5 idx=005882 GeodesicLength=0.49457976582551055 rxn_smarts="[C:1]([n:2]1[c:3]([H:10])[c:4]([H:11])[n:5][n:6]1)([H:7])([H:8])[H:9]>>[C:1]([N:2]([C+:3]=[C:4]([N:5]=[N-:6])[H:11])[H:10])([H:7])([H:8])[H:9]"
C       -1.63887669      -0.01124948       0.16322321
N       -0.21480070      -0.00464538      -0.15026189
C        0.75452255       0.81255195       0.49511328
C        1.91392233       0.10270932       0.21545600
N        1.67129273      -1.03421576      -0.48642204
N        0.46618618      -1.20928418      -0.77010889
H       -2.16776114      -0.62837108      -0.56009407
H       -1.77532517      -0.42133577       1.16144666
H       -2.02945648       1.00396255       0.13296670
H        0.09893858       1.04859191      -0.71422518
H        2.92135781       0.34128592       0.51290622
11
Frame=6 idx=005882 GeodesicLength=0.5935727645672216 rxn_smarts="[C:1]([n:2]1[c:3]([H:10])[c:4]([H:11])[n:5][n:6]1)([H:7])([H:8])[H:9]>>[C:1]([N:2]([C+:3]=[C:4]([N:5]=[N-:6])[H:11])[H:10])([H:7])([H:8])[H:9]"
C       -1.64161655      -0.00864499       0.16833737
N       -0.21951330      -0.00165079      -0.15169434
C        0.74918448       0.79742088       0.49789982
C        1.91488686       0.09489760       0.22146029
N        1.68042792      -1.02505093      -0.50714637
N        0.48571790      -1.21145942      -0.80870160
H       -2.16982083      -0.65545473      -0.52929641
H       -1.77159019      -0.38462496       1.18087079
H       -2.04570379       0.99994867       0.10333942
H        0.09969969       1.06724133      -0.71107708
H        2.91832783       0.32737733       0.53600812
11
Frame=7 idx=005882 GeodesicLength=0.6926100620361251 rxn_smarts="[C:1]([n:2]1[c:3]([H:10])[c:4]([H:11])[n:5][n:6]1)([H:7])([H:8])[H:9]>>[C:1]([N:2]([C+:3]=[C:4]([N:5]=[N-:6])[H:11])[H:10])([H:7])([H:8])[H:9]"
C       -1.64458485      -0.00601754       0.17349576
N       -0.22443241       0.00135506      -0.15274337
C        0.74393547       0.78201796       0.50060380
C        1.91568795       0.08646802       0.22763681
N        1.68964063      -1.01550755      -0.52775403
N        0.50600749      -1.21281038      -0.84829998
H       -2.17085354      -0.68283668      -0.49686376
H       -1.76861147      -0.34611828       1.19954198
H       -2.06241495       0.99435630       0.07278392
H        0.10052954       1.08635388      -0.70685895
H        2.91509616       0.31273920       0.55845783
11
Frame=8 idx=005882 GeodesicLength=0.7916247925341815 rxn_smarts="[C:1]([n:2]1[c:3]([H:10])[c:4]([H:11])[n:5][n:6]1)([H:7])([H:8])[H:9]>>[C:1]([N:2]([C+:3]=[C:4]([N:5]=[N-:6])[H:11])[H:10])([H:7])([H:8])[H:9]"
C       -1.64778150      -0.00339680       0.17873748
N       -0.22956497       0.00437944      -0.15341767
C        0.73878274       0.76635062       0.50317942
C        1.91631427       0.07739593       0.23386424
N        1.69896683      -1.00540590      -0.54842969
N        0.52711847      -1.21317934      -0.88900380
H       -2.17075564      -0.71056548      -0.46242409
H       -1.76645115      -0.30546645       1.21735112
H       -2.07963511       0.98686568       0.04112913
H        0.10138274       1.10596360      -0.70150162
H        2.91162333       0.29705869       0.58051547
11
Frame=9 idx=005882 GeodesicLength=0.890423410582968 rxn_smarts="[C:1]([n:2]1[c:3]([H:10])[c:4]([H:11])[n:5][n:6]1)([H:7])([H:8])[H:9]>>[C:1]([N:2]([C+:3]=[C:4]([N:5]=[N-:6])[H:11])[H:10])([H:7])([H:8])[H:9]"
C       -1.65124384      -0.00072699       0.18399871
N       -0.23491363       0.00731215      -0.15368079
C        0.73366816       0.75025801       0.50584357
C        1.91673535       0.06755045       0.24036837
N        1.70831680      -0.99537955      -0.56865068
N        0.54910881      -1.21259499      -0.93064513
H       -2.16973997      -0.73814988      -0.42648359
H       -1.76522231      -0.26315742       1.23404094
H       -2.09715839       0.97771906       0.00873812
H        0.10240282       1.12590991      -0.69482573
H        2.90804621       0.28125925       0.60129621
11
Frame=10 idx=005882 GeodesicLength=0.9891245264314036 rxn_smarts="[C:1]([n:2]1[c:3]([H:10])[c:4]([H:11])[n:5][n:6]1)([H:7])([H:8])[H:9]>>[C:1]([N:2]([C+:3]=[C:4]([N:5]=[N-:6])[H:11])[H:10])([H:7])([H:8])[H:9]"
C       -1.65496817       0.00193415       0.18934107
N       -0.24050225       0.01023270      -0.15357636
C        0.72862763       0.73384001       0.50836481
C        1.91693720       0.05694990       0.24688390
N        1.71777264      -0.98476171      -0.58896838
N        0.57202906      -1.21087840      -0.97339451
H       -2.16752662      -0.76580830      -0.38821704
H       -1.76490786      -0.21850045       1.24951986
H       -2.11515350       0.96628363      -0.02474399
H        0.10346037       1.14633225      -0.68687478
H        2.90423150       0.26437620       0.62166541
11
Frame=11 idx=005882 GeodesicLength=1.087763381917842 rxn_smarts="[C:1]([n:2]1[c:3]([H:10])[c:4]([H:11])[n:5][n:6]1)([H:7])([H:8])[H:9]>>[C:1]([N:2]([C+:3]=[C:4]([N:5]=[N-:6])[H:11])[H:10])([H:7])([H:8])[H:9]"
C       -1.65898481       0.00461634       0.19474590
N       -0.24635562       0.01310516      -0.15311602
C        0.72362045       0.71702560       0.51074710
C        1.91688659       0.04550140       0.25347104
N        1.72729498      -0.97374144      -0.60920911
N        0.59594712      -1.20805147      -1.01717716
H       -2.16418520      -0.79323744      -0.34775022
H       -1.76549857      -0.17168352       1.26361473
H       -2.13352208       0.95256451      -0.05911096
H        0.10460851       1.16716627      -0.67759389
H        2.90018861       0.24673458       0.64137858
11
Frame=12 idx=005882 GeodesicLength=1.1863080574252451 rxn_smarts="[C:1]([n:2]1[c:3]([H:10])[c:4]([H:11])[n:5][n:6]1)([H:7])([H:8])[H:9]>>[C:1]([N:2]([C+:3]=[C:4]([N:5]=[N-:6])[H:11])[H:10])([H:7])([H:8])[H:9]"
C       -1.66330305       0.00730638       0.20024946
N       -0.25249416       0.01594594      -0.15232831
C        0.71863174       0.69983784       0.51294029
C        1.91654979       0.03319097       0.26002805
N        1.73691645      -0.96209840      -0.62955153
N        0.62093445      -1.20399870      -1.06201539
H       -2.15959726      -0.82031957      -0.30466399
H       -1.76702668      -0.12242694       1.27602953
H       -2.15226107       0.93613644      -0.09442610
H        0.10580090       1.18845118      -0.66691755
H        2.89584889       0.22797485       0.66065554
11
Frame=13 idx=005882 GeodesicLength=1.284798175081303 rxn_smarts="[C:1]([n:2]1[c:3]([H:10])[c:4]([H:11])[n:5][n:6]1)([H:7])([H:8])[H:9]>>[C:1]([N:2]([C+:3]=[C:4]([N:5]=[N-:6])[H:11])[H:10])([H:7])([H:8])[H:9]"
C       -1.66794620       0.01004390       0.20583452
N       -0.25894137       0.01869482      -0.15124375
C        0.71359357       0.68219540       0.51491289
C        1.91588187       0.01993190       0.26662660
N        1.74660914      -0.95017120      -0.64968477
N        0.64711593      -1.19880725      -1.10778004
H       -2.15402454      -0.84658910      -0.25932250
H       -1.76943913      -0.07116530       1.28660639
H       -2.17120343       0.91715808      -0.13026141
H        0.10711581       1.21004222      -0.65484136
H        2.89123834       0.20866655       0.67915344
11
Frame=14 idx=005882 GeodesicLength=1.3832328615788965 rxn_smarts="[C:1]([n:2]1[c:3]([H:10])[c:4]([H:11])[n:5][n:6]1)([H:7])([H:8])[H:9]>>[C:1]([N:2]([C+:3]=[C:4]([N:5]=[N-:6])[H:11])[H:10])([H:7])([H:8])[H:9]"
C       -1.67290428       0.01279145       0.21153098
N       -0.26571488       0.02138296      -0.14995883
C        0.70850865       0.66422717       0.51652034
C        1.91486351       0.00580141       0.27310409
N        1.75645034      -0.93754654      -0.66994358
N        0.67456735      -1.19243291      -1.15451647
H       -2.14731201      -0.87192729      -0.21116651
H       -1.77268961      -0.01756599       1.29503083
H       -2.19043000       0.89512142      -0.16659527
H        0.10846452       1.23201659      -0.64142094
H        2.88619640       0.18813172       0.69741535
11
Frame=15 idx=005882 GeodesicLength=1.4816628503870244 rxn_smarts="[C:1]([n:2]1[c:3]([H:10])[c:4]([H:11])[n:5][n:6]1)([H:7])([H:8])[H:9]>>[C:1]([N:2]([C+:3]=[C:4]([N:5]=[N-:6])[H:11])[H:10])([H:7])([H:8])[H:9]"
C       -1.67817964       0.01556678       0.21735576
N       -0.27283830       0.02397358      -0.14854870
C        0.70331659       0.64597043       0.51763301
C        1.91345766      -0.00916278       0.27944445
N        1.76644496      -0.92447818      -0.69005550
N        0.70346471      -1.18497667      -1.20211721
H       -2.13971365      -0.89591066      -0.16052693
H       -1.77664947       0.03791417       1.30115653
H       -2.20985699       0.87019196      -0.20288360
H        0.10987258       1.25425612      -0.62679732
H        2.88068155       0.16665526       0.71533954
11
Frame=16 idx=005882 GeodesicLength=1.580148471969851 rxn_smarts="[C:1]([n:2]1[c:3]([H:10])[c:4]([H:11])[n:5][n:6]1)([H:7])([H:8])[H:9]>>[C:1]([N:2]([C+:3]=[C:4]([N:5]=[N-:6])[H:11])[H:10])([H:7])([H:8])[H:9]"
C       -1.68374754       0.01835050       0.22335893
N       -0.28032694       0.02649447      -0.14711999
C        0.69800280       0.62751096       0.51812496
C        1.91164081      -0.02490500       0.28550751
N        1.77669076      -0.91066028      -0.71036444
N        0.73397051      -1.17633621      -1.25071299
H       -2.13116430      -0.91843494      -0.10684389
H       -1.78125352       0.09555659       1.30471463
H       -2.22953999       0.84194325      -0.23911921
H        0.11125873       1.27683223      -0.61099617
H        2.87446867       0.14364842       0.73345068
