14
Frame=0 idx=005603 GeodesicLength=0.0 rxn_smarts="[C:1](#[C:2][C:3]1([H:8])[C:4]([H:9])([H:10])[C:5]([H:11])([H:12])[C:6]1([H:13])[H:14])[H:7]>>[C:1](#[C:2][C@@:3]([C:4]([C:5][H:12])([H:9])[H:10])([C:6]([H:11])([H:13])[H:14])[H:8])[H:7]"
C        2.60810261      -0.12700424      -1.11105579
C        1.60255473       0.11388218      -0.50648533
C        0.37088620       0.38699876       0.22086898
C       -0.86468870       0.73270644      -0.62106124
C       -1.93676769       0.41401641       0.41242424
C       -0.20110832      -0.79719566       0.99887042
H        3.50354735      -0.33394395      -1.64788599
H        0.54364827       1.20308735       0.92712898
H       -0.90065588       1.78151062      -0.92197766
H       -0.87556179       0.11009109      -1.52189037
H       -1.22235620      -0.34277983       1.40158714
H       -2.57804829      -0.40671608       0.05398959
H       -0.35055979      -1.68031920       0.38312503
H        0.30100750      -1.05433395       1.93236196
14
Frame=1 idx=005603 GeodesicLength=0.05486737886279119 rxn_smarts="[C:1](#[C:2][C:3]1([H:8])[C:4]([H:9])([H:10])[C:5]([H:11])([H:12])[C:6]1([H:13])[H:14])[H:7]>>[C:1](#[C:2][C@@:3]([C:4]([C:5][H:12])([H:9])[H:10])([C:6]([H:11])([H:13])[H:14])[H:8])[H:7]"
C        2.60985037      -0.13343186      -1.11044817
C        1.60475562       0.10860859      -0.50552976
C        0.37389335       0.38446094       0.22184255
C       -0.86075084       0.72705732      -0.62282649
C       -1.93368733       0.40874083       0.40520791
C       -0.20412763      -0.79699489       1.00102695
H        3.50385866      -0.32310820      -1.65599537
H        0.54687834       1.20259120       0.92561250
H       -0.91019114       1.77988217      -0.91146786
H       -0.87094058       0.10892877      -1.52644042
H       -1.22944899      -0.33210017       1.42234787
H       -2.59009361      -0.39571507       0.03885438
H       -0.34416748      -1.68328618       0.38702949
H        0.30417128      -1.05563345       1.93078641
14
Frame=2 idx=005603 GeodesicLength=0.10973068353803203 rxn_smarts="[C:1](#[C:2][C:3]1([H:8])[C:4]([H:9])([H:10])[C:5]([H:11])([H:12])[C:6]1([H:13])[H:14])[H:7]>>[C:1](#[C:2][C@@:3]([C:4]([C:5][H:12])([H:9])[H:10])([C:6]([H:11])([H:13])[H:14])[H:8])[H:7]"
C        2.61173894      -0.13951307      -1.10969189
C        1.60709086       0.10353912      -0.50436870
C        0.37694544       0.38193516       0.22292934
C       -0.85678462       0.72142095      -0.62446739
C       -1.93054572       0.40285891       0.39801727
C       -0.20704445      -0.79688687       1.00318441
H        3.50333750      -0.31278151      -1.66460571
H        0.55001307       1.20207063       0.92427450
H       -0.91978865       1.77795671      -0.90080682
H       -0.86610954       0.10790106      -1.53093113
H       -1.23651808      -0.32117566       1.44291152
H       -2.60216819      -0.38426459       0.02312925
H       -0.33720014      -1.68633314       0.39095948
H        0.30703357      -1.05672769       1.92946589
14
Frame=3 idx=005603 GeodesicLength=0.16458651441641095 rxn_smarts="[C:1](#[C:2][C:3]1([H:8])[C:4]([H:9])([H:10])[C:5]([H:11])([H:12])[C:6]1([H:13])[H:14])[H:7]>>[C:1](#[C:2][C@@:3]([C:4]([C:5][H:12])([H:9])[H:10])([C:6]([H:11])([H:13])[H:14])[H:8])[H:7]"
C        2.61358277      -0.14518875      -1.10919527
C        1.60944496       0.09869910      -0.50328275
C        0.38000906       0.37942414       0.22399790
C       -0.85291938       0.71581776      -0.62596768
C       -1.92735556       0.39637398       0.39098157
C       -0.20979387      -0.79689554       1.00524493
H        3.50256835      -0.30314079      -1.67286784
H        0.55309506       1.20151173       0.92298532
H       -0.92960520       1.77575625      -0.88995062
H       -0.86130438       0.10705087      -1.53535697
H       -1.24347412      -0.31003114       1.46330366
H       -2.61433777      -0.37226583       0.00703758
H       -0.32967857      -1.68945884       0.39482172
H        0.30976864      -1.05765294       1.92824847
14
Frame=4 idx=005603 GeodesicLength=0.2194347331930887 rxn_smarts="[C:1](#[C:2][C:3]1([H:8])[C:4]([H:9])([H:10])[C:5]([H:11])([H:12])[C:6]1([H:13])[H:14])[H:7]>>[C:1](#[C:2][C@@:3]([C:4]([C:5][H:12])([H:9])[H:10])([C:6]([H:11])([H:13])[H:14])[H:8])[H:7]"
C        2.61532806      -0.15055854      -1.10905305
C        1.61178761       0.09400883      -0.50233935
C        0.38307933       0.37688518       0.22501214
C       -0.84917458       0.71022227      -0.62733650
C       -1.92411776       0.38931015       0.38412263
C       -0.21238082      -0.79704538       1.00720181
H        3.50178065      -0.29394995      -1.68063595
H        0.55615529       1.20087766       0.92169417
H       -0.93963298       1.77324854      -0.87892229
H       -0.85658873       0.10634081      -1.53971519
H       -1.25032037      -0.29864828       1.48353312
H       -2.62664579      -0.35958343      -0.00932119
H       -0.32166187      -1.69268348       0.39863393
H        0.31239196      -1.05842439       1.92712572
14
Frame=5 idx=005603 GeodesicLength=0.27427747348150716 rxn_smarts="[C:1](#[C:2][C:3]1([H:8])[C:4]([H:9])([H:10])[C:5]([H:11])([H:12])[C:6]1([H:13])[H:14])[H:7]>>[C:1](#[C:2][C@@:3]([C:4]([C:5][H:12])([H:9])[H:10])([C:6]([H:11])([H:13])[H:14])[H:8])[H:7]"
C        2.61701414      -0.15555326      -1.10919932
C        1.61413534       0.08950199      -0.50149755
C        0.38615301       0.37432435       0.22599130
C       -0.84554135       0.70461831      -0.62858076
C       -1.92084022       0.38163847       0.37740720
C       -0.21479550      -0.79734955       1.00905638
H        3.50091974      -0.28527829      -1.68802843
H        0.55915931       1.20017583       0.92042732
H       -0.94987013       1.77041441      -0.86772498
H       -0.85192990       0.10575841      -1.54401194
H       -1.25708733      -0.28704743       1.50357792
H       -2.63909070      -0.34615049      -0.02593301
H       -0.31312782      -1.69601092       0.40240039
H        0.31490140      -1.05904183       1.92611549
14
Frame=6 idx=005603 GeodesicLength=0.32911183985899783 rxn_smarts="[C:1](#[C:2][C:3]1([H:8])[C:4]([H:9])([H:10])[C:5]([H:11])([H:12])[C:6]1([H:13])[H:14])[H:7]>>[C:1](#[C:2][C@@:3]([C:4]([C:5][H:12])([H:9])[H:10])([C:6]([H:11])([H:13])[H:14])[H:8])[H:7]"
C        2.61866055      -0.16010382      -1.10960900
C        1.61649386       0.08521513      -0.50074564
C        0.38922431       0.37174857       0.22694064
C       -0.84202338       0.69899237      -0.62970612
C       -1.91753019       0.37333058       0.37081476
C       -0.21702094      -0.79782218       1.01079994
H        3.49998012      -0.27720883      -1.69507287
H        0.56207793       1.19941289       0.91919668
H       -0.96032963       1.76723729      -0.85635857
H       -0.84731900       0.10529412      -1.54825229
H       -1.26380050      -0.27525632       1.52341314
H       -2.65167170      -0.33188906      -0.04275617
H       -0.30405262      -1.69944478       0.40611452
H        0.31731120      -1.05950596       1.92522100
14
Frame=7 idx=005603 GeodesicLength=0.3839407118856459 rxn_smarts="[C:1](#[C:2][C:3]1([H:8])[C:4]([H:9])([H:10])[C:5]([H:11])([H:12])[C:6]1([H:13])[H:14])[H:7]>>[C:1](#[C:2][C@@:3]([C:4]([C:5][H:12])([H:9])[H:10])([C:6]([H:11])([H:13])[H:14])[H:8])[H:7]"
C        2.62021497      -0.16445257      -1.11034764
C        1.61883954       0.08098487      -0.50013462
C        0.39229682       0.36907797       0.22782542
C       -0.83861681       0.69329234      -0.63073682
C       -1.91418194       0.36443162       0.36434791
C       -0.21908992      -0.79849258       1.01244841
H        3.49918741      -0.26921612      -1.70170701
H        0.56496543       1.19852489       0.91793671
H       -0.97095052       1.76366181      -0.84488038
H       -0.84280602       0.10486475      -1.55243654
H       -1.27048112      -0.26321911       1.54305257
H       -2.66443527      -0.31660206      -0.05966318
H       -0.29454038      -1.70302109       0.40983438
H        0.31959779      -1.05983471       1.92446080
14
Frame=8 idx=005603 GeodesicLength=0.4387629152534257 rxn_smarts="[C:1](#[C:2][C:3]1([H:8])[C:4]([H:9])([H:10])[C:5]([H:11])([H:12])[C:6]1([H:13])[H:14])[H:7]>>[C:1](#[C:2][C@@:3]([C:4]([C:5][H:12])([H:9])[H:10])([C:6]([H:11])([H:13])[H:14])[H:8])[H:7]"
C        2.62181890      -0.16848918      -1.11114681
C        1.62124971       0.07687127      -0.49948358
C        0.39538098       0.36632766       0.22873205
C       -0.83525239       0.68748956      -0.63168552
C       -1.91079597       0.35488398       0.35790246
C       -0.22100691      -0.79937159       1.01403670
H        3.49816256      -0.26138660      -1.70844574
H        0.56774759       1.19753262       0.91674848
H       -0.98167374       1.75965107      -0.83331335
H       -0.83823591       0.10444057      -1.55657447
H       -1.27722413      -0.25097034       1.56243709
H       -2.67733185      -0.30022022      -0.07672149
H       -0.28453112      -1.70674371       0.41359660
H        0.32169227      -1.06001509       1.92391757
14
Frame=9 idx=005603 GeodesicLength=0.49360981933823883 rxn_smarts="[C:1](#[C:2][C:3]1([H:8])[C:4]([H:9])([H:10])[C:5]([H:11])([H:12])[C:6]1([H:13])[H:14])[H:7]>>[C:1](#[C:2][C@@:3]([C:4]([C:5][H:12])([H:9])[H:10])([C:6]([H:11])([H:13])[H:14])[H:8])[H:7]"
C        2.62332386      -0.17221965      -1.11231801
C        1.62362874       0.07286638      -0.49902247
C        0.39844294       0.36348245       0.22953852
C       -0.83203652       0.68156643      -0.63257488
C       -1.90739090       0.34468001       0.35154600
C       -0.22273204      -0.80048303       1.01548771
H        3.49742115      -0.25373606      -1.71458281
H        0.57044695       1.19641772       0.91549980
H       -0.99262343       1.75521127      -0.82163753
H       -0.83381044       0.10400468      -1.56068419
H       -1.28395037      -0.23850149       1.58160966
H       -2.69037945      -0.28257334      -0.09364234
H       -0.27405585      -1.71062255       0.41733079
H        0.32371538      -1.06009283       1.92344976
14
Frame=10 idx=005603 GeodesicLength=0.5484453118443825 rxn_smarts="[C:1](#[C:2][C:3]1([H:8])[C:4]([H:9])([H:10])[C:5]([H:11])([H:12])[C:6]1([H:13])[H:14])[H:7]>>[C:1](#[C:2][C@@:3]([C:4]([C:5][H:12])([H:9])[H:10])([C:6]([H:11])([H:13])[H:14])[H:8])[H:7]"
C        2.62487060      -0.17556395      -1.11359173
C        1.62605740       0.06901437      -0.49856503
C        0.40149949       0.36055198       0.23033612
C       -0.82889118       0.67549816      -0.63340870
C       -1.90396125       0.33376595       0.34517604
C       -0.22427250      -0.80183849       1.01684212
H        3.49657357      -0.24629955      -1.72066912
H        0.57299997       1.19519451       0.91429657
H       -1.00372015       1.75029142      -0.80988426
H       -0.82936306       0.10353349      -1.56476962
H       -1.29078156      -0.22585628       1.60047798
H       -2.70354845      -0.26358975      -0.11049224
H       -0.26305365      -1.71466441       0.42108323
H        0.32559077      -1.06003745       1.92316862
14
Frame=11 idx=005603 GeodesicLength=0.6032736576804827 rxn_smarts="[C:1](#[C:2][C:3]1([H:8])[C:4]([H:9])([H:10])[C:5]([H:11])([H:12])[C:6]1([H:13])[H:14])[H:7]>>[C:1](#[C:2][C@@:3]([C:4]([C:5][H:12])([H:9])[H:10])([C:6]([H:11])([H:13])[H:14])[H:8])[H:7]"
C        2.62643309      -0.17865115      -1.11500900
C        1.62852090       0.06523200      -0.49815037
C        0.40454644       0.35748767       0.23109498
C       -0.82582365       0.66923876      -0.63421185
C       -1.90050898       0.32213717       0.33877568
C       -0.22564126      -0.80346679       1.01809781
H        3.49577552      -0.23877575      -1.72662760
H        0.57542148       1.19382576       0.91309126
H       -1.01494569       1.74484520      -0.79809650
H       -0.82493068       0.10296147      -1.56884055
H       -1.29775114      -0.21300467       1.61902458
H       -2.71684214      -0.24306763      -0.12710664
H       -0.25156766      -1.71890108       0.42488172
H        0.32731376      -1.05986095       1.92307648
14
Frame=12 idx=005603 GeodesicLength=0.6580812059582359 rxn_smarts="[C:1](#[C:2][C:3]1([H:8])[C:4]([H:9])([H:10])[C:5]([H:11])([H:12])[C:6]1([H:13])[H:14])[H:7]>>[C:1](#[C:2][C@@:3]([C:4]([C:5][H:12])([H:9])[H:10])([C:6]([H:11])([H:13])[H:14])[H:8])[H:7]"
C        2.62804551      -0.18143684      -1.11651227
C        1.63103563       0.06154519      -0.49774414
C        0.40757970       0.35428924       0.23182520
C       -0.82282343       0.66276193      -0.63500135
C       -1.89703798       0.30974973       0.33229243
C       -0.22683149      -0.80538473       1.01924982
H        3.49496572      -0.23118347      -1.73253797
H        0.57767479       1.19231353       0.91189838
H       -1.02629601       1.73884242      -0.78629417
H       -0.82048144       0.10226279      -1.57291159
H       -1.30491498      -0.19996801       1.63719975
H       -2.73022131      -0.22088509      -0.14337937
H       -0.23956743      -1.72334142       0.42873083
H        0.32887271      -1.05956526       1.92318444
14
Frame=13 idx=005603 GeodesicLength=0.7128823552475199 rxn_smarts="[C:1](#[C:2][C:3]1([H:8])[C:4]([H:9])([H:10])[C:5]([H:11])([H:12])[C:6]1([H:13])[H:14])[H:7]>>[C:1](#[C:2][C@@:3]([C:4]([C:5][H:12])([H:9])[H:10])([C:6]([H:11])([H:13])[H:14])[H:8])[H:7]"
C        2.62972687      -0.18384998      -1.11808936
C        1.63360417       0.05799023      -0.49735023
C        0.41058777       0.35095881       0.23251518
C       -0.81990019       0.65603815      -0.63580171
C       -1.89355702       0.29654748       0.32567798
C       -0.22782841      -0.80761267       1.02027299
H        3.49416472      -0.22359010      -1.73835622
H        0.57971813       1.19066189       0.91071268
H       -1.03779860       1.73225172      -0.77448555
H       -0.81601365       0.10140967      -1.57700596
H       -1.31232142      -0.18676623       1.65495875
H       -2.74364690      -0.19688819      -0.15913509
H       -0.22701698      -1.72799532       0.43261015
H        0.33028152      -1.05915547       1.92347637
14
Frame=14 idx=005603 GeodesicLength=0.767656053089647 rxn_smarts="[C:1](#[C:2][C:3]1([H:8])[C:4]([H:9])([H:10])[C:5]([H:11])([H:12])[C:6]1([H:13])[H:14])[H:7]>>[C:1](#[C:2][C@@:3]([C:4]([C:5][H:12])([H:9])[H:10])([C:6]([H:11])([H:13])[H:14])[H:8])[H:7]"
C        2.63150624      -0.18590702      -1.11968283
C        1.63624103       0.05455382      -0.49693632
C        0.41356766       0.34747782       0.23316931
C       -0.81703571       0.64903084      -0.63663930
C       -1.89006766       0.28249664       0.31887064
C       -0.22864048      -0.81017041       1.02116643
H        3.49333318      -0.21588680      -1.74417157
H        0.58152440       1.18885746       0.90953510
H       -1.04942630       1.72503253      -0.76270951
H       -0.81149584       0.10035833      -1.58114204
H       -1.32004345      -0.17340315       1.67224106
H       -2.75705935      -0.17093150      -0.17420959
H       -0.21390832      -1.73287534       0.43654085
H        0.33150460      -1.05863322       1.92396777
14
Frame=15 idx=005603 GeodesicLength=0.8224091203290386 rxn_smarts="[C:1](#[C:2][C:3]1([H:8])[C:4]([H:9])([H:10])[C:5]([H:11])([H:12])[C:6]1([H:13])[H:14])[H:7]>>[C:1](#[C:2][C@@:3]([C:4]([C:5][H:12])([H:9])[H:10])([C:6]([H:11])([H:13])[H:14])[H:8])[H:7]"
C        2.63343447      -0.18753842      -1.12121271
C        1.63896760       0.05126751      -0.49645789
C        0.41651087       0.34384479       0.23379576
C       -0.81421593       0.64170345      -0.63754685
C       -1.88657528       0.26753453       0.31178796
C       -0.22926736      -0.81307941       1.02191495
H        3.49239075      -0.20810539      -1.75007750
H        0.58303893       1.18690177       0.90838008
H       -1.06117747       1.71714433      -0.75099366
H       -0.80688303       0.09907255      -1.58534932
H       -1.32816654      -0.15989707       1.68897541
H       -2.77037194      -0.14285557      -0.18840161
H       -0.20020168      -1.73799193       0.44052091
H        0.33251663      -1.05800113       1.92466446
14
Frame=16 idx=005603 GeodesicLength=0.8771451014610295 rxn_smarts="[C:1](#[C:2][C:3]1([H:8])[C:4]([H:9])([H:10])[C:5]([H:11])([H:12])[C:6]1([H:13])[H:14])[H:7]>>[C:1](#[C:2][C@@:3]([C:4]([C:5][H:12])([H:9])[H:10])([C:6]([H:11])([H:13])[H:14])[H:8])[H:7]"
C        2.63553396      -0.18873393      -1.12265480
C        1.64178748       0.04811510      -0.49591192
C        0.41940649       0.34003688       0.23437669
C       -0.81143905       0.63400998      -0.63856760
C       -1.88308535       0.25161454       0.30436041
C       -0.22971710      -0.81636689       1.02249834
H        3.49136401      -0.20014921      -1.75605512
H        0.58422813       1.18477960       0.90722565
H       -1.07304632       1.70854205      -0.73938742
H       -0.80216968       0.09749580      -1.58966267
H       -1.33677074      -0.14624549       1.70508882
H       -2.78349359      -0.11246516      -0.20142640
H       -0.18589116      -1.74336690       0.44455348
H        0.33329293      -1.05726638       1.92556254
