13
Frame=0 idx=002025 GeodesicLength=0.0 rxn_smarts="[C:1]([C@@:2]([O:3][H:10])([C:4]([O:5][H:13])([H:11])[H:12])[H:9])([H:6])([H:7])[H:8]>>[C:1]([H:6])([H:7])([H:8])[H:13].[C:2](=[O:3])([C:4]([O:5][H:10])([H:11])[H:12])[H:9]"
C       -1.14794855       0.93120413      -0.10408998
C       -0.04007779      -0.96254635      -0.04973314
O        0.19718232      -1.12365091      -1.31642172
C        1.11121594      -0.34773431       0.69688099
O        1.49163778       0.68335292      -0.10436549
H       -1.38376312       1.35185219      -1.08453832
H       -1.27041459       1.67604495       0.68555697
H       -1.90636657       0.16847097       0.07891441
H       -0.77455031      -1.65065223       0.36149689
H        0.92126881      -0.45350465      -1.47059185
H        0.81101308      -0.07960256       1.72079444
H        1.86775766      -1.14879486       0.76858341
H        0.12304535       0.95556069      -0.18248664
13
Frame=1 idx=002025 GeodesicLength=0.13058521050969152 rxn_smarts="[C:1]([C@@:2]([O:3][H:10])([C:4]([O:5][H:13])([H:11])[H:12])[H:9])([H:6])([H:7])[H:8]>>[C:1]([H:6])([H:7])([H:8])[H:13].[C:2](=[O:3])([C:4]([O:5][H:10])([H:11])[H:12])[H:9]"
C       -1.15545279       0.92916059      -0.10238130
C       -0.04567166      -0.96371267      -0.04769945
O        0.19130664      -1.13020780      -1.31507811
C        1.11360169      -0.35195473       0.69167768
O        1.50891681       0.66023757      -0.13295658
H       -1.39163196       1.38824920      -1.06529366
H       -1.28929802       1.64296646       0.71389282
H       -1.92578335       0.16958057       0.04188350
H       -0.76002218      -1.66573733       0.37646787
H        0.93493735      -0.45430628      -1.46594967
H        0.81516693      -0.04889775       1.70602597
H        1.85881698      -1.15925591       0.79380785
H        0.14511356       0.98387808      -0.19439691
13
Frame=2 idx=002025 GeodesicLength=0.2609639988582596 rxn_smarts="[C:1]([C@@:2]([O:3][H:10])([C:4]([O:5][H:13])([H:11])[H:12])[H:9])([H:6])([H:7])[H:8]>>[C:1]([H:6])([H:7])([H:8])[H:13].[C:2](=[O:3])([C:4]([O:5][H:10])([H:11])[H:12])[H:9]"
C       -1.16302102       0.92705329      -0.10102517
C       -0.05145521      -0.96513902      -0.04545204
O        0.18487165      -1.13730173      -1.31352468
C        1.11568820      -0.35621882       0.68653918
O        1.52498262       0.63718906      -0.16051498
H       -1.39928918       1.42485677      -1.04445794
H       -1.30808748       1.60853785       0.74090145
H       -1.94439441       0.17181565       0.00429922
H       -0.74518866      -1.68057229       0.39163845
H        0.94845198      -0.45556045      -1.46153687
H        0.81961704      -0.01906364       1.69050764
H        1.84989390      -1.16817871       0.81883173
H        0.16793058       1.01258203      -0.20620599
13
Frame=3 idx=002025 GeodesicLength=0.39115772353998396 rxn_smarts="[C:1]([C@@:2]([O:3][H:10])([C:4]([O:5][H:13])([H:11])[H:12])[H:9])([H:6])([H:7])[H:8]>>[C:1]([H:6])([H:7])([H:8])[H:13].[C:2](=[O:3])([C:4]([O:5][H:10])([H:11])[H:12])[H:9]"
C       -1.17067352       0.92491249      -0.09997011
C       -0.05743407      -0.96682387      -0.04300977
O        0.17785119      -1.14491243      -1.31176664
C        1.11745712      -0.36050678       0.68145832
O        1.53991865       0.61424309      -0.18709391
H       -1.40675303       1.46153964      -1.02189973
H       -1.32689158       1.57276646       0.76650578
H       -1.96215162       0.17520817      -0.03372581
H       -0.73006120      -1.69515074       0.40695261
H        0.96185271      -0.45727263      -1.45736011
H        0.82425781       0.00992650       1.67424165
H        1.84098182      -1.17559583       0.84368994
H        0.19164573       1.04166594      -0.21802221
13
Frame=4 idx=002025 GeodesicLength=0.521179411106073 rxn_smarts="[C:1]([C@@:2]([O:3][H:10])([C:4]([O:5][H:13])([H:11])[H:12])[H:9])([H:6])([H:7])[H:8]>>[C:1]([H:6])([H:7])([H:8])[H:13].[C:2](=[O:3])([C:4]([O:5][H:10])([H:11])[H:12])[H:9]"
C       -1.17842978       0.92276114      -0.09914855
C       -0.06361296      -0.96876505      -0.04038769
O        0.17022159      -1.15302080      -1.30981026
C        1.11889393      -0.36479711       0.67642600
O        1.55380298       0.59142594      -0.21274898
H       -1.41403049       1.49817965      -0.99747112
H       -1.34583032       1.53566381       0.79065469
H       -1.97904019       0.17979050      -0.07211335
H       -0.71464858      -1.70946909       0.42236729
H        0.97519570      -0.45947088      -1.45342145
H        0.82898731       0.03810083       1.65723028
H        1.83207683      -1.18152132       0.86841225
H        0.21641399       1.07112238      -0.22998912
13
Frame=5 idx=002025 GeodesicLength=0.6512328794655964 rxn_smarts="[C:1]([C@@:2]([O:3][H:10])([C:4]([O:5][H:13])([H:11])[H:12])[H:9])([H:6])([H:7])[H:8]>>[C:1]([H:6])([H:7])([H:8])[H:13].[C:2](=[O:3])([C:4]([O:5][H:10])([H:11])[H:12])[H:9]"
C       -1.18644357       0.92050864      -0.09847375
C       -0.06998343      -0.97093896      -0.03760120
O        0.16196985      -1.16155591      -1.30767563
C        1.11998121      -0.36905445       0.67143249
O        1.56682526       0.56873466      -0.23756002
H       -1.42107053       1.53463977      -0.97106440
H       -1.36476958       1.49741141       0.81340197
H       -1.99525996       0.18543290      -0.11082063
H       -0.69889878      -1.72358050       0.43781515
H        0.98853291      -0.46213922      -1.44975345
H        0.83363430       0.06556798       1.63949483
H        1.82310496      -1.18600058       0.89306643
H        0.24237737       1.10097426      -0.24226179
13
Frame=6 idx=002025 GeodesicLength=0.7812843132943665 rxn_smarts="[C:1]([C@@:2]([O:3][H:10])([C:4]([O:5][H:13])([H:11])[H:12])[H:9])([H:6])([H:7])[H:8]>>[C:1]([H:6])([H:7])([H:8])[H:13].[C:2](=[O:3])([C:4]([O:5][H:10])([H:11])[H:12])[H:9]"
C       -1.19466480       0.91823323      -0.09785408
C       -0.07656501      -0.97334381      -0.03464159
O        0.15302955      -1.17054436      -1.30534548
C        1.12071544      -0.37324426       0.66645738
O        1.57900262       0.54616336      -0.26160566
H       -1.42781768       1.57083140      -0.94245622
H       -1.38413540       1.45776952       0.83472714
H       -2.01064937       0.19230330      -0.14990525
H       -0.68286981      -1.73741285       0.45331583
H        1.00189803      -0.46536297      -1.44635862
H        0.83819697       0.09238235       1.62099265
H        1.81407917      -1.18899367       0.91766733
H        0.26978029       1.13121876      -0.25499345
13
Frame=7 idx=002025 GeodesicLength=0.911321130498612 rxn_smarts="[C:1]([C@@:2]([O:3][H:10])([C:4]([O:5][H:13])([H:11])[H:12])[H:9])([H:6])([H:7])[H:8]>>[C:1]([H:6])([H:7])([H:8])[H:13].[C:2](=[O:3])([C:4]([O:5][H:10])([H:11])[H:12])[H:9]"
C       -1.20313740       0.91593434      -0.09719955
C       -0.08336280      -0.97596860      -0.03151113
O        0.14336462      -1.17995806      -1.30281527
C        1.12108077      -0.37732907       0.66149004
O        1.59039810       0.52371241      -0.28495571
H       -1.43419413       1.60661174      -0.91151919
H       -1.40406718       1.41671753       0.85467253
H       -2.02522540       0.20042486      -0.18936594
H       -0.66656376      -1.75095667       0.46883650
H        1.01532789      -0.46918443      -1.44324130
H        0.84259174       0.11860187       1.60170344
H        1.80497282      -1.19047617       0.94224391
H        0.29881473       1.16187027      -0.26833835
13
Frame=8 idx=002025 GeodesicLength=1.0414035516380094 rxn_smarts="[C:1]([C@@:2]([O:3][H:10])([C:4]([O:5][H:13])([H:11])[H:12])[H:9])([H:6])([H:7])[H:8]>>[C:1]([H:6])([H:7])([H:8])[H:13].[C:2](=[O:3])([C:4]([O:5][H:10])([H:11])[H:12])[H:9]"
C       -1.21191342       0.91359807      -0.09637783
C       -0.09038610      -0.97880519      -0.02820132
O        0.13291403      -1.18977629      -1.30007042
C        1.12106408      -0.38126157       0.65651459
O        1.60106809       0.50135871      -0.30768939
H       -1.44009307       1.64186492      -0.87801967
H       -1.42480106       1.37413021       0.87322893
H       -2.03896394       0.20987602      -0.22927491
H       -0.64999669      -1.76418762       0.48437198
H        1.02885799      -0.47366272      -1.44040931
H        0.84675280       0.14432144       1.58158213
H        1.79576490      -1.19038847       0.96682426
H        0.32973239       1.19293248      -0.28247904
13
Frame=9 idx=002025 GeodesicLength=1.1717556941369218 rxn_smarts="[C:1]([C@@:2]([O:3][H:10])([C:4]([O:5][H:13])([H:11])[H:12])[H:9])([H:6])([H:7])[H:8]>>[C:1]([H:6])([H:7])([H:8])[H:13].[C:2](=[O:3])([C:4]([O:5][H:10])([H:11])[H:12])[H:9]"
C       -1.22118246       0.91106947      -0.09521010
C       -0.09761951      -0.98182473      -0.02469751
O        0.12162244      -1.19993339      -1.29710882
C        1.12065283      -0.38497669       0.65150102
O        1.61123201       0.47903733      -0.32993373
H       -1.44530106       1.67645994      -0.84172713
H       -1.44643717       1.33001588       0.89050963
H       -2.05202708       0.22062351      -0.26978268
H       -0.63313166      -1.77712744       0.49989731
H        1.04251987      -0.47883874      -1.43790829
H        0.85055207       0.16974888       1.56059868
H        1.78634217      -1.18870474       0.99146406
H        0.36277754       1.22445074      -0.29760245
13
Frame=10 idx=002025 GeodesicLength=1.3022030126958948 rxn_smarts="[C:1]([C@@:2]([O:3][H:10])([C:4]([O:5][H:13])([H:11])[H:12])[H:9])([H:6])([H:7])[H:8]>>[C:1]([H:6])([H:7])([H:8])[H:13].[C:2](=[O:3])([C:4]([O:5][H:10])([H:11])[H:12])[H:9]"
C       -1.23091464       0.90841608      -0.09360917
C       -0.10509386      -0.98504006      -0.02100007
O        0.10942499      -1.21042750      -1.29392615
C        1.11981724      -0.38842444       0.64643785
O        1.62078405       0.45676036      -0.35172162
H       -1.44978570       1.71019132      -0.80239293
H       -1.46934987       1.28413126       0.90640227
H       -2.06418592       0.23293029      -0.31086507
H       -0.61600951      -1.78973605       0.51541998
H        1.05635368      -0.48480754      -1.43571557
H        0.85396879       0.19490039       1.53866921
H        1.77672916      -1.18528482       1.01617129
H        0.39826159       1.25639072      -0.31387002
13
Frame=11 idx=002025 GeodesicLength=1.432689779311959 rxn_smarts="[C:1]([C@@:2]([O:3][H:10])([C:4]([O:5][H:13])([H:11])[H:12])[H:9])([H:6])([H:7])[H:8]>>[C:1]([H:6])([H:7])([H:8])[H:13].[C:2](=[O:3])([C:4]([O:5][H:10])([H:11])[H:12])[H:9]"
C       -1.24118800       0.90559176      -0.09143091
C       -0.11281670      -0.98844910      -0.01710042
O        0.09626541      -1.22121326      -1.29050975
C        1.11852596      -0.39155262       0.64130693
O        1.62974086       0.43451899      -0.37310950
H       -1.45340791       1.74283251      -0.75986149
H       -1.49372284       1.23639777       0.92090466
H       -2.07540520       0.24690832      -0.35253483
H       -0.59862549      -1.80201249       0.53091378
H        1.07039347      -0.49161470      -1.43382805
H        0.85690949       0.21986097       1.51573656
H        1.76688803      -1.18003070       1.04095153
H        0.43644292       1.28876256      -0.33143853
13
Frame=12 idx=002025 GeodesicLength=1.5632432986308753 rxn_smarts="[C:1]([C@@:2]([O:3][H:10])([C:4]([O:5][H:13])([H:11])[H:12])[H:9])([H:6])([H:7])[H:8]>>[C:1]([H:6])([H:7])([H:8])[H:13].[C:2](=[O:3])([C:4]([O:5][H:10])([H:11])[H:12])[H:9]"
C       -1.25212063       0.90250933      -0.08852072
C       -0.12079872      -0.99205141      -0.01298737
O        0.08207506      -1.23224034      -1.28685993
C        1.11674143      -0.39428902       0.63608279
O        1.63813266       0.41228710      -0.39416815
H       -1.45602707       1.77413794      -0.71386155
H       -1.51980385       1.18669019       0.93394214
H       -2.08562398       0.26273872      -0.39480722
H       -0.58096750      -1.81397493       0.54636010
H        1.08467936      -0.49934018      -1.43224298
H        0.85927181       0.24476037       1.49170788
H        1.75676106      -1.17279658       1.06582151
H        0.47768038       1.32156881      -0.35046650
13
Frame=13 idx=002025 GeodesicLength=1.693881451174251 rxn_smarts="[C:1]([C@@:2]([O:3][H:10])([C:4]([O:5][H:13])([H:11])[H:12])[H:9])([H:6])([H:7])[H:8]>>[C:1]([H:6])([H:7])([H:8])[H:13].[C:2](=[O:3])([C:4]([O:5][H:10])([H:11])[H:12])[H:9]"
C       -1.26386784       0.89900585      -0.08471794
C       -0.12902115      -0.99584532      -0.00863920
O        0.06679712      -1.24343252      -1.28296079
C        1.11442783      -0.39656125       0.63074257
O        1.64603865       0.39003799      -0.41498133
H       -1.45746763       1.80379387      -0.66423213
H       -1.54777747       1.13503870       0.94551896
H       -2.09491061       0.28056449      -0.43769654
H       -0.56297705      -1.82567266       0.56171132
H        1.09924066      -0.50803351      -1.43097263
H        0.86091169       0.26974235       1.46652025
H        1.74626118      -1.16346424       1.09076067
H        0.52234460       1.35482624      -0.37105321
13
Frame=14 idx=002025 GeodesicLength=1.8244340320577435 rxn_smarts="[C:1]([C@@:2]([O:3][H:10])([C:4]([O:5][H:13])([H:11])[H:12])[H:9])([H:6])([H:7])[H:8]>>[C:1]([H:6])([H:7])([H:8])[H:13].[C:2](=[O:3])([C:4]([O:5][H:10])([H:11])[H:12])[H:9]"
C       -1.27650101       0.89507438      -0.07996526
C       -0.13753167      -0.99985823      -0.00405906
O        0.05035244      -1.25474977      -1.27884769
C        1.11152929      -0.39829754       0.62527148
O        1.65332831       0.36781376      -0.43555934
H       -1.45773057       1.83143525      -0.61076499
H       -1.57785239       1.08129647       0.95537454
H       -2.10302633       0.30067955      -0.48100559
H       -0.54464624      -1.83712679       0.57696199
H        1.11411856      -0.51776697      -1.42998918
H        0.86175501       0.29485138       1.44007134
H        1.73537785      -1.15183659       1.11577582
H        0.57082675       1.38848510      -0.39326406
13
Frame=15 idx=002025 GeodesicLength=1.9548206886232733 rxn_smarts="[C:1]([C@@:2]([O:3][H:10])([C:4]([O:5][H:13])([H:11])[H:12])[H:9])([H:6])([H:7])[H:8]>>[C:1]([H:6])([H:7])([H:8])[H:13].[C:2](=[O:3])([C:4]([O:5][H:10])([H:11])[H:12])[H:9]"
C       -1.29015899       0.89058970      -0.07418122
C       -0.14633873      -1.00410708       0.00075936
O        0.03269113      -1.26612676      -1.27452406
C        1.10798861      -0.39943741       0.61964898
O        1.65997144       0.34564205      -0.45593997
H       -1.45677233       1.85666030      -0.55342902
H       -1.61010076       1.02556352       0.96341821
H       -2.10995370       0.32323059      -0.52455429
H       -0.52592016      -1.84839167       0.59205007
H        1.12935233      -0.52857399      -1.42927773
H        0.86165834       0.32016210       1.41228766
H        1.72404209      -1.13776391       1.14082729
H        0.62354075       1.42255256      -0.41708527
13
Frame=16 idx=002025 GeodesicLength=2.085007236172394 rxn_smarts="[C:1]([C@@:2]([O:3][H:10])([C:4]([O:5][H:13])([H:11])[H:12])[H:9])([H:6])([H:7])[H:8]>>[C:1]([H:6])([H:7])([H:8])[H:13].[C:2](=[O:3])([C:4]([O:5][H:10])([H:11])[H:12])[H:9]"
C       -1.30499707       0.88542896      -0.06731492
C       -0.15546086      -1.00861017       0.00583889
O        0.01373261      -1.27749995      -1.27000644
C        1.10375516      -0.39989525       0.61385213
O        1.66593126       0.32354876      -0.47618334
H       -1.45461749       1.87903873      -0.49213528
H       -1.64465816       0.96785695       0.96944568
H       -2.11564533       0.34843185      -0.56811888
H       -0.50673845      -1.85952075       0.60694565
H        1.14496549      -0.54051063      -1.42883520
H        0.86050725       0.34578882       1.38307469
H        1.71218496      -1.12106530       1.16588419
H        0.68104064       1.45700798      -0.44244718
