13
Frame=0 idx=004154 GeodesicLength=0.0 rxn_smarts="[C:1]([C@@:2]1([H:10])[C:3]([H:11])([H:12])[O:4][C:5]([H:13])=[N:6]1)([H:7])([H:8])[H:9]>>[C:1]([C@@:2]([C:3]([O:4][H:13])([H:11])[H:12])([N+:6]#[C-:5])[H:10])([H:7])([H:8])[H:9]"
C       -1.53070403      -0.63167744       0.20403586
C       -0.23649574      -0.19347064      -0.44293172
C        0.41375280       1.06579708       0.17584711
O        1.74746276       1.14590143      -0.13794024
C        1.94997347      -0.85475998      -0.17609709
N        0.83192426      -1.22423723      -0.31381144
H       -1.92746938      -1.52816967      -0.27149317
H       -2.27327255       0.16215106       0.10654902
H       -1.38352754      -0.83667868       1.26549065
H       -0.36943079      -0.06445504      -1.52060615
H        0.22909869       1.05108220       1.26435833
H       -0.11219212       1.93214461      -0.24568000
H        2.66088013      -0.02362769       0.09227882
13
Frame=1 idx=004154 GeodesicLength=0.0699597882391359 rxn_smarts="[C:1]([C@@:2]1([H:10])[C:3]([H:11])([H:12])[O:4][C:5]([H:13])=[N:6]1)([H:7])([H:8])[H:9]>>[C:1]([C@@:2]([C:3]([O:4][H:13])([H:11])[H:12])([N+:6]#[C-:5])[H:10])([H:7])([H:8])[H:9]"
C       -1.53056210      -0.63253259       0.20395365
C       -0.23726406      -0.19261423      -0.44454212
C        0.41095794       1.06570125       0.17679787
O        1.74929867       1.13633934      -0.13098684
C        1.94745124      -0.86490723      -0.16056718
N        0.82769108      -1.22387889      -0.31996928
H       -1.92610061      -1.52965175      -0.27144777
H       -2.27475404       0.15996609       0.10785240
H       -1.38194071      -0.83852766       1.26505428
H       -0.37328707      -0.05958712      -1.52131597
H        0.22386022       1.05565697       1.26433170
H       -0.10641201       1.93476316      -0.24840254
H        2.67106145      -0.01072734       0.07924179
13
Frame=2 idx=004154 GeodesicLength=0.13993934458003715 rxn_smarts="[C:1]([C@@:2]1([H:10])[C:3]([H:11])([H:12])[O:4][C:5]([H:13])=[N:6]1)([H:7])([H:8])[H:9]>>[C:1]([C@@:2]([C:3]([O:4][H:13])([H:11])[H:12])([N+:6]#[C-:5])[H:10])([H:7])([H:8])[H:9]"
C       -1.53038613      -0.63342041       0.20382093
C       -0.23797037      -0.19172098      -0.44608967
C        0.40813423       1.06567680       0.17785132
O        1.75111354       1.12674181      -0.12351617
C        1.94456624      -0.87509093      -0.14419568
N        0.82363251      -1.22338545      -0.32601959
H       -1.92458806      -1.53119316      -0.27149005
H       -2.27622645       0.15770956       0.10904555
H       -1.38036460      -0.84040874       1.26457149
H       -0.37699505      -0.05467151      -1.52194906
H        0.21838274       1.06039491       1.26434781
H       -0.10047424       1.93739757      -0.25114091
H        2.68117564       0.00197052       0.06476404
13
Frame=3 idx=004154 GeodesicLength=0.20994611106430539 rxn_smarts="[C:1]([C@@:2]1([H:10])[C:3]([H:11])([H:12])[O:4][C:5]([H:13])=[N:6]1)([H:7])([H:8])[H:9]>>[C:1]([C@@:2]([C:3]([O:4][H:13])([H:11])[H:12])([N+:6]#[C-:5])[H:10])([H:7])([H:8])[H:9]"
C       -1.53017313      -0.63434082       0.20363347
C       -0.23859805      -0.19079375      -0.44755442
C        0.40528560       1.06572576       0.17902697
O        1.75292325       1.11710333      -0.11542696
C        1.94131947      -0.88528415      -0.12708664
N        0.81976911      -1.22275213      -0.33188137
H       -1.92290589      -1.53280950      -0.27160999
H       -2.27768961       0.15537212       0.11008406
H       -1.37882888      -0.84229342       1.26404731
H       -0.38051548      -0.04972231      -1.52248887
H        0.21263331       1.06530651       1.26441595
H       -0.09434737       1.94004525      -0.25389819
H        2.69112767       0.01444311       0.04873866
13
Frame=4 idx=004154 GeodesicLength=0.2799661978029062 rxn_smarts="[C:1]([C@@:2]1([H:10])[C:3]([H:11])([H:12])[O:4][C:5]([H:13])=[N:6]1)([H:7])([H:8])[H:9]>>[C:1]([C@@:2]([C:3]([O:4][H:13])([H:11])[H:12])([N+:6]#[C-:5])[H:10])([H:7])([H:8])[H:9]"
C       -1.52991555      -0.63529020       0.20339139
C       -0.23913108      -0.18984075      -0.44892602
C        0.40241947       1.06584753       0.18033419
O        1.75474325       1.10741470      -0.10664079
C        1.93774196      -0.89546842      -0.10939719
N        0.81612120      -1.22198629      -0.33748919
H       -1.92103883      -1.53450691      -0.27179765
H       -2.27913719       0.15295666       0.11094273
H       -1.37734225      -0.84415783       1.26349114
H       -0.38382282      -0.04476163      -1.52293184
H        0.20659970       1.07039902       1.26454158
H       -0.08800294       1.94270293      -0.25668386
H        2.70076507       0.02669119       0.03116551
13
Frame=5 idx=004154 GeodesicLength=0.34996075396023335 rxn_smarts="[C:1]([C@@:2]1([H:10])[C:3]([H:11])([H:12])[O:4][C:5]([H:13])=[N:6]1)([H:7])([H:8])[H:9]>>[C:1]([C@@:2]([C:3]([O:4][H:13])([H:11])[H:12])([N+:6]#[C-:5])[H:10])([H:7])([H:8])[H:9]"
C       -1.52960915      -0.63626636       0.20309786
C       -0.23955727      -0.18886870      -0.45019028
C        0.39954516       1.06603924       0.18177412
O        1.75658090       1.09767338      -0.09710189
C        1.93385475      -0.90560617      -0.09135351
N        0.81269137      -1.22109574      -0.34276364
H       -1.91897404      -1.53629291      -0.27203224
H       -2.28056063       0.15046103       0.11159465
H       -1.37592476      -0.84597869       1.26291149
H       -0.38689264      -0.03980973      -1.52326432
H        0.20027421       1.07566990       1.26471407
H       -0.08140731       1.94536297      -0.25950576
H        2.70997940       0.03871179       0.01211945
13
Frame=6 idx=004154 GeodesicLength=0.4200086253709803 rxn_smarts="[C:1]([C@@:2]1([H:10])[C:3]([H:11])([H:12])[O:4][C:5]([H:13])=[N:6]1)([H:7])([H:8])[H:9]>>[C:1]([C@@:2]([C:3]([O:4][H:13])([H:11])[H:12])([N+:6]#[C-:5])[H:10])([H:7])([H:8])[H:9]"
C       -1.52923716      -0.63726439       0.20278688
C       -0.23988586      -0.18788948      -0.45138294
C        0.39669002       1.06628682       0.18327724
O        1.75845374       1.08784921      -0.08691149
C        1.92973757      -0.91570738      -0.07337988
N        0.80946763      -1.22010106      -0.34776388
H       -1.91673916      -1.53814603      -0.27227375
H       -2.28194076       0.14790195       0.11212961
H       -1.37450920      -0.84776161       1.26233293
H       -0.38979544      -0.03488488      -1.52351651
H        0.19373169       1.08110634       1.26487217
H       -0.07453699       1.94801004      -0.26241351
H        2.71856392       0.05060046      -0.00775688
13
Frame=7 idx=004154 GeodesicLength=0.49006127715147013 rxn_smarts="[C:1]([C@@:2]1([H:10])[C:3]([H:11])([H:12])[O:4][C:5]([H:13])=[N:6]1)([H:7])([H:8])[H:9]>>[C:1]([C@@:2]([C:3]([O:4][H:13])([H:11])[H:12])([N+:6]#[C-:5])[H:10])([H:7])([H:8])[H:9]"
C       -1.52879741      -0.63828104       0.20247130
C       -0.24012717      -0.18690784      -0.45251897
C        0.39386539       1.06658151       0.18481504
O        1.76035220       1.07792659      -0.07612893
C        1.92541784      -0.92578346      -0.05568261
N        0.80642486      -1.21902571      -0.35250777
H       -1.91434228      -1.54006836      -0.27249287
H       -2.28327467       0.14528678       0.11256390
H       -1.37308004      -0.84949455       1.26177232
H       -0.39256598      -0.02999137      -1.52370372
H        0.18701275       1.08669172       1.26498956
H       -0.06737924       1.95064220      -0.26541232
H        2.72649373       0.06242354      -0.02816493
13
Frame=8 idx=004154 GeodesicLength=0.5600328465500425 rxn_smarts="[C:1]([C@@:2]1([H:10])[C:3]([H:11])([H:12])[O:4][C:5]([H:13])=[N:6]1)([H:7])([H:8])[H:9]>>[C:1]([C@@:2]([C:3]([O:4][H:13])([H:11])[H:12])([N+:6]#[C-:5])[H:10])([H:7])([H:8])[H:9]"
C       -1.52829297      -0.63931290       0.20215984
C       -0.24029056      -0.18593064      -0.45361053
C        0.39108534       1.06691045       0.18636458
O        1.76226891       1.06788745      -0.06481269
C        1.92091711      -0.93584936      -0.03837035
N        0.80353524      -1.21788786      -0.35702409
H       -1.91180906      -1.54204886      -0.27267811
H       -2.28455832       0.14262218       0.11292505
H       -1.37162407      -0.85117806       1.26123230
H       -0.39523092      -0.02513815      -1.52383350
H        0.18015867       1.09241133       1.26504093
H       -0.05991618       1.95324264      -0.26850301
H        2.73375682       0.07427178      -0.04889043
13
Frame=9 idx=004154 GeodesicLength=0.6301006336584436 rxn_smarts="[C:1]([C@@:2]1([H:10])[C:3]([H:11])([H:12])[O:4][C:5]([H:13])=[N:6]1)([H:7])([H:8])[H:9]>>[C:1]([C@@:2]([C:3]([O:4][H:13])([H:11])[H:12])([N+:6]#[C-:5])[H:10])([H:7])([H:8])[H:9]"
C       -1.52772101      -0.64035236       0.20187899
C       -0.24040604      -0.18496148      -0.45470022
C        0.38836601       1.06725131       0.18785822
O        1.76418962       1.05768379      -0.05314020
C        1.91624817      -0.94598033      -0.02162494
N        0.80075866      -1.21670859      -0.36143234
H       -1.90917458      -1.54406435      -0.27279139
H       -2.28578835       0.13992664       0.11329333
H       -1.37007835      -0.85282387       1.26072660
H       -0.39788201      -0.02031541      -1.52393801
H        0.17325812       1.09822708       1.26497077
H       -0.05215399       1.95579883      -0.27170479
H        2.74038375       0.08631875      -0.06939603
13
Frame=10 idx=004154 GeodesicLength=0.7001921938248266 rxn_smarts="[C:1]([C@@:2]1([H:10])[C:3]([H:11])([H:12])[O:4][C:5]([H:13])=[N:6]1)([H:7])([H:8])[H:9]>>[C:1]([C@@:2]([C:3]([O:4][H:13])([H:11])[H:12])([N+:6]#[C-:5])[H:10])([H:7])([H:8])[H:9]"
C       -1.52709487      -0.64139757       0.20162229
C       -0.24047536      -0.18400824      -0.45578511
C        0.38571225       1.06759390       0.18930712
O        1.76610403       1.04729813      -0.04111361
C        1.91140377      -0.95620941      -0.00536709
N        0.79807748      -1.21550861      -0.36572960
H       -1.90645937      -1.54611022      -0.27284598
H       -2.28696663       0.13721183       0.11366048
H       -1.36846635      -0.85443233       1.26025158
H       -0.40050836      -0.01553030      -1.52401771
H        0.16631548       1.10413091       1.26478854
H       -0.04407658       1.95830011      -0.27499872
H        2.74643450       0.09866179      -0.08977218
13
Frame=11 idx=004154 GeodesicLength=0.7702718241014284 rxn_smarts="[C:1]([C@@:2]1([H:10])[C:3]([H:11])([H:12])[O:4][C:5]([H:13])=[N:6]1)([H:7])([H:8])[H:9]>>[C:1]([C@@:2]([C:3]([O:4][H:13])([H:11])[H:12])([N+:6]#[C-:5])[H:10])([H:7])([H:8])[H:9]"
C       -1.52642351      -0.64244432       0.20138265
C       -0.24049816      -0.18307636      -0.45686016
C        0.38312981       1.06792533       0.19072323
O        1.76800589       1.03670339      -0.02871506
C        1.90637498      -0.96657452       0.01048392
N        0.79547908      -1.21430357      -0.36991070
H       -1.90367304      -1.54818149      -0.27284785
H       -2.28809700       0.13448484       0.11400932
H       -1.36680756      -0.85599667       1.25980178
H       -0.40309804      -0.01078411      -1.52406811
H        0.15932856       1.11011376       1.26449989
H       -0.03566307       1.96073299      -0.27836895
H        2.75194205       0.11140073      -0.11012997
13
Frame=12 idx=004154 GeodesicLength=0.8403829051929957 rxn_smarts="[C:1]([C@@:2]1([H:10])[C:3]([H:11])([H:12])[O:4][C:5]([H:13])=[N:6]1)([H:7])([H:8])[H:9]>>[C:1]([C@@:2]([C:3]([O:4][H:13])([H:11])[H:12])([N+:6]#[C-:5])[H:10])([H:7])([H:8])[H:9]"
C       -1.52571347      -0.64348767       0.20116223
C       -0.24048311      -0.18217325      -0.45793614
C        0.38062793       1.06823080       0.19209421
O        1.76988563       1.02586707      -0.01599912
C        1.90114711      -0.97712566       0.02595805
N        0.79294674      -1.21311096      -0.37401295
H       -1.90083797      -1.55026651      -0.27279519
H       -2.28917879       0.13176048       0.11435503
H       -1.36509678      -0.85751727       1.25937693
H       -0.40566954      -0.00608056      -1.52409847
H        0.15233261       1.11615646       1.26409567
H       -0.02690891       1.96308347      -0.28180511
H        2.75694855       0.12466359      -0.13039514
13
Frame=13 idx=004154 GeodesicLength=0.9105075318719376 rxn_smarts="[C:1]([C@@:2]1([H:10])[C:3]([H:11])([H:12])[O:4][C:5]([H:13])=[N:6]1)([H:7])([H:8])[H:9]>>[C:1]([C@@:2]([C:3]([O:4][H:13])([H:11])[H:12])([N+:6]#[C-:5])[H:10])([H:7])([H:8])[H:9]"
C       -1.52496938      -0.64452408       0.20096229
C       -0.24043649      -0.18130398      -0.45902053
C        0.37821532       1.06849725       0.19340928
O        1.77173188       1.01476221      -0.00301365
C        1.89569491      -0.98790336       0.04109478
N        0.79046491      -1.21194146      -0.37806398
H       -1.89797054      -1.55235549      -0.27268523
H       -2.29020811       0.12904914       0.11470789
H       -1.36333200      -0.85899553       1.25897494
H       -0.40823320      -0.00142104      -1.52411344
H        0.14535739       1.12223916       1.26356514
H       -0.01780755       1.96533816      -0.28529572
H        2.76149286       0.13855902      -0.15052176
13
Frame=14 idx=004154 GeodesicLength=0.9806543081181056 rxn_smarts="[C:1]([C@@:2]1([H:10])[C:3]([H:11])([H:12])[O:4][C:5]([H:13])=[N:6]1)([H:7])([H:8])[H:9]>>[C:1]([C@@:2]([C:3]([O:4][H:13])([H:11])[H:12])([N+:6]#[C-:5])[H:10])([H:7])([H:8])[H:9]"
C       -1.52419910      -0.64554818       0.20077880
C       -0.24035826      -0.18047863      -0.46011445
C        0.37590298       1.06871119       0.19467078
O        1.77354340       1.00335593       0.01022339
C        1.89000251      -0.99895185       0.05595908
N        0.78802804      -1.21081435      -0.38207073
H       -1.89508856      -1.55443870      -0.27252605
H       -2.29118479       0.12636715       0.11506427
H       -1.36152314      -0.86042789       1.25859310
H       -0.41078435       0.00318402      -1.52411647
H        0.13842699       1.12834770       1.26291303
H       -0.00834866       1.96748226      -0.28882578
H        2.76558294       0.15321134      -0.17054898
13
Frame=15 idx=004154 GeodesicLength=1.0508106310880627 rxn_smarts="[C:1]([C@@:2]1([H:10])[C:3]([H:11])([H:12])[O:4][C:5]([H:13])=[N:6]1)([H:7])([H:8])[H:9]>>[C:1]([C@@:2]([C:3]([O:4][H:13])([H:11])[H:12])([N+:6]#[C-:5])[H:10])([H:7])([H:8])[H:9]"
C       -1.52340923      -0.64655480       0.20060654
C       -0.24024619      -0.17970600      -0.46121515
C        0.37370222       1.06885869       0.19588289
O        1.77531641       0.99161820       0.02369836
C        1.88404552      -1.01030986       0.07061661
N        0.78562960      -1.20974523      -0.38602788
H       -1.89220458      -1.55650734      -0.27232376
H       -2.29210561       0.12372811       0.11541283
H       -1.35968539      -0.86180918       1.25822692
H       -0.41330987       0.00772510      -1.52410597
H        0.13156286       1.13446428       1.26214249
H        0.00148034       1.96950020      -0.29237655
H        2.76922390       0.16873782      -0.19053734
13
Frame=16 idx=004154 GeodesicLength=1.120974707171357 rxn_smarts="[C:1]([C@@:2]1([H:10])[C:3]([H:11])([H:12])[O:4][C:5]([H:13])=[N:6]1)([H:7])([H:8])[H:9]>>[C:1]([C@@:2]([C:3]([O:4][H:13])([H:11])[H:12])([N+:6]#[C-:5])[H:10])([H:7])([H:8])[H:9]"
C       -1.52260610      -0.64753807       0.20044034
C       -0.24009643      -0.17899681      -0.46232047
C        0.37162736       1.06892453       0.19704968
O        1.77705185       0.97951425       0.03739649
C        1.87779956      -1.02201890       0.08513188
N        0.78326583      -1.20875254      -0.38993040
H       -1.88933244      -1.55855173      -0.27208533
H       -2.29296675       0.12114805       0.11574292
H       -1.35783322      -0.86313349       1.25787257
H       -0.41579541       0.01219028      -1.52408188
H        0.12479067       1.14057130       1.26125831
H        0.01169429       1.97137461      -0.29593076
H        2.77240078       0.18526852      -0.21054335
