12
Frame=0 idx=005626 GeodesicLength=0.0 rxn_smarts="[C:1]1([H:7])([H:8])[C@@:2]2([H:9])[C@@:3]3([H:10])[O:4][C@:5]1([H:11])[C@@:6]23[H:12]>>[C:1]1([H:7])([H:8])[C:2][C@@:6]2([H:12])[C:3]([H:9])([H:10])[O:4][C@@:5]12[H:11]"
C        1.20521624      -0.38678628      -0.36363981
C        0.81276826       1.01086078       0.14751154
C       -1.05357528       0.69387464      -0.28156801
O       -1.13740945      -0.60857601      -0.78398896
C       -0.10346552      -0.99671262       0.15063212
C       -0.28401823       0.32231751       0.95209752
H        2.02294043      -0.66834548       0.30601711
H        1.50098817      -0.54606752      -1.40138982
H       -0.22640012       1.35904880      -0.86184308
H       -1.93506393       1.32693143      -0.30007485
H       -0.20339127      -2.03202172       0.46908661
H       -0.59858929       0.52547646       1.96715967
12
Frame=1 idx=005626 GeodesicLength=0.0514460303848636 rxn_smarts="[C:1]1([H:7])([H:8])[C@@:2]2([H:9])[C@@:3]3([H:10])[O:4][C@:5]1([H:11])[C@@:6]23[H:12]>>[C:1]1([H:7])([H:8])[C:2][C@@:6]2([H:12])[C:3]([H:9])([H:10])[O:4][C@@:5]12[H:11]"
C        1.20652368      -0.38987875      -0.36313583
C        0.80871716       1.00645081       0.14209013
C       -1.05310486       0.69458621      -0.28317532
O       -1.13641765      -0.60951137      -0.78559942
C       -0.10405924      -0.99747860       0.14995954
C       -0.28431724       0.32136429       0.95203724
H        2.02378063      -0.66905818       0.30834246
H        1.50386865      -0.55186317      -1.40004330
H       -0.22294365       1.38109656      -0.86416046
H       -1.94075240       1.31911767      -0.29375978
H       -0.20388882      -2.03213811       0.47050313
H       -0.59740626       0.52731263       1.96694161
12
Frame=2 idx=005626 GeodesicLength=0.10289115589217966 rxn_smarts="[C:1]1([H:7])([H:8])[C@@:2]2([H:9])[C@@:3]3([H:10])[O:4][C@:5]1([H:11])[C@@:6]23[H:12]>>[C:1]1([H:7])([H:8])[C:2][C@@:6]2([H:12])[C:3]([H:9])([H:10])[O:4][C@@:5]12[H:11]"
C        1.20779330      -0.39301142      -0.36266559
C        0.80458257       1.00200180       0.13651158
C       -1.05268491       0.69520739      -0.28484910
O       -1.13547212      -0.61058447      -0.78716940
C       -0.10465685      -0.99830516       0.14931244
C       -0.28462198       0.32039702       0.95193033
H        2.02461445      -0.66970120       0.31062566
H        1.50667035      -0.55773648      -1.39872644
H       -0.21938312       1.40359811      -0.86595097
H       -1.94630003       1.31121437      -0.28768394
H       -0.20435053      -2.03229550       0.47200381
H       -0.59619112       0.52921554       1.96666162
12
Frame=3 idx=005626 GeodesicLength=0.1543350323236425 rxn_smarts="[C:1]1([H:7])([H:8])[C@@:2]2([H:9])[C@@:3]3([H:10])[O:4][C@:5]1([H:11])[C@@:6]23[H:12]>>[C:1]1([H:7])([H:8])[C:2][C@@:6]2([H:12])[C:3]([H:9])([H:10])[O:4][C@@:5]12[H:11]"
C        1.20902422      -0.39618552      -0.36223214
C        0.80036202       0.99751215       0.13076758
C       -1.05231781       0.69573233      -0.28659691
O       -1.13457669      -0.61180498      -0.78869605
C       -0.10525769      -0.99919421       0.14869207
C       -0.28493293       0.31941802       0.95177106
H        2.02544250      -0.67027049       0.31286294
H        1.50939151      -0.56369319      -1.39744169
H       -0.21570830       1.42656335      -0.86717932
H       -1.95171016       1.30322585      -0.28185602
H       -0.20477222      -2.03249381       0.47359600
H       -0.59494444       0.53119049       1.96631248
12
Frame=4 idx=005626 GeodesicLength=0.20577782059505367 rxn_smarts="[C:1]1([H:7])([H:8])[C@@:2]2([H:9])[C@@:3]3([H:10])[O:4][C@:5]1([H:11])[C@@:6]23[H:12]>>[C:1]1([H:7])([H:8])[C:2][C@@:6]2([H:12])[C:3]([H:9])([H:10])[O:4][C@@:5]12[H:11]"
C        1.21021584      -0.39940264      -0.36183871
C        0.79605272       0.99298062       0.12484927
C       -1.05200651       0.69615537      -0.28842721
O       -1.13373556      -0.61318313      -0.79017724
C       -0.10586078      -1.00014797       0.14809949
C       -0.28525061       0.31843020       0.95155355
H        2.02626601      -0.67076207       0.31505086
H        1.51203070      -0.56974030      -1.39619191
H       -0.21190882       1.45000246      -0.86780780
H       -1.95698736       1.29515698      -0.27628472
H       -0.20514902      -2.03273349       0.47528721
H       -0.59366662       0.53324397       1.96588720
12
Frame=5 idx=005626 GeodesicLength=0.2572196016080658 rxn_smarts="[C:1]1([H:7])([H:8])[C@@:2]2([H:9])[C@@:3]3([H:10])[O:4][C@:5]1([H:11])[C@@:6]23[H:12]>>[C:1]1([H:7])([H:8])[C:2][C@@:6]2([H:12])[C:3]([H:9])([H:10])[O:4][C@@:5]12[H:11]"
C        1.21136624      -0.40266259      -0.36148876
C        0.79165214       0.98840483       0.11874619
C       -1.05175211       0.69646926      -0.29034778
O       -1.13295255      -0.61472865      -0.79160774
C       -0.10646635      -1.00116705       0.14753653
C       -0.28557561       0.31743551       0.95127032
H        2.02708369      -0.67116943       0.31718380
H        1.51458507      -0.57588219      -1.39497861
H       -0.20797038       1.47392271      -0.86779611
H       -1.96213345       1.28700875      -0.27097945
H       -0.20547849      -2.03301179       0.47708606
H       -0.59235820       0.53538064       1.96537555
12
Frame=6 idx=005626 GeodesicLength=0.3086542101972692 rxn_smarts="[C:1]1([H:7])([H:8])[C@@:2]2([H:9])[C@@:3]3([H:10])[O:4][C@:5]1([H:11])[C@@:6]23[H:12]>>[C:1]1([H:7])([H:8])[C:2][C@@:6]2([H:12])[C:3]([H:9])([H:10])[O:4][C@@:5]12[H:11]"
C        1.21247461      -0.40596682      -0.36118592
C        0.78715557       0.98378539       0.11245071
C       -1.05155937       0.69666845      -0.29236717
O       -1.13223478      -0.61645453      -0.79298356
C       -0.10707182      -1.00225496       0.14700504
C       -0.28590831       0.31643806       0.95091721
H        2.02789923      -0.67148622       0.31925731
H        1.51705100      -0.58212552      -1.39380647
H       -0.20388152       1.49832539      -0.86710551
H       -1.96714998       1.27879628      -0.26595228
H       -0.20575119      -2.03333238       0.47899851
H       -0.59102344       0.53760686       1.96477214
12
Frame=7 idx=005626 GeodesicLength=0.3600857677935438 rxn_smarts="[C:1]1([H:7])([H:8])[C@@:2]2([H:9])[C@@:3]3([H:10])[O:4][C@:5]1([H:11])[C@@:6]23[H:12]>>[C:1]1([H:7])([H:8])[C:2][C@@:6]2([H:12])[C:3]([H:9])([H:10])[O:4][C@@:5]12[H:11]"
C        1.21353951      -0.40931598      -0.36093477
C        0.78256015       0.97911784       0.10594817
C       -1.05142910       0.69674524      -0.29449610
O       -1.13158335      -0.61836931      -0.79430216
C       -0.10767802      -1.00341074       0.14650569
C       -0.28625042       0.31544073       0.95048368
H        2.02870951      -0.67170726       0.32126582
H        1.51942890      -0.58847844      -1.39267675
H       -0.19962590       1.52322248      -0.86568514
H       -1.97204408       1.27051184      -0.26120845
H       -0.20596655      -2.03368788       0.48103602
H       -0.58966063       0.53993148       1.96406400
12
Frame=8 idx=005626 GeodesicLength=0.41151604450975415 rxn_smarts="[C:1]1([H:7])([H:8])[C@@:2]2([H:9])[C@@:3]3([H:10])[O:4][C@:5]1([H:11])[C@@:6]23[H:12]>>[C:1]1([H:7])([H:8])[C:2][C@@:6]2([H:12])[C:3]([H:9])([H:10])[O:4][C@@:5]12[H:11]"
C        1.21456015      -0.41271131      -0.36073912
C        0.77786223       0.97440336       0.09922784
C       -1.05136581       0.69669464      -0.29674602
O       -1.13100487      -0.62048578      -0.79556222
C       -0.10828366      -1.00463790       0.14603965
C       -0.28660184       0.31444829       0.94996299
H        2.02951706      -0.67182712       0.32320588
H        1.52171579      -0.59494962      -1.39159310
H       -0.19518925       1.54862159      -0.86348670
H       -1.97682329       1.26216088      -0.25676012
H       -0.20611824      -2.03408123       0.48320751
H       -0.58826827       0.54236420       1.96324342
12
Frame=9 idx=005626 GeodesicLength=0.462943687062632 rxn_smarts="[C:1]1([H:7])([H:8])[C@@:2]2([H:9])[C@@:3]3([H:10])[O:4][C@:5]1([H:11])[C@@:6]23[H:12]>>[C:1]1([H:7])([H:8])[C:2][C@@:6]2([H:12])[C:3]([H:9])([H:10])[O:4][C@@:5]12[H:11]"
C        1.21553474      -0.41615282      -0.36060378
C        0.77305705       0.96964010       0.09227608
C       -1.05137248       0.69650934      -0.29912771
O       -1.13050391      -0.62281527      -0.79675938
C       -0.10888814      -1.00593688       0.14560834
C       -0.28696383       0.31346499       0.94934623
H        2.03032127      -0.67183762       0.32507112
H        1.52390940      -0.60154674      -1.39055829
H       -0.19055312       1.57452444      -0.86045764
H       -1.98149210       1.25374546      -0.25261671
H       -0.20620141      -2.03450878       0.48552278
H       -0.58684747       0.54491378       1.96229896
12
Frame=10 idx=005626 GeodesicLength=0.5143685022199013 rxn_smarts="[C:1]1([H:7])([H:8])[C@@:2]2([H:9])[C@@:3]3([H:10])[O:4][C@:5]1([H:11])[C@@:6]23[H:12]>>[C:1]1([H:7])([H:8])[C:2][C@@:6]2([H:12])[C:3]([H:9])([H:10])[O:4][C@@:5]12[H:11]"
C        1.21646152      -0.41964039      -0.36053374
C        0.76813943       0.96482717       0.08507897
C       -1.05145294       0.69618231      -0.30165273
O       -1.13008603      -0.62536999      -0.79788953
C       -0.10949069      -1.00730863       0.14521326
C       -0.28733751       0.31249566       0.94862452
H        2.03112226      -0.67173020       0.32685520
H        1.52600687      -0.60827765      -1.38957557
H       -0.18569758       1.60093109      -0.85654287
H       -1.98605609       1.24526864      -0.24878902
H       -0.20621033      -2.03496798       0.48799208
H       -0.58539890       0.54758997       1.96121943
12
Frame=11 idx=005626 GeodesicLength=0.565790376162876 rxn_smarts="[C:1]1([H:7])([H:8])[C@@:2]2([H:9])[C@@:3]3([H:10])[O:4][C@:5]1([H:11])[C@@:6]23[H:12]>>[C:1]1([H:7])([H:8])[C:2][C@@:6]2([H:12])[C:3]([H:9])([H:10])[O:4][C@@:5]12[H:11]"
C        1.21733851      -0.42317342      -0.36053427
C        0.76310355       0.95996395       0.07762170
C       -1.05161160       0.69570639      -0.30433303
O       -1.12975716      -0.62816232      -0.79894836
C       -0.11009052      -1.00875382       0.14485587
C       -0.28772417       0.31154562       0.94778853
H        2.03192006      -0.67149518       0.32855134
H        1.52800522      -0.61515038      -1.38864825
H       -0.18060032       1.62783835      -0.85168459
H       -1.99052140       1.23673343      -0.24528801
H       -0.20613902      -2.03545571       0.49062597
H       -0.58392315       0.55040309       1.95999310
12
Frame=12 idx=005626 GeodesicLength=0.6172092300530818 rxn_smarts="[C:1]1([H:7])([H:8])[C@@:2]2([H:9])[C@@:3]3([H:10])[O:4][C@:5]1([H:11])[C@@:6]23[H:12]>>[C:1]1([H:7])([H:8])[C:2][C@@:6]2([H:12])[C:3]([H:9])([H:10])[O:4][C@@:5]12[H:11]"
C        1.21816351      -0.42675064      -0.36061097
C        0.75794283       0.95505017       0.06988869
C       -1.05185348       0.69507433      -0.30718085
O       -1.12952361      -0.63120482      -0.79993120
C       -0.11068687      -1.01027274       0.14453764
C       -0.28812531       0.31062064       0.94682852
H        2.03271452      -0.67112169       0.33015225
H        1.52990126      -0.62217276      -1.38777966
H       -0.17523613       1.65523887      -0.84582279
H       -1.99489472       1.22814291      -0.24212461
H       -0.20598109      -2.03596825       0.49343525
H       -0.58242091       0.55336399       1.95860774
12
Frame=13 idx=005626 GeodesicLength=0.6686250476346707 rxn_smarts="[C:1]1([H:7])([H:8])[C@@:2]2([H:9])[C@@:3]3([H:10])[O:4][C@:5]1([H:11])[C@@:6]23[H:12]>>[C:1]1([H:7])([H:8])[C:2][C@@:6]2([H:12])[C:3]([H:9])([H:10])[O:4][C@@:5]12[H:11]"
C        1.21893405      -0.43037001      -0.36076971
C        0.75264983       0.95008599       0.06186360
C       -1.05218438       0.69427875      -0.31020862
O       -1.12939206      -0.63451007      -0.80083313
C       -0.11127899      -1.01186526       0.14425993
C       -0.28854267       0.30972696       0.94573435
H        2.03350529      -0.67059753       0.33165013
H        1.53169160      -0.62935245      -1.38697316
H       -0.16957646       1.68312068      -0.83889542
H       -1.99918348       1.21950009      -0.23930958
H       -0.20572983      -2.03650113       0.49643099
H       -0.58089291       0.55648398       1.95705062
12
Frame=14 idx=005626 GeodesicLength=0.7200378245122058 rxn_smarts="[C:1]1([H:7])([H:8])[C@@:2]2([H:9])[C@@:3]3([H:10])[O:4][C@:5]1([H:11])[C@@:6]23[H:12]>>[C:1]1([H:7])([H:8])[C:2][C@@:6]2([H:12])[C:3]([H:9])([H:10])[O:4][C@@:5]12[H:11]"
C        1.21964733      -0.43402849      -0.36101664
C        0.74721613       0.94507205       0.05352964
C       -1.05261104       0.69331221      -0.31342863
O       -1.12936967      -0.63809059      -0.80164872
C       -0.11186617      -1.01353070       0.14402410
C       -0.28897834       0.30887128       0.94449569
H        2.03429180      -0.66990887       0.33303658
H        1.53337262      -0.63669644      -1.38623207
H       -0.16358871       1.71146582      -0.83083962
H       -2.00339587       1.21080829      -0.23685334
H       -0.20537797      -2.03704912       0.49962423
H       -0.57934011       0.55977458       1.95530879
12
Frame=15 idx=005626 GeodesicLength=0.7714476670064658 rxn_smarts="[C:1]1([H:7])([H:8])[C@@:2]2([H:9])[C@@:3]3([H:10])[O:4][C@:5]1([H:11])[C@@:6]23[H:12]>>[C:1]1([H:7])([H:8])[C:2][C@@:6]2([H:12])[C:3]([H:9])([H:10])[O:4][C@@:5]12[H:11]"
C        1.22030017      -0.43772188      -0.36135815
C        0.74163219       0.94000959       0.04486963
C       -1.05314128       0.69216718      -0.31685296
O       -1.12946399      -0.64195869      -0.80237223
C       -0.11244773      -1.01526778       0.14383136
C       -0.28943482       0.30806075       0.94310197
H        2.03507317      -0.66904024       0.33430263
H        1.53494049      -0.64421100      -1.38555963
H       -0.15723563       1.74024999      -0.82159205
H       -2.00754112       1.20207077      -0.23476559
H       -0.20491779      -2.03760617       0.50302600
H       -0.57776367       0.56324748       1.95336902
12
Frame=16 idx=005626 GeodesicLength=0.8228548339997619 rxn_smarts="[C:1]1([H:7])([H:8])[C@@:2]2([H:9])[C@@:3]3([H:10])[O:4][C@:5]1([H:11])[C@@:6]23[H:12]>>[C:1]1([H:7])([H:8])[C:2][C@@:6]2([H:12])[C:3]([H:9])([H:10])[O:4][C@@:5]12[H:11]"
C        1.22088898      -0.44144457      -0.36180086
C        0.73588724       0.93490051       0.03586639
C       -1.05378420       0.69083607      -0.32049317
O       -1.12968300      -0.64612637      -0.80299740
C       -0.11302303      -1.01707456       0.14368287
C       -0.28991513       0.30730288       0.94154263
H        2.03584821      -0.66797433       0.33543860
H        1.53639106      -0.65190108      -1.38495901
H       -0.15047437       1.76944148      -0.81109009
H       -2.01162962       1.19329087      -0.23305515
H       -0.20434093      -2.03816532       0.50664714
H       -0.57616522       0.56691443       1.95121804
