10
Frame=0 idx=010297 GeodesicLength=0.0 rxn_smarts="[N:1](=[C:2]=[C:7]([C:6](=[O:5])[H:9])[H:10])[H:8].[N:3]#[N:4]>>[N:1]1([H:8])/[C:2](=[C:7](/[C:6](=[O:5])[H:9])[H:10])[N:4]=[N:3]1"
N        1.93107078       0.48990011      -0.08438723
C        0.60591350       0.28659267       0.05680943
N        1.08313509       2.16181052      -0.52290170
N        0.16206126       1.70901138       0.02319645
O       -2.17937287       0.29994162       0.89891779
C       -1.65978526      -0.65281804       0.36910465
C       -0.25427805      -0.74292551      -0.01992045
H        2.45363980      -0.32017279      -0.42166892
H       -2.25636074      -1.55377273       0.12770325
H        0.11397650      -1.67756723      -0.42685328
10
Frame=1 idx=010297 GeodesicLength=0.09198699587354962 rxn_smarts="[N:1](=[C:2]=[C:7]([C:6](=[O:5])[H:9])[H:10])[H:8].[N:3]#[N:4]>>[N:1]1([H:8])/[C:2](=[C:7](/[C:6](=[O:5])[H:9])[H:10])[N:4]=[N:3]1"
N        1.92817323       0.47914720      -0.04460762
C        0.60106652       0.27759164       0.05069621
N        1.11056373       2.16534667      -0.51131025
N        0.15625291       1.73051331      -0.00788162
O       -2.17858572       0.29735283       0.90101200
C       -1.66095765      -0.66119446       0.38033586
C       -0.25878712      -0.75090926      -0.02328592
H        2.45750300      -0.29356977      -0.45034755
H       -2.26353977      -1.55540244       0.12884363
H        0.10831086      -1.68887572      -0.42345473
10
Frame=2 idx=010297 GeodesicLength=0.18388473179794543 rxn_smarts="[N:1](=[C:2]=[C:7]([C:6](=[O:5])[H:9])[H:10])[H:8].[N:3]#[N:4]>>[N:1]1([H:8])/[C:2](=[C:7](/[C:6](=[O:5])[H:9])[H:10])[N:4]=[N:3]1"
N        1.92417024       0.46719154      -0.01131864
C        0.59690208       0.26760891       0.04491599
N        1.13641035       2.16865373      -0.49813589
N        0.15275991       1.75236597      -0.03562688
O       -2.17816185       0.29610938       0.90011929
C       -1.66290671      -0.66804177       0.38809273
C       -0.26371890      -0.75883456      -0.02804158
H        2.46240470      -0.26552309      -0.47415162
H       -2.26944704      -1.55946281       0.13615296
H        0.10158721      -1.70006730      -0.42200637
10
Frame=3 idx=010297 GeodesicLength=0.275800938618627 rxn_smarts="[N:1](=[C:2]=[C:7]([C:6](=[O:5])[H:9])[H:10])[H:8].[N:3]#[N:4]>>[N:1]1([H:8])/[C:2](=[C:7](/[C:6](=[O:5])[H:9])[H:10])[N:4]=[N:3]1"
N        1.91951051       0.45458521       0.01693729
C        0.59330728       0.25678169       0.03928468
N        1.16070518       2.17177060      -0.48408062
N        0.15082900       1.77466148      -0.06125595
O       -2.17780803       0.29572830       0.89755816
C       -1.66518116      -0.67403685       0.39415473
C       -0.26883276      -0.76694055      -0.03345652
H        2.46816309      -0.23654340      -0.49396160
H       -2.27476836      -1.56467492       0.14675722
H        0.09407526      -1.71133155      -0.42193739
10
Frame=4 idx=010297 GeodesicLength=0.3677814434158066 rxn_smarts="[N:1](=[C:2]=[C:7]([C:6](=[O:5])[H:9])[H:10])[H:8].[N:3]#[N:4]>>[N:1]1([H:8])/[C:2](=[C:7](/[C:6](=[O:5])[H:9])[H:10])[N:4]=[N:3]1"
N        1.91452707       0.44156019       0.04119977
C        0.59020855       0.24522450       0.03389572
N        1.18359756       2.17466088      -0.46950269
N        0.15021116       1.79761372      -0.08490653
O       -2.17770095       0.29616515       0.89321218
C       -1.66768359      -0.67939277       0.39897148
C       -0.27408416      -0.77520301      -0.03939231
H        2.47452792      -0.20706406      -0.51053459
H       -2.27945332      -1.57098699       0.16040939
H        0.08584978      -1.72257761      -0.42335242
10
Frame=5 idx=010297 GeodesicLength=0.4596885842979971 rxn_smarts="[N:1](=[C:2]=[C:7]([C:6](=[O:5])[H:9])[H:10])[H:8].[N:3]#[N:4]>>[N:1]1([H:8])/[C:2](=[C:7](/[C:6](=[O:5])[H:9])[H:10])[N:4]=[N:3]1"
N        1.90865714       0.42861669       0.06281344
C        0.58717959       0.23274294       0.02593579
N        1.20510458       2.17782887      -0.45390582
N        0.14974257       1.82077617      -0.11020036
O       -2.17570950       0.29636994       0.89118950
C       -1.66964132      -0.68482385       0.40475019
C       -0.27958166      -0.78413844      -0.04635061
H        2.48232462      -0.17679987      -0.52199154
H       -2.28489404      -1.57593115       0.17343255
H        0.07681801      -1.73464130      -0.42567315
10
Frame=6 idx=010297 GeodesicLength=0.5515790991333559 rxn_smarts="[N:1](=[C:2]=[C:7]([C:6](=[O:5])[H:9])[H:10])[H:8].[N:3]#[N:4]>>[N:1]1([H:8])/[C:2](=[C:7](/[C:6](=[O:5])[H:9])[H:10])[N:4]=[N:3]1"
N        1.90294644       0.41571525       0.08083419
C        0.58482997       0.21947333       0.01910281
N        1.22468975       2.18062714      -0.43854668
N        0.14989661       1.84438481      -0.13410934
O       -2.17347672       0.29672282       0.88904000
C       -1.67139404      -0.69017753       0.41069864
C       -0.28456575      -0.79374577      -0.05167246
H        2.48991073      -0.14601976      -0.53276372
H       -2.29084843      -1.57954457       0.18385122
H        0.06801144      -1.74743570      -0.42643466
10
Frame=7 idx=010297 GeodesicLength=0.6434924106957614 rxn_smarts="[N:1](=[C:2]=[C:7]([C:6](=[O:5])[H:9])[H:10])[H:8].[N:3]#[N:4]>>[N:1]1([H:8])/[C:2](=[C:7](/[C:6](=[O:5])[H:9])[H:10])[N:4]=[N:3]1"
N        1.89713870       0.40290402       0.09639630
C        0.58287843       0.20540075       0.01183236
N        1.24281879       2.18335827      -0.42289423
N        0.15057058       1.86865147      -0.15758059
O       -2.17063063       0.29730837       0.88698002
C       -1.67297915      -0.69533604       0.41655614
C       -0.28947614      -0.80387420      -0.05691746
H        2.49782244      -0.11494303      -0.54123192
H       -2.29697563      -1.58271143       0.19427651
H        0.05883260      -1.76075818      -0.42741712
10
Frame=8 idx=010297 GeodesicLength=0.7353725758062978 rxn_smarts="[N:1](=[C:2]=[C:7]([C:6](=[O:5])[H:9])[H:10])[H:8].[N:3]#[N:4]>>[N:1]1([H:8])/[C:2](=[C:7](/[C:6](=[O:5])[H:9])[H:10])[N:4]=[N:3]1"
N        1.89152476       0.39028386       0.10953079
C        0.58144320       0.19057138       0.00503242
N        1.25937110       2.18581543      -0.40774081
N        0.15182888       1.89373958      -0.17973509
O       -2.16749700       0.29810786       0.88457056
C       -1.67443312      -0.70032691       0.42223779
C       -0.29410487      -0.81452327      -0.06142069
H        2.50559503      -0.08381206      -0.54827899
H       -2.30321785      -1.58538418       0.20410288
H        0.04948986      -1.77447168      -0.42829887
10
Frame=9 idx=010297 GeodesicLength=0.8272768655250231 rxn_smarts="[N:1](=[C:2]=[C:7]([C:6](=[O:5])[H:9])[H:10])[H:8].[N:3]#[N:4]>>[N:1]1([H:8])/[C:2](=[C:7](/[C:6](=[O:5])[H:9])[H:10])[N:4]=[N:3]1"
N        1.88540700       0.37748906       0.12129331
C        0.58009190       0.17487468      -0.00415472
N        1.27524312       2.18869764      -0.39003235
N        0.15357810       1.91974202      -0.20306768
O       -2.16355699       0.29953323       0.88155824
C       -1.67574009      -0.70492226       0.42740753
C       -0.29924040      -0.82548514      -0.06778035
H        2.51393460      -0.05229304      -0.55232736
H       -2.30898111      -1.58880365       0.21745270
H        0.03926386      -1.78883253      -0.43034931
10
Frame=10 idx=010297 GeodesicLength=0.9191542531209285 rxn_smarts="[N:1](=[C:2]=[C:7]([C:6](=[O:5])[H:9])[H:10])[H:8].[N:3]#[N:4]>>[N:1]1([H:8])/[C:2](=[C:7](/[C:6](=[O:5])[H:9])[H:10])[N:4]=[N:3]1"
N        1.87952886       0.36483605       0.13097843
C        0.57924359       0.15834337      -0.01311228
N        1.28964681       2.19138422      -0.37223597
N        0.15585444       1.94673227      -0.22541765
O       -2.15929806       0.30124929       0.87796713
C       -1.67688494      -0.70934063       0.43237566
C       -0.30412573      -0.83701349      -0.07353407
H        2.52191494      -0.02066799      -0.55548731
H       -2.31480259      -1.59174485       0.23040336
H        0.02892267      -1.80377824      -0.43193730
10
Frame=11 idx=010297 GeodesicLength=1.0110403352694637 rxn_smarts="[N:1](=[C:2]=[C:7]([C:6](=[O:5])[H:9])[H:10])[H:8].[N:3]#[N:4]>>[N:1]1([H:8])/[C:2](=[C:7](/[C:6](=[O:5])[H:9])[H:10])[N:4]=[N:3]1"
N        1.87349945       0.35221086       0.13920749
C        0.57870511       0.14087676      -0.02338317
N        1.30283018       2.19410493      -0.35323733
N        0.15863352       1.97484798      -0.24783245
O       -2.15436334       0.30343938       0.87380957
C       -1.67781696      -0.71346228       0.43700679
C       -0.30914397      -0.84903433      -0.07999498
H        2.52998595       0.01117311      -0.55665080
H       -2.32037112      -1.59475024       0.24500256
H        0.01804119      -1.81940617      -0.43392769
10
Frame=12 idx=010297 GeodesicLength=1.102908273572847 rxn_smarts="[N:1](=[C:2]=[C:7]([C:6](=[O:5])[H:9])[H:10])[H:8].[N:3]#[N:4]>>[N:1]1([H:8])/[C:2](=[C:7](/[C:6](=[O:5])[H:9])[H:10])[N:4]=[N:3]1"
N        1.86764304       0.33969922       0.14572676
C        0.57863316       0.12248884      -0.03386383
N        1.31462071       2.19664622      -0.33386872
N        0.16195749       2.00423387      -0.26936589
O       -2.14902618       0.30600072       0.86883871
C       -1.67856150      -0.71735876       0.44130248
C       -0.31400948      -0.86162324      -0.08626071
H        2.53760562       0.04309367      -0.55688446
H       -2.32582415      -1.59747247       0.25992660
H        0.00696129      -1.83570807      -0.43555095
10
Frame=13 idx=010297 GeodesicLength=1.1947817369927392 rxn_smarts="[N:1](=[C:2]=[C:7]([C:6](=[O:5])[H:9])[H:10])[H:8].[N:3]#[N:4]>>[N:1]1([H:8])/[C:2](=[C:7](/[C:6](=[O:5])[H:9])[H:10])[N:4]=[N:3]1"
N        1.86160574       0.32727223       0.15089591
C        0.57893317       0.10298347      -0.04597405
N        1.32488117       2.19917978      -0.31311634
N        0.16566613       2.03485919      -0.29130477
O       -2.14256907       0.30894634       0.86385075
C       -1.67896475      -0.72097181       0.44536705
C       -0.31892014      -0.87489656      -0.09308034
H        2.54517736       0.07534625      -0.55531727
H       -2.33126802      -1.59969580       0.27560309
H       -0.00454159      -1.85302309      -0.43692403
10
Frame=14 idx=010297 GeodesicLength=1.2866556542486958 rxn_smarts="[N:1](=[C:2]=[C:7]([C:6](=[O:5])[H:9])[H:10])[H:8].[N:3]#[N:4]>>[N:1]1([H:8])/[C:2](=[C:7](/[C:6](=[O:5])[H:9])[H:10])[N:4]=[N:3]1"
N        1.85565687       0.31498791       0.15452325
C        0.57973484       0.08235929      -0.05880819
N        1.33347914       2.20152353      -0.29162089
N        0.16981538       2.06691398      -0.31283089
O       -2.13523099       0.31223755       0.85853882
C       -1.67906452      -0.72433397       0.44912754
C       -0.32365521      -0.88890253      -0.09979264
H        2.55223824       0.10777896      -0.55279799
H       -2.33677023      -1.60124666       0.29117415
H       -0.01620350      -1.87131806      -0.43751317
10
Frame=15 idx=010297 GeodesicLength=1.3785398190452793 rxn_smarts="[N:1](=[C:2]=[C:7]([C:6](=[O:5])[H:9])[H:10])[H:8].[N:3]#[N:4]>>[N:1]1([H:8])/[C:2](=[C:7](/[C:6](=[O:5])[H:9])[H:10])[N:4]=[N:3]1"
N        1.84968794       0.30285526       0.15672008
C        0.58105832       0.06047099      -0.07281191
N        1.34020996       2.20366529      -0.26913000
N        0.17436102       2.10047139      -0.33428345
O       -2.12664008       0.31587558       0.85327636
C       -1.67878887      -0.72740193       0.45255342
C       -0.32822988      -0.90373712      -0.10656107
H        2.55881924       0.14049824      -0.54913311
H       -2.34242993      -1.60191824       0.30652097
H       -0.02804772      -1.89077947      -0.43715128
10
Frame=16 idx=010297 GeodesicLength=1.4704517736789167 rxn_smarts="[N:1](=[C:2]=[C:7]([C:6](=[O:5])[H:9])[H:10])[H:8].[N:3]#[N:4]>>[N:1]1([H:8])/[C:2](=[C:7](/[C:6](=[O:5])[H:9])[H:10])[N:4]=[N:3]1"
N        1.84367537       0.29084214       0.15749599
C        0.58295848       0.03718237      -0.08811533
N        1.34484143       2.20554349      -0.24525439
N        0.17935162       2.13563292      -0.35590527
O       -2.11659619       0.31993984       0.84805967
C       -1.67808971      -0.73011306       0.45555409
C       -0.33262063      -0.91947298      -0.11342286
H        2.56478997       0.17357825      -0.54442062
H       -2.34823687      -1.60161862       0.32169319
H       -0.04007348      -1.91151434      -0.43568448
