15
Frame=0 idx=006071 GeodesicLength=0.0 rxn_smarts="[C:1]([C:2]([C:3]([C:4](=[O:5])[N:6]([H:14])[H:15])([H:12])[H:13])([H:10])[H:11])([H:7])([H:8])[H:9]>>[C:1]([C@@:2]1([H:11])[C:3]([H:12])([H:13])[C@:4]1([O:5][H:10])[N:6]([H:14])[H:15])([H:7])([H:8])[H:9]"
C        2.14671180       0.01447467      -0.50170793
C        0.65532604      -0.23973832      -0.59103306
C       -0.05999481      -0.39651121       0.73230534
C       -1.24500486       0.35791255       0.30292125
O       -1.17609651       1.63826278      -0.01199687
N       -2.44790390      -0.17771501       0.23552180
H        2.57068946       0.19976317      -1.49182021
H        2.71836217      -0.82100518      -0.06056409
H        2.37830708       0.90003912       0.10054309
H       -0.27333126       1.62646005      -0.43934563
H        0.40125303      -1.05986564      -1.26217200
H       -0.31249701      -1.39921169       1.11245539
H        0.44150019       0.16013533       1.52955705
H       -3.19307148       0.30373185      -0.23794277
H       -2.60424988      -1.10673251       0.58327868
15
Frame=1 idx=006071 GeodesicLength=0.09338725368007246 rxn_smarts="[C:1]([C:2]([C:3]([C:4](=[O:5])[N:6]([H:14])[H:15])([H:12])[H:13])([H:10])[H:11])([H:7])([H:8])[H:9]>>[C:1]([C@@:2]1([H:11])[C:3]([H:12])([H:13])[C@:4]1([O:5][H:10])[N:6]([H:14])[H:15])([H:7])([H:8])[H:9]"
C        2.14032076       0.02150632      -0.49930465
C        0.64855236      -0.23097442      -0.58713986
C       -0.05832883      -0.40394840       0.73943886
C       -1.23851509       0.35391343       0.29853252
O       -1.16374833       1.63333221      -0.01710173
N       -2.44251481      -0.18684766       0.21913827
H        2.56106884       0.21874570      -1.48844522
H        2.71098955      -0.82036861      -0.07113909
H        2.37182394       0.89941329       0.11367824
H       -0.24922098       1.61257390      -0.46476484
H        0.39587335      -1.04608110      -1.26503991
H       -0.30978548      -1.41177809       1.10302679
H        0.43833161       0.14925480       1.54144251
H       -3.18620319       0.29588709      -0.25528766
H       -2.61864370      -1.08462847       0.63296577
15
Frame=2 idx=006071 GeodesicLength=0.1867848475293417 rxn_smarts="[C:1]([C:2]([C:3]([C:4](=[O:5])[N:6]([H:14])[H:15])([H:12])[H:13])([H:10])[H:11])([H:7])([H:8])[H:9]>>[C:1]([C@@:2]1([H:11])[C:3]([H:12])([H:13])[C@:4]1([O:5][H:10])[N:6]([H:14])[H:15])([H:7])([H:8])[H:9]"
C        2.13387286       0.02831337      -0.49707405
C        0.64172317      -0.22251622      -0.58316522
C       -0.05659344      -0.41122668       0.74654708
C       -1.23214489       0.34982840       0.29445318
O       -1.15226940       1.62845540      -0.02128915
N       -2.43702860      -0.19685328       0.20442980
H        2.55132498       0.23713012      -1.48519944
H        2.70356729      -0.81962530      -0.08171124
H        2.36533856       0.89866703       0.12620556
H       -0.22544734       1.59899887      -0.48926322
H        0.39034084      -1.03270907      -1.26756273
H       -0.30669317      -1.42386667       1.09396693
H        0.43530117       0.13866973       1.55311126
H       -3.17861298       0.28641261      -0.27292340
H       -2.63267905      -1.05967831       0.67947466
15
Frame=3 idx=006071 GeodesicLength=0.28021154332795284 rxn_smarts="[C:1]([C:2]([C:3]([C:4](=[O:5])[N:6]([H:14])[H:15])([H:12])[H:13])([H:10])[H:11])([H:7])([H:8])[H:9]>>[C:1]([C@@:2]1([H:11])[C:3]([H:12])([H:13])[C@:4]1([O:5][H:10])[N:6]([H:14])[H:15])([H:7])([H:8])[H:9]"
C        2.12713015       0.03475876      -0.49523421
C        0.63452939      -0.21423400      -0.57890549
C       -0.05472814      -0.41810437       0.75404587
C       -1.22584107       0.34607972       0.29141188
O       -1.14150938       1.62402127      -0.02397409
N       -2.43162505      -0.20683950       0.19249816
H        2.54097005       0.25473243      -1.48242332
H        2.69582167      -0.81903010      -0.09267131
H        2.35895992       0.89761928       0.13786387
H       -0.20194209       1.58595856      -0.51253834
H        0.38400772      -1.01958198      -1.26946772
H       -0.30322728      -1.43520379       1.08578535
H        0.43279926       0.12855633       1.56483409
H       -3.16936925       0.27430869      -0.29300821
H       -2.64597588      -1.03304131       0.72178346
15
Frame=4 idx=006071 GeodesicLength=0.37366966788810624 rxn_smarts="[C:1]([C:2]([C:3]([C:4](=[O:5])[N:6]([H:14])[H:15])([H:12])[H:13])([H:10])[H:11])([H:7])([H:8])[H:9]>>[C:1]([C@@:2]1([H:11])[C:3]([H:12])([H:13])[C@:4]1([O:5][H:10])[N:6]([H:14])[H:15])([H:7])([H:8])[H:9]"
C        2.12021276       0.04087258      -0.49366574
C        0.62711035      -0.20611382      -0.57443558
C       -0.05277272      -0.42460282       0.76176266
C       -1.21961508       0.34260077       0.28908176
O       -1.13144192       1.61995817      -0.02544201
N       -2.42631529      -0.21680303       0.18280621
H        2.53027354       0.27157148      -1.47994134
H        2.68782123      -0.81853900      -0.10381026
H        2.35269828       0.89631589       0.14879052
H       -0.17866384       1.57334293      -0.53497608
H        0.37713300      -1.00668411      -1.27086167
H       -0.29942425      -1.44582638       1.07828668
H        0.43066105       0.11889612       1.57649841
H       -3.15908267       0.26028127      -0.31419787
H       -2.65859444      -1.00527006       0.76010431
15
Frame=5 idx=006071 GeodesicLength=0.46715516420821557 rxn_smarts="[C:1]([C:2]([C:3]([C:4](=[O:5])[N:6]([H:14])[H:15])([H:12])[H:13])([H:10])[H:11])([H:7])([H:8])[H:9]>>[C:1]([C@@:2]1([H:11])[C:3]([H:12])([H:13])[C@:4]1([O:5][H:10])[N:6]([H:14])[H:15])([H:7])([H:8])[H:9]"
C        2.11322150       0.04670346      -0.49226042
C        0.61958457      -0.19814698      -0.56983739
C       -0.05075586      -0.43078296       0.76953973
C       -1.21347613       0.33929500       0.28716880
O       -1.12204226       1.61619228      -0.02592171
N       -2.42108979      -0.22684457       0.17479820
H        2.51946201       0.28769723      -1.47760558
H        2.67963762      -0.81809263      -0.11492943
H        2.34654443       0.89483417       0.15912081
H       -0.15558466       1.56104920      -0.55691434
H        0.36994547      -0.99400920      -1.27187677
H       -0.29530386      -1.45583257       1.07127070
H        0.42874845       0.10962690       1.58802429
H       -3.14824607       0.24495677      -0.33544538
H       -2.67064540      -0.97664610       0.79486849
15
Frame=6 idx=006071 GeodesicLength=0.5606587609936087 rxn_smarts="[C:1]([C:2]([C:3]([C:4](=[O:5])[N:6]([H:14])[H:15])([H:12])[H:13])([H:10])[H:11])([H:7])([H:8])[H:9]>>[C:1]([C@@:2]1([H:11])[C:3]([H:12])([H:13])[C@:4]1([O:5][H:10])[N:6]([H:14])[H:15])([H:7])([H:8])[H:9]"
C        2.10619604       0.05227058      -0.49097356
C        0.61199376      -0.19030725      -0.56514414
C       -0.04869146      -0.43665596       0.77733428
C       -1.20742476       0.33615950       0.28557318
O       -1.11325911       1.61274823      -0.02548555
N       -2.41594620      -0.23695410       0.16812544
H        2.50863414       0.30310412      -1.47537598
H        2.67128524      -0.81768320      -0.12592171
H        2.34050247       0.89323134       0.16890445
H       -0.13267616       1.54903763      -0.57857460
H        0.36251787      -0.98154121      -1.27257525
H       -0.29088352      -1.46527000       1.06467601
H        0.42701557       0.10073400       1.59941362
H       -3.13707587       0.22870816      -0.35626802
H       -2.68218801      -0.94758184       0.82629183
15
Frame=7 idx=006071 GeodesicLength=0.6541767417187375 rxn_smarts="[C:1]([C:2]([C:3]([C:4](=[O:5])[N:6]([H:14])[H:15])([H:12])[H:13])([H:10])[H:11])([H:7])([H:8])[H:9]>>[C:1]([C@@:2]1([H:11])[C:3]([H:12])([H:13])[C@:4]1([O:5][H:10])[N:6]([H:14])[H:15])([H:7])([H:8])[H:9]"
C        2.09916338       0.05758704      -0.48977368
C        0.60436630      -0.18256208      -0.56037432
C       -0.04659093      -0.44222887       0.78511315
C       -1.20146789       0.33318970       0.28423580
O       -1.10506761       1.60962630      -0.02416212
N       -2.41088049      -0.24711644       0.16254629
H        2.49786242       0.31779122      -1.47322021
H        2.66277340      -0.81731097      -0.13672527
H        2.33457061       0.89153558       0.17818122
H       -0.10992466       1.53725753      -0.60012337
H        0.35490734      -0.96924272      -1.27299533
H       -0.28616776      -1.47416946       1.05844007
H        0.42542100       0.09219506       1.61066020
H       -3.12571334       0.21179203      -0.37639621
H       -2.69325178      -0.91834392       0.85459377
15
Frame=8 idx=006071 GeodesicLength=0.7476994116102187 rxn_smarts="[C:1]([C:2]([C:3]([C:4](=[O:5])[N:6]([H:14])[H:15])([H:12])[H:13])([H:10])[H:11])([H:7])([H:8])[H:9]>>[C:1]([C@@:2]1([H:11])[C:3]([H:12])([H:13])[C@:4]1([O:5][H:10])[N:6]([H:14])[H:15])([H:7])([H:8])[H:9]"
C        2.09213422       0.06266803      -0.48864545
C        0.59671066      -0.17487583      -0.55553499
C       -0.04445500      -0.44751308       0.79286746
C       -1.19560376       0.33039047       0.28314795
O       -1.09742816       1.60684169      -0.02193096
N       -2.40588658      -0.25731590       0.15788061
H        2.48718128       0.33176000      -1.47113222
H        2.65410004      -0.81697450      -0.14730359
H        2.32874876       0.88977953       0.18697085
H       -0.08732093       1.52566192      -0.62168936
H        0.34712713      -0.95707228      -1.27316304
H       -0.28116285      -1.48256623       1.05252178
H        0.42396267       0.08397760       1.62177792
H       -3.11420588       0.19435653      -0.39575981
H       -2.70390162      -0.88911794       0.87999286
15
Frame=9 idx=006071 GeodesicLength=0.8412310968704746 rxn_smarts="[C:1]([C:2]([C:3]([C:4](=[O:5])[N:6]([H:14])[H:15])([H:12])[H:13])([H:10])[H:11])([H:7])([H:8])[H:9]>>[C:1]([C@@:2]1([H:11])[C:3]([H:12])([H:13])[C@:4]1([O:5][H:10])[N:6]([H:14])[H:15])([H:7])([H:8])[H:9]"
C        2.08511166       0.06751234      -0.48757447
C        0.58902806      -0.16721099      -0.55062535
C       -0.04229323      -0.45249078       0.80059589
C       -1.18983940       0.32778486       0.28230439
O       -1.09032233       1.60440846      -0.01877893
N       -2.40095947      -0.26749952       0.15399957
H        2.47661961       0.34497975      -1.46910718
H        2.64524882      -0.81669227      -0.15762071
H        2.32303703       0.88797823       0.19528415
H       -0.06485135       1.51420980      -0.64339621
H        0.33918551      -0.94499236      -1.27308096
H       -0.27586988      -1.49045613       1.04689861
H        0.42261910       0.07608684       1.63277498
H       -3.10261593       0.17659060      -0.41425444
H       -2.71409822      -0.86020883       0.90258065
15
Frame=10 idx=006071 GeodesicLength=0.9347643338869391 rxn_smarts="[C:1]([C:2]([C:3]([C:4](=[O:5])[N:6]([H:14])[H:15])([H:12])[H:13])([H:10])[H:11])([H:7])([H:8])[H:9]>>[C:1]([C@@:2]1([H:11])[C:3]([H:12])([H:13])[C@:4]1([O:5][H:10])[N:6]([H:14])[H:15])([H:7])([H:8])[H:9]"
C        2.07810896       0.07214745      -0.48654658
C        0.58133032      -0.15953481      -0.54565575
C       -0.04010202      -0.45720081       0.80827811
C       -1.18417228       0.32535418       0.28169547
O       -1.08372303       1.60231845      -0.01467134
N       -2.39609383      -0.27768910       0.15078740
H        2.46621396       0.35747908      -1.46713630
H        2.63623231      -0.81644592      -0.16765091
H        2.31742518       0.88617057       0.20314684
H       -0.04251791       1.50283622      -0.66535454
H        0.33110882      -0.93295830      -1.27278383
H       -0.27029584      -1.49790004       1.04150031
H        0.42139178       0.06845145       1.64365845
H       -3.09095328       0.15854944      -0.43191907
H       -2.72395314      -0.83157787       0.92265174
15
Frame=11 idx=006071 GeodesicLength=1.0283012032601793 rxn_smarts="[C:1]([C:2]([C:3]([C:4](=[O:5])[N:6]([H:14])[H:15])([H:12])[H:13])([H:10])[H:11])([H:7])([H:8])[H:9]>>[C:1]([C@@:2]1([H:11])[C:3]([H:12])([H:13])[C@:4]1([O:5][H:10])[N:6]([H:14])[H:15])([H:7])([H:8])[H:9]"
C        2.07112926       0.07658641      -0.48554946
C        0.57361945      -0.15181221      -0.54062912
C       -0.03788429      -0.46165498       0.81590466
C       -1.17860372       0.32310264       0.28132029
O       -1.07761252       1.60057218      -0.00957476
N       -2.39128421      -0.28786611       0.14816383
H        2.45598929       0.36925614      -1.46521614
H        2.62704553      -0.81623584      -0.17736784
H        2.31190420       0.88438398       0.21057530
H       -0.02031533       1.49148656      -0.68767348
H        0.32290975      -0.92093093      -1.27228657
H       -0.26444657      -1.50492387       1.03627873
H        0.42027255       0.06103476       1.65443653
H       -3.07922813       0.14031424      -0.44876280
H       -2.73349527      -0.80331299       0.94038082
15
Frame=12 idx=006071 GeodesicLength=1.1218419463088933 rxn_smarts="[C:1]([C:2]([C:3]([C:4](=[O:5])[N:6]([H:14])[H:15])([H:12])[H:13])([H:10])[H:11])([H:7])([H:8])[H:9]>>[C:1]([C@@:2]1([H:11])[C:3]([H:12])([H:13])[C@:4]1([O:5][H:10])[N:6]([H:14])[H:15])([H:7])([H:8])[H:9]"
C        2.06417475       0.08084341      -0.48457233
C        0.56589541      -0.14400792      -0.53554712
C       -0.03564124      -0.46586700       0.82346835
C       -1.17313455       0.32103507       0.28118271
O       -1.07197320       1.59917103      -0.00344875
N       -2.38652682      -0.29801457       0.14606197
H        2.44596759       0.38030870      -1.46334707
H        2.61768442      -0.81606072      -0.18674547
H        2.30646499       0.88264930       0.21758273
H        0.00176062       1.48010282      -0.71045975
H        0.31459737      -0.90887383      -1.27160067
H       -0.25832886      -1.51155406       1.03118869
H        0.41925900       0.05379746       1.66511916
H       -3.06744284       0.12194965      -0.46480950
H       -2.74275665      -0.77547933       0.95592707
15
Frame=13 idx=006071 GeodesicLength=1.215386248698264 rxn_smarts="[C:1]([C:2]([C:3]([C:4](=[O:5])[N:6]([H:14])[H:15])([H:12])[H:13])([H:10])[H:11])([H:7])([H:8])[H:9]>>[C:1]([C@@:2]1([H:11])[C:3]([H:12])([H:13])[C@:4]1([O:5][H:10])[N:6]([H:14])[H:15])([H:7])([H:8])[H:9]"
C        2.05724416       0.08493300      -0.48360780
C        0.55815543      -0.13608704      -0.53040661
C       -0.03337189      -0.46984887       0.83096830
C       -1.16776435       0.31915984       0.28129745
O       -1.06678506       1.59812007       0.00375966
N       -2.38181465      -0.30811949       0.14441962
H        2.43616410       0.39062674      -1.46153603
H        2.60814387      -0.81591444      -0.19575750
H        2.30109500       0.88100254       0.22417125
H        0.02371097       1.46861540      -0.73381855
H        0.30617614      -0.89675509      -1.27072716
H       -0.25194961      -1.51781223       1.02619432
H        0.41835570       0.04670209       1.67571959
H       -3.05559231       0.10352885      -0.48009464
H       -2.75176750      -0.74815137       0.96941810
15
Frame=14 idx=006071 GeodesicLength=1.308933962207703 rxn_smarts="[C:1]([C:2]([C:3]([C:4](=[O:5])[N:6]([H:14])[H:15])([H:12])[H:13])([H:10])[H:11])([H:7])([H:8])[H:9]>>[C:1]([C@@:2]1([H:11])[C:3]([H:12])([H:13])[C@:4]1([O:5][H:10])[N:6]([H:14])[H:15])([H:7])([H:8])[H:9]"
C        2.05033490       0.08886932      -0.48264873
C        0.55039460      -0.12801283      -0.52520342
C       -0.03107573      -0.47361056       0.83840378
C       -1.16249330       0.31748849       0.28168126
O       -1.06203067       1.59742377       0.01210889
N       -2.37714194      -0.31816086       0.14318430
H        2.42659187       0.40019843      -1.45979089
H        2.59841731      -0.81579276      -0.20437867
H        2.29578262       0.87947967       0.23034277
H        0.04553722       1.45695122      -0.75785540
H        0.29764775      -0.88454420      -1.26966300
H       -0.24531678      -1.52371580       1.02126000
H        0.41756787       0.03971216       1.68625031
H       -3.04366360       0.08511329      -0.49465827
H       -2.76055212      -0.72139934       0.98096708
15
Frame=15 idx=006071 GeodesicLength=1.402485695657927 rxn_smarts="[C:1]([C:2]([C:3]([C:4](=[O:5])[N:6]([H:14])[H:15])([H:12])[H:13])([H:10])[H:11])([H:7])([H:8])[H:9]>>[C:1]([C@@:2]1([H:11])[C:3]([H:12])([H:13])[C@:4]1([O:5][H:10])[N:6]([H:14])[H:15])([H:7])([H:8])[H:9]"
C        2.04344247       0.09266727      -0.48168933
C        0.54260663      -0.11974727      -0.51993122
C       -0.02875104      -0.47716051       0.84577640
C       -1.15732128       0.31603443       0.28235516
O       -1.05769279       1.59708755       0.02166612
N       -2.37250062      -0.32812015       0.14230266
H        2.41726108       0.40900567      -1.45812316
H        2.58849713      -0.81568813      -0.21258091
H        2.29051432       0.87812157       0.23609258
H        0.06724068       1.44502615      -0.78267594
H        0.28901253      -0.87221455      -1.26839809
H       -0.23843816      -1.52927859       1.01635434
H        0.41690415       0.03279279       1.69672475
H       -3.03164427       0.06677485      -0.50854072
H       -2.76913083      -0.69530107       0.99066736
15
Frame=16 idx=006071 GeodesicLength=1.496042271271209 rxn_smarts="[C:1]([C:2]([C:3]([C:4](=[O:5])[N:6]([H:14])[H:15])([H:12])[H:13])([H:10])[H:11])([H:7])([H:8])[H:9]>>[C:1]([C@@:2]1([H:11])[C:3]([H:12])([H:13])[C@:4]1([O:5][H:10])[N:6]([H:14])[H:15])([H:7])([H:8])[H:9]"
C        2.03656177       0.09634216      -0.48072353
C        0.53478432      -0.11124952      -0.51458352
C       -0.02639650      -0.48050501       0.85308668
C       -1.15224901       0.31481311       0.28333965
O       -1.05375705       1.59711620       0.03250426
N       -2.36788342      -0.33797621       0.14172329
H        2.40818233       0.41702560      -1.45654493
H        2.57837477      -0.81559228      -0.22033289
H        2.28527650       0.87697179       0.24141378
H        0.08882448       1.43274730      -0.80838735
H        0.28027112      -0.85974205      -1.26691792
H       -0.23132169      -1.53451056       1.01144516
H        0.41637285       0.02591058       1.70715480
H       -3.01952383       0.04858975      -0.52177913
H       -2.77751665      -0.66994086       0.99860164
