14
Frame=0 idx=000396 GeodesicLength=0.0 rxn_smarts="[C:1]([C:2]([C@@:3]([O:4][H:13])([C:5](=[O:6])[H:14])[H:12])([H:10])[H:11])([H:7])([H:8])[H:9]>>[C:1]([C:2]([C@@:3]1([H:12])[O:4][C@:5]1([O:6][H:13])[H:14])([H:10])[H:11])([H:7])([H:8])[H:9]"
C       -1.19863796      -1.05382436       0.00218856
C       -0.79433769       0.21646127      -0.73206386
C        0.35867691       0.99855922      -0.08363201
O        0.24748327       1.27516192       1.25070578
C        1.65325068       0.29881624       0.09179965
O        1.77666341      -0.57113451       1.01857843
H       -2.11054410      -1.47226681      -0.42572634
H       -1.39646105      -0.83742866       1.05374984
H       -0.43013602      -1.82886538      -0.05699549
H       -1.63709682       0.91332001      -0.74256745
H       -0.54961893       0.00158595      -1.77848288
H        0.55243201       1.88417774      -0.71703374
H        0.94581905      -0.35326620       1.55291322
H        2.58250729       0.52870356      -0.43343373
14
Frame=1 idx=000396 GeodesicLength=0.07532998733927881 rxn_smarts="[C:1]([C:2]([C@@:3]([O:4][H:13])([C:5](=[O:6])[H:14])[H:12])([H:10])[H:11])([H:7])([H:8])[H:9]>>[C:1]([C:2]([C@@:3]1([H:12])[O:4][C@:5]1([O:6][H:13])[H:14])([H:10])[H:11])([H:7])([H:8])[H:9]"
C       -1.19735274      -1.05463326       0.00018075
C       -0.79512151       0.21709216      -0.73282174
C        0.35915038       0.99816203      -0.08919903
O        0.25972583       1.26403228       1.25080449
C        1.65262939       0.29992811       0.09622003
O        1.77761691      -0.57280451       1.02179235
H       -2.10891967      -1.47330456      -0.42827743
H       -1.39630303      -0.84030072       1.05192970
H       -0.42832808      -1.82888761      -0.06069345
H       -1.63841596       0.91333278      -0.74027044
H       -0.55179134       0.00361673      -1.77974700
H        0.55180000       1.88772642      -0.71596430
H        0.93911394      -0.33724220       1.56776023
H        2.57619588       0.52328235      -0.44171417
14
Frame=2 idx=000396 GeodesicLength=0.15065993380270548 rxn_smarts="[C:1]([C:2]([C@@:3]([O:4][H:13])([C:5](=[O:6])[H:14])[H:12])([H:10])[H:11])([H:7])([H:8])[H:9]>>[C:1]([C:2]([C@@:3]1([H:12])[O:4][C@:5]1([O:6][H:13])[H:14])([H:10])[H:11])([H:7])([H:8])[H:9]"
C       -1.19605564      -1.05542251      -0.00178616
C       -0.79583420       0.21771992      -0.73353247
C        0.35966638       0.99774131      -0.09463240
O        0.27173301       1.25325167       1.25075631
C        1.65205381       0.30109894       0.10068519
O        1.77886530      -0.57448606       1.02492416
H       -2.10728619      -1.47429786      -0.43080072
H       -1.39612608      -0.84312961       1.05014212
H       -0.42651683      -1.82889536      -0.06434301
H       -1.63965408       0.91333792      -0.73801607
H       -0.55385269       0.00562403      -1.78094686
H        0.55113761       1.89120182      -0.71479114
H        0.93220101      -0.32156393       1.58237122
H        2.56966857       0.51781974      -0.45003019
14
Frame=3 idx=000396 GeodesicLength=0.2259922481596375 rxn_smarts="[C:1]([C:2]([C@@:3]([O:4][H:13])([C:5](=[O:6])[H:14])[H:12])([H:10])[H:11])([H:7])([H:8])[H:9]>>[C:1]([C:2]([C@@:3]1([H:12])[O:4][C@:5]1([O:6][H:13])[H:14])([H:10])[H:11])([H:7])([H:8])[H:9]"
C       -1.19476172      -1.05619155      -0.00370549
C       -0.79648280       0.21833702      -0.73420107
C        0.36023118       0.99728596      -0.09995396
O        0.28353862       1.24279499       1.25056249
C        1.65153008       0.30230781       0.10516094
O        1.78041814      -0.57621282       1.02792478
H       -2.10566401      -1.47524474      -0.43328344
H       -1.39594473      -0.84590346       1.04839239
H       -0.42472248      -1.82889507      -0.06793387
H       -1.64081285       0.91333741      -0.73580614
H       -0.55582092       0.00758842      -1.78208850
H        0.55044774       1.89459629      -0.71353214
H        0.92507147      -0.30621957       1.59675280
H        2.56297229       0.51241931      -0.45828879
14
Frame=4 idx=000396 GeodesicLength=0.30132616949296553 rxn_smarts="[C:1]([C:2]([C@@:3]([O:4][H:13])([C:5](=[O:6])[H:14])[H:12])([H:10])[H:11])([H:7])([H:8])[H:9]>>[C:1]([C:2]([C@@:3]1([H:12])[O:4][C@:5]1([O:6][H:13])[H:14])([H:10])[H:11])([H:7])([H:8])[H:9]"
C       -1.19348139      -1.05693797      -0.00557235
C       -0.79707138       0.21893833      -0.73483209
C        0.36084717       0.99678756      -0.10517912
O        0.29516842       1.23263450       1.25022806
C        1.65105988       0.30353943       0.10962150
O        1.78228472      -0.57800898       1.03075413
H       -2.10406477      -1.47614363      -0.43571659
H       -1.39577214      -0.84861217       1.04668324
H       -0.42295881      -1.82888807      -0.07145055
H       -1.64189163       0.91333220      -0.73364695
H       -0.55770545       0.00949686      -1.78317600
H        0.54973017       1.89790538      -0.71219743
H        0.91771436      -0.29119813       1.61091374
H        2.55614086       0.50715469      -0.46642960
14
Frame=5 idx=000396 GeodesicLength=0.3766613366954855 rxn_smarts="[C:1]([C:2]([C@@:3]([O:4][H:13])([C:5](=[O:6])[H:14])[H:12])([H:10])[H:11])([H:7])([H:8])[H:9]>>[C:1]([C:2]([C@@:3]1([H:12])[O:4][C@:5]1([O:6][H:13])[H:14])([H:10])[H:11])([H:7])([H:8])[H:9]"
C       -1.19220732      -1.05766591      -0.00739248
C       -0.79760302       0.21952727      -0.73542529
C        0.36151500       0.99624819      -0.11031474
O        0.30663446       1.22276280       1.24976295
C        1.65064152       0.30479113       0.11406883
O        1.78446715      -0.57987090       1.03341659
H       -2.10247718      -1.47700118      -0.43811080
H       -1.39560591      -0.85126468       1.04500929
H       -0.42121417      -1.82887418      -0.07490162
H       -1.64289578       0.91332466      -0.73152148
H       -0.55951768       0.01136255      -1.78421326
H        0.54898798       1.90113108      -0.71079197
H        0.91010339      -0.27646277       1.62488969
H        2.54917154       0.50199194      -0.47447571
14
Frame=6 idx=000396 GeodesicLength=0.4520023433066786 rxn_smarts="[C:1]([C:2]([C@@:3]([O:4][H:13])([C:5](=[O:6])[H:14])[H:12])([H:10])[H:11])([H:7])([H:8])[H:9]>>[C:1]([C:2]([C@@:3]1([H:12])[O:4][C@:5]1([O:6][H:13])[H:14])([H:10])[H:11])([H:7])([H:8])[H:9]"
C       -1.19093365      -1.05837974      -0.00917117
C       -0.79808367       0.22010659      -0.73598053
C        0.36223746       0.99566703      -0.11537321
O        0.31795474       1.21317638       1.24916850
C        1.65027278       0.30605215       0.11849750
O        1.78696131      -0.58180512       1.03590577
H       -2.10089413      -1.47782594      -0.44047120
H       -1.39543782      -0.85387158       1.04336681
H       -0.41948009      -1.82885420      -0.07829776
H       -1.64383182       0.91331695      -0.72940789
H       -0.56127942       0.01319952      -1.78520608
H        0.54822919       1.90427232      -0.70932804
H        0.90221426      -0.26197298       1.63871282
H        2.54207086       0.49691862      -0.48241551
14
Frame=7 idx=000396 GeodesicLength=0.5273611271664025 rxn_smarts="[C:1]([C:2]([C@@:3]([O:4][H:13])([C:5](=[O:6])[H:14])[H:12])([H:10])[H:11])([H:7])([H:8])[H:9]>>[C:1]([C:2]([C@@:3]1([H:12])[O:4][C@:5]1([O:6][H:13])[H:14])([H:10])[H:11])([H:7])([H:8])[H:9]"
C       -1.18964941      -1.05908513      -0.01091583
C       -0.79851848       0.22068128      -0.73649568
C        0.36301733       0.99504543      -0.12036408
O        0.32914106       1.20387480       1.24845023
C        1.64995124       0.30731567       0.12291020
O        1.78976053      -0.58381159       1.03822720
H       -2.09930338      -1.47862577      -0.44280635
H       -1.39525361      -0.85644835       1.04175146
H       -0.41774165      -1.82882953      -0.08165735
H       -1.64470704       0.91331253      -0.72728088
H       -0.56300913       0.01502719      -1.78615808
H        0.54746372       1.90732714      -0.70781569
H        0.89401467      -0.24768096       1.65241965
H        2.53483415       0.49189729      -0.49026482
14
Frame=8 idx=000396 GeodesicLength=0.6027118953399747 rxn_smarts="[C:1]([C:2]([C@@:3]([O:4][H:13])([C:5](=[O:6])[H:14])[H:12])([H:10])[H:11])([H:7])([H:8])[H:9]>>[C:1]([C:2]([C@@:3]1([H:12])[O:4][C@:5]1([O:6][H:13])[H:14])([H:10])[H:11])([H:7])([H:8])[H:9]"
C       -1.18834606      -1.05978649      -0.01263437
C       -0.79891214       0.22125602      -0.73696827
C        0.36385548       0.99438376      -0.12529262
O        0.34020292       1.19485726       1.24761300
C        1.64967364       0.30857200       0.12731220
O        1.79286167      -0.58588917       1.04039228
H       -2.09769644      -1.47940550      -0.44512310
H       -1.39503825      -0.85901054       1.04015901
H       -0.41598690      -1.82880107      -0.08499970
H       -1.64552738       0.91331532      -0.72511903
H       -0.56472439       0.01686282      -1.78707250
H        0.54669974       1.91029038      -0.70626629
H        0.88548120      -0.23354150       1.66603613
H        2.52745693       0.48689669      -0.49803675
14
Frame=9 idx=000396 GeodesicLength=0.6780915527819851 rxn_smarts="[C:1]([C:2]([C@@:3]([O:4][H:13])([C:5](=[O:6])[H:14])[H:12])([H:10])[H:11])([H:7])([H:8])[H:9]>>[C:1]([C:2]([C@@:3]1([H:12])[O:4][C@:5]1([O:6][H:13])[H:14])([H:10])[H:11])([H:7])([H:8])[H:9]"
C       -1.18704301      -1.06047767      -0.01431530
C       -0.79926233       0.22182068      -0.73740584
C        0.36475256       0.99367375      -0.13016820
O        0.35116580       1.18607548       1.24666410
C        1.64944456       0.30981429       0.13166454
O        1.79629175      -0.58805804       1.04234082
H       -2.09609050      -1.48016154      -0.44741067
H       -1.39483386      -0.86153157       1.03859116
H       -0.41424185      -1.82876850      -0.08828356
H       -1.64628370       0.91332133      -0.72295027
H       -0.56641299       0.01867328      -1.78794918
H        0.54592337       1.91317289      -0.70466495
H        0.87660806      -0.21956217       1.67956207
H        2.51998215       0.48200780      -0.50567472
14
Frame=10 idx=000396 GeodesicLength=0.7534815902462595 rxn_smarts="[C:1]([C:2]([C@@:3]([O:4][H:13])([C:5](=[O:6])[H:14])[H:12])([H:10])[H:11])([H:7])([H:8])[H:9]>>[C:1]([C:2]([C@@:3]1([H:12])[O:4][C@:5]1([O:6][H:13])[H:14])([H:10])[H:11])([H:7])([H:8])[H:9]"
C       -1.18572884      -1.06116383      -0.01596532
C       -0.79957271       0.22237993      -0.73780643
C        0.36571018       0.99291762      -0.13499496
O        0.36203989       1.17753638       1.24561030
C        1.64926206       0.31103354       0.13597753
O        1.80004236      -0.59032223       1.04408253
H       -2.09447882      -1.48089639      -0.44967112
H       -1.39461644      -0.86402925       1.03704781
H       -0.41249275      -1.82873583      -0.09153813
H       -1.64698310       0.91333364      -0.72075440
H       -0.56808802       0.02047561      -1.78879169
H        0.54514393       1.91596939      -0.70302386
H        0.86736373      -0.20569575       1.69302338
H        2.51239852       0.47719718      -0.51319564
14
Frame=11 idx=000396 GeodesicLength=0.8288469025835904 rxn_smarts="[C:1]([C:2]([C@@:3]([O:4][H:13])([C:5](=[O:6])[H:14])[H:12])([H:10])[H:11])([H:7])([H:8])[H:9]>>[C:1]([C:2]([C@@:3]1([H:12])[O:4][C@:5]1([O:6][H:13])[H:14])([H:10])[H:11])([H:7])([H:8])[H:9]"
C       -1.18439817      -1.06184874      -0.01759099
C       -0.79984771       0.22293869      -0.73816632
C        0.36672830       0.99211802      -0.13977642
O        0.37283475       1.16923428       1.24445481
C        1.64912356       0.31222571       0.14025457
O        1.80411590      -0.59267180       1.04563174
H       -2.09285130      -1.48161879      -0.45191602
H       -1.39438035      -0.86651723       1.03552374
H       -0.41072924      -1.82870045      -0.09477591
H       -1.64763110       0.91335435      -0.71851129
H       -0.56976324       0.02228522      -1.78959987
H        0.54436722       1.91868047      -0.70134732
H        0.85772383      -0.19190486       1.70644159
H        2.50470757       0.47242513      -0.52062233
14
Frame=12 idx=000396 GeodesicLength=0.904238706556359 rxn_smarts="[C:1]([C:2]([C@@:3]([O:4][H:13])([C:5](=[O:6])[H:14])[H:12])([H:10])[H:11])([H:7])([H:8])[H:9]>>[C:1]([C:2]([C@@:3]1([H:12])[O:4][C@:5]1([O:6][H:13])[H:14])([H:10])[H:11])([H:7])([H:8])[H:9]"
C       -1.18304373      -1.06253529      -0.01919323
C       -0.80008905       0.22349822      -0.73848226
C        0.36780986       0.99127081      -0.14451622
O        0.38355746       1.16117339       1.24320137
C        1.64902330       0.31337700       0.14449493
O        1.80849749      -0.59513950       1.04694686
H       -2.09120080      -1.48233087      -0.45414395
H       -1.39410818      -0.86900742       1.03402130
H       -0.40894548      -1.82866428      -0.09801253
H       -1.64822984       0.91338321      -0.71620547
H       -0.57145185       0.02411362      -1.79037426
H        0.54360701       1.92129337      -0.69965123
H        0.84765858      -0.17813185       1.71984926
H        2.49691523       0.46769958      -0.52793458
14
Frame=13 idx=000396 GeodesicLength=0.9796400627902858 rxn_smarts="[C:1]([C:2]([C@@:3]([O:4][H:13])([C:5](=[O:6])[H:14])[H:12])([H:10])[H:11])([H:7])([H:8])[H:9]>>[C:1]([C:2]([C@@:3]1([H:12])[O:4][C@:5]1([O:6][H:13])[H:14])([H:10])[H:11])([H:7])([H:8])[H:9]"
C       -1.18168153      -1.06322351      -0.02076899
C       -0.80030263       0.22405272      -0.73875827
C        0.36895668       0.99036701      -0.14922793
O        0.39423838       1.15331097       1.24184980
C        1.64896755       0.31446858       0.14866738
O        1.81321682      -0.59772206       1.04802376
H       -2.08954362      -1.48303344      -0.45635357
H       -1.39382567      -0.87148783       1.03254012
H       -0.40715866      -1.82863110      -0.10122766
H       -1.64877905       0.91342314      -0.71383819
H       -0.57316607       0.02594693      -1.79111911
H        0.54285766       1.92381041      -0.69793055
H        0.83714838      -0.16436887       1.73323722
H        2.48907176       0.46308706      -0.53509401
14
Frame=14 idx=000396 GeodesicLength=1.0550571271904516 rxn_smarts="[C:1]([C:2]([C@@:3]([O:4][H:13])([C:5](=[O:6])[H:14])[H:12])([H:10])[H:11])([H:7])([H:8])[H:9]>>[C:1]([C:2]([C@@:3]1([H:12])[O:4][C@:5]1([O:6][H:13])[H:14])([H:10])[H:11])([H:7])([H:8])[H:9]"
C       -1.18032513      -1.06391155      -0.02231083
C       -0.80048934       0.22459460      -0.73899678
C        0.37016977       0.98939647      -0.15391829
O        0.40489708       1.14561701       1.24040245
C        1.64895651       0.31548185       0.15274880
O        1.81828998      -0.60044443       1.04881953
H       -2.08789419      -1.48372129      -0.45853728
H       -1.39355192      -0.87394620       1.03108435
H       -0.40538737      -1.82860493      -0.10439992
H       -1.64927412       0.91347298      -0.71141807
H       -0.57490771       0.02776842      -1.79183458
H        0.54211805       1.92622492      -0.69618629
H        0.82617357      -0.15060158       1.74660189
H        2.48122485       0.45867372      -0.54205499
14
Frame=15 idx=000396 GeodesicLength=1.1304864450868253 rxn_smarts="[C:1]([C:2]([C@@:3]([O:4][H:13])([C:5](=[O:6])[H:14])[H:12])([H:10])[H:11])([H:7])([H:8])[H:9]>>[C:1]([C:2]([C@@:3]1([H:12])[O:4][C@:5]1([O:6][H:13])[H:14])([H:10])[H:11])([H:7])([H:8])[H:9]"
C       -1.17898962      -1.06459779      -0.02381177
C       -0.80064982       0.22511632      -0.73920017
C        0.37144929       0.98835037      -0.15859128
O        0.41555124       1.13805917       1.23886293
C        1.64899166       0.31639999       0.15671838
O        1.82373854      -0.60332751       1.04929540
H       -2.08626741      -1.48439089      -0.46069053
H       -1.39331120      -0.87636892       1.02965722
H       -0.40365048      -1.82858991      -0.10750536
H       -1.64971067       0.91353180      -0.70895567
H       -0.57667575       0.02956045      -1.79252061
H        0.54138570       1.92853254      -0.69441502
H        0.81471601      -0.13681608       1.75993976
H        2.47342251       0.45454048      -0.54878328
14
Frame=16 idx=000396 GeodesicLength=1.2059231402406803 rxn_smarts="[C:1]([C:2]([C@@:3]([O:4][H:13])([C:5](=[O:6])[H:14])[H:12])([H:10])[H:11])([H:7])([H:8])[H:9]>>[C:1]([C:2]([C@@:3]1([H:12])[O:4][C@:5]1([O:6][H:13])[H:14])([H:10])[H:11])([H:7])([H:8])[H:9]"
C       -1.17769022      -1.06528031      -0.02526474
C       -0.80078364       0.22561029      -0.73937075
C        0.37279476       0.98722045      -0.16324843
O        0.42621698       1.13060227       1.23723688
C        1.64907482       0.31720776       0.16055718
O        1.82958723      -0.60638989       1.04941296
H       -2.08467670      -1.48503926      -0.46281111
H       -1.39313135      -0.87874101       1.02826120
H       -0.40196614      -1.82858956      -0.11051656
H       -1.65008356       0.91359854      -0.70646385
H       -0.57846554       0.03130484      -1.79317644
H        0.54065655       1.93073029      -0.69260865
H        0.80275650      -0.12299752       1.77324766
H        2.46571030       0.45076313      -0.55525535
