12
Frame=0 idx=011944 GeodesicLength=0.0 rxn_smarts="[N:1]([c:2]1[c:3]([H:10])[n:4]([H:11])[c:5]([O:6][H:12])[n:7]1)([H:8])[H:9]>>[N:1]([C:2]1=[N:7][C:5](=[O:6])[N:4]([H:11])[C:3]1([H:10])[H:12])([H:8])[H:9]"
N        1.96787781       0.61746644      -0.01779818
C        0.67224509       0.30742845      -0.20733026
C       -0.02712647      -0.82661326       0.37226211
N       -1.09624161      -0.99379704      -0.62481896
C       -1.29802039       0.37346663      -0.68688958
O       -2.13404011       0.76761727       0.20062059
N       -0.15394969       1.07678294      -0.89565594
H        2.52694835       0.06817416       0.60567649
H        2.26075038       1.55759560      -0.21452421
H        0.51604380      -1.70919447       0.69612411
H       -1.92272095      -1.42904428      -0.23822267
H       -1.31176617       0.19011752       1.01055650
12
Frame=1 idx=011944 GeodesicLength=0.06379570797470427 rxn_smarts="[N:1]([c:2]1[c:3]([H:10])[n:4]([H:11])[c:5]([O:6][H:12])[n:7]1)([H:8])[H:9]>>[N:1]([C:2]1=[N:7][C:5](=[O:6])[N:4]([H:11])[C:3]1([H:10])[H:12])([H:8])[H:9]"
N        1.97162743       0.61553987      -0.02131217
C        0.67540750       0.30302168      -0.20978454
C       -0.02611814      -0.82535211       0.37748922
N       -1.09412999      -0.99100315      -0.61832842
C       -1.30273811       0.37479070      -0.68955125
O       -2.14373976       0.77372844       0.19150122
N       -0.15397759       1.07289425      -0.89513307
H        2.53096273       0.06656183       0.60234301
H        2.25781873       1.55979377      -0.20816507
H        0.51709396      -1.71247611       0.68908296
H       -1.91923842      -1.43969662      -0.24568778
H       -1.31296834       0.20219745       1.02754589
12
Frame=2 idx=011944 GeodesicLength=0.12755700268246678 rxn_smarts="[N:1]([c:2]1[c:3]([H:10])[n:4]([H:11])[c:5]([O:6][H:12])[n:7]1)([H:8])[H:9]>>[N:1]([C:2]1=[N:7][C:5](=[O:6])[N:4]([H:11])[C:3]1([H:10])[H:12])([H:8])[H:9]"
N        1.97533773       0.61364742      -0.02485126
C        0.67851756       0.29865307      -0.21214205
C       -0.02509742      -0.82401404       0.38279201
N       -1.09204386      -0.98812830      -0.61172189
C       -1.30750554       0.37607460      -0.69227301
O       -2.15358725       0.77971388       0.18215709
N       -0.15412103       1.06908624      -0.89436595
H        2.53516738       0.06460659       0.59843525
H        2.25482442       1.56189007      -0.20161581
H        0.51795493      -1.71550572       0.68241748
H       -1.91538293      -1.45061278      -0.25364083
H       -1.31406397       0.21458897       1.04480897
12
Frame=3 idx=011944 GeodesicLength=0.19134121046072805 rxn_smarts="[N:1]([c:2]1[c:3]([H:10])[n:4]([H:11])[c:5]([O:6][H:12])[n:7]1)([H:8])[H:9]>>[N:1]([C:2]1=[N:7][C:5](=[O:6])[N:4]([H:11])[C:3]1([H:10])[H:12])([H:8])[H:9]"
N        1.97901504       0.61178056      -0.02841170
C        0.68157889       0.29432045      -0.21441421
C       -0.02407132      -0.82263505       0.38814668
N       -1.09000721      -0.98517466      -0.60501823
C       -1.31232563       0.37734354      -0.69503624
O       -2.16358150       0.78558789       0.17264169
N       -0.15437465       1.06539805      -0.89333378
H        2.53947632       0.06244302       0.59417998
H        2.25185021       1.56383194      -0.19509603
H        0.51862207      -1.71835686       0.67607306
H       -1.91114581      -1.46180938      -0.26213485
H       -1.31503643       0.22727051       1.06240363
12
Frame=4 idx=011944 GeodesicLength=0.25512901298341917 rxn_smarts="[N:1]([c:2]1[c:3]([H:10])[n:4]([H:11])[c:5]([O:6][H:12])[n:7]1)([H:8])[H:9]>>[N:1]([C:2]1=[N:7][C:5](=[O:6])[N:4]([H:11])[C:3]1([H:10])[H:12])([H:8])[H:9]"
N        1.98265638       0.60991666      -0.03199320
C        0.68458771       0.29001358      -0.21660600
C       -0.02303915      -0.82122414       0.39353602
N       -1.08803951      -0.98212526      -0.59821357
C       -1.31720659       0.37860631      -0.69782008
O       -2.17372099       0.79134751       0.16297712
N       -0.15474890       1.06183290      -0.89200941
H        2.54382963       0.06016255       0.58972428
H        2.24893249       1.56556088      -0.18873824
H        0.51910597      -1.72104813       0.67000429
H       -1.90650170      -1.47327267      -0.27121586
H       -1.31585533       0.24022981       1.08035465
12
Frame=5 idx=011944 GeodesicLength=0.31891186170241526 rxn_smarts="[N:1]([c:2]1[c:3]([H:10])[n:4]([H:11])[c:5]([O:6][H:12])[n:7]1)([H:8])[H:9]>>[N:1]([C:2]1=[N:7][C:5](=[O:6])[N:4]([H:11])[C:3]1([H:10])[H:12])([H:8])[H:9]"
N        1.98626249       0.60802929      -0.03559301
C        0.68753896       0.28572956      -0.21871201
C       -0.02200352      -0.81979978       0.39894019
N       -1.08616000      -0.97896456      -0.59131280
C       -1.32215569       0.37987932      -0.70059800
O       -2.18400906       0.79698873       0.15320013
N       -0.15525148       1.05840938      -0.89035405
H        2.54814762       0.05788653       0.58527215
H        2.24613895       1.56700678      -0.18275081
H        0.51941166      -1.72361247       0.66415717
H       -1.90142504      -1.48499431      -0.28094859
H       -1.31649489       0.25344153       1.09869963
12
Frame=6 idx=011944 GeodesicLength=0.38269461353365153 rxn_smarts="[N:1]([c:2]1[c:3]([H:10])[n:4]([H:11])[c:5]([O:6][H:12])[n:7]1)([H:8])[H:9]>>[N:1]([C:2]1=[N:7][C:5](=[O:6])[N:4]([H:11])[C:3]1([H:10])[H:12])([H:8])[H:9]"
N        1.98982990       0.60611022      -0.03921545
C        0.69042867       0.28146200      -0.22073761
C       -0.02096988      -0.81836485       0.40436572
N       -1.08438636      -0.97569457      -0.58429754
C       -1.32717689       0.38116178      -0.70336817
O       -2.19445078       0.80252177       0.14330402
N       -0.15588539       1.05512351      -0.88836848
H        2.55242073       0.05561854       0.58083720
H        2.24346946       1.56817772      -0.17714460
H        0.51953876      -1.72606150       0.65853027
H       -1.89588334      -1.49697418      -0.29136871
H       -1.31693486       0.26691957       1.11746336
12
Frame=7 idx=011944 GeodesicLength=0.4464750314612867 rxn_smarts="[N:1]([c:2]1[c:3]([H:10])[n:4]([H:11])[c:5]([O:6][H:12])[n:7]1)([H:8])[H:9]>>[N:1]([C:2]1=[N:7][C:5](=[O:6])[N:4]([H:11])[C:3]1([H:10])[H:12])([H:8])[H:9]"
N        1.99335395       0.60415449      -0.04287396
C        0.69325111       0.27720578      -0.22268625
C       -0.01994477      -0.81691148       0.40983124
N       -1.08273232      -0.97232016      -0.57713754
C       -1.33227329       0.38244484      -0.70613514
O       -2.20505759       0.80795396       0.13326336
N       -0.15665457       1.05196339      -0.88606013
H        2.55666525       0.05331778       0.57635462
H        2.24089996       1.56909940      -0.17185453
H        0.51948565      -1.72839111       0.65314472
H       -1.88983428      -1.50921243      -0.30250888
H       -1.31715910       0.28069555       1.13666250
12
Frame=8 idx=011944 GeodesicLength=0.5102528333118562 rxn_smarts="[N:1]([c:2]1[c:3]([H:10])[n:4]([H:11])[c:5]([O:6][H:12])[n:7]1)([H:8])[H:9]>>[N:1]([C:2]1=[N:7][C:5](=[O:6])[N:4]([H:11])[C:3]1([H:10])[H:12])([H:8])[H:9]"
N        1.99682889       0.60215766      -0.04658059
C        0.69599982       0.27295548      -0.22456153
C       -0.01893506      -0.81543269       0.41535508
N       -1.08121412      -0.96884560      -0.56980161
C       -1.33744886       0.38372054      -0.70890212
O       -2.21584115       0.81329292       0.12305402
N       -0.15756394       1.04891852      -0.88343480
H        2.56089398       0.05094818       0.57176706
H        2.23840898       1.56979214      -0.16682519
H        0.51924956      -1.73059890       0.64802087
H       -1.88322932      -1.52170936      -0.31440797
H       -1.31714877       0.29480111       1.15631678
12
Frame=9 idx=011944 GeodesicLength=0.5740276311664717 rxn_smarts="[N:1]([c:2]1[c:3]([H:10])[n:4]([H:11])[c:5]([O:6][H:12])[n:7]1)([H:8])[H:9]>>[N:1]([C:2]1=[N:7][C:5](=[O:6])[N:4]([H:11])[C:3]1([H:10])[H:12])([H:8])[H:9]"
N        2.00024735       0.60011827      -0.05035104
C        0.69866690       0.26870629      -0.22636683
C       -0.01794858      -0.81391655       0.42096186
N       -1.07984846      -0.96527669      -0.56225188
C       -1.34270799       0.38497739      -0.71167537
O       -2.22681628       0.81854547       0.11264277
N       -0.15861973       1.04597581      -0.88050181
H        2.56513165       0.04845194       0.56697844
H        2.23596400       1.57028256      -0.16196482
H        0.51882626      -1.73267613       0.64319149
H       -1.87600978      -1.53446650      -0.32710681
H       -1.31688533       0.30927814       1.17644401
12
Frame=10 idx=011944 GeodesicLength=0.6377989440344014 rxn_smarts="[N:1]([c:2]1[c:3]([H:10])[n:4]([H:11])[c:5]([O:6][H:12])[n:7]1)([H:8])[H:9]>>[N:1]([C:2]1=[N:7][C:5](=[O:6])[N:4]([H:11])[C:3]1([H:10])[H:12])([H:8])[H:9]"
N        2.00360406       0.59801794      -0.05418982
C        0.70124297       0.26445284      -0.22809787
C       -0.01699281      -0.81236803       0.42665778
N       -1.07865917      -0.96160765      -0.55446494
C       -1.34805875       0.38621947      -0.71443992
O       -2.23799580       0.82371472       0.10203266
N       -0.15983151       1.04313877      -0.87723986
H        2.56934314       0.04586934       0.56206342
H        2.23358835       1.57054229      -0.15736501
H        0.51821145      -1.73463747       0.63864456
H       -1.86811175      -1.54747735      -0.34068338
H       -1.31634018       0.32413514       1.19708238
12
Frame=11 idx=011944 GeodesicLength=0.7015659804135204 rxn_smarts="[N:1]([c:2]1[c:3]([H:10])[n:4]([H:11])[c:5]([O:6][H:12])[n:7]1)([H:8])[H:9]>>[N:1]([C:2]1=[N:7][C:5](=[O:6])[N:4]([H:11])[C:3]1([H:10])[H:12])([H:8])[H:9]"
N        2.00689140       0.59584200      -0.05810631
C        0.70371730       0.26018835      -0.22975272
C       -0.01607672      -0.81078613       0.43245808
N       -1.07767179      -0.95783672      -0.54640645
C       -1.35350946       0.38744505      -0.71718591
O       -2.24939518       0.82880548       0.09121368
N       -0.16120948       1.04040395      -0.87363662
H        2.57351196       0.04320654       0.55703907
H        2.23128529       1.57056026      -0.15305976
H        0.51739810      -1.73648909       0.63438656
H       -1.85945797      -1.56073499      -0.35521699
H       -1.31548344       0.33939531       1.21826737
12
Frame=12 idx=011944 GeodesicLength=0.7653280610162179 rxn_smarts="[N:1]([c:2]1[c:3]([H:10])[n:4]([H:11])[c:5]([O:6][H:12])[n:7]1)([H:8])[H:9]>>[N:1]([C:2]1=[N:7][C:5](=[O:6])[N:4]([H:11])[C:3]1([H:10])[H:12])([H:8])[H:9]"
N        2.01009983       0.59357539      -0.06211148
C        0.70607741       0.25590467      -0.23132989
C       -0.01521068      -0.80916831       0.43838177
N       -1.07691572      -0.95396294      -0.53803531
C       -1.35906982       0.38865081      -0.71990323
O       -2.26103182       0.83382380       0.08017248
N       -0.16276541       1.03776563      -0.86968098
H        2.57762453       0.04046126       0.55190946
H        2.22905292       1.57032753      -0.14907359
H        0.51637652      -1.73823503       0.63043081
H       -1.84995565      -1.57423000      -0.37079678
H       -1.31428211       0.35508719       1.24003672
12
Frame=13 idx=011944 GeodesicLength=0.8290845331048565 rxn_smarts="[N:1]([c:2]1[c:3]([H:10])[n:4]([H:11])[c:5]([O:6][H:12])[n:7]1)([H:8])[H:9]>>[N:1]([C:2]1=[N:7][C:5](=[O:6])[N:4]([H:11])[C:3]1([H:10])[H:12])([H:8])[H:9]"
N        2.01321717       0.59120480      -0.06622231
C        0.70830779       0.25159401      -0.23282636
C       -0.01440750      -0.80750559       0.44445813
N       -1.07642278      -0.94998779      -0.52929852
C       -1.36475091       0.38982863      -0.72258405
O       -2.27292837       0.83877495       0.06888509
N       -0.16451354       1.03521429      -0.86536523
H        2.58168181       0.03760259       0.54662930
H        2.22687579       1.56984349      -0.14538951
H        0.51513363      -1.73987103       0.62681037
H       -1.83948982      -1.58795149      -0.38752465
H       -1.31270328       0.37125315       1.26242774
12
Frame=14 idx=011944 GeodesicLength=0.8928348129035066 rxn_smarts="[N:1]([c:2]1[c:3]([H:10])[n:4]([H:11])[c:5]([O:6][H:12])[n:7]1)([H:8])[H:9]>>[N:1]([C:2]1=[N:7][C:5](=[O:6])[N:4]([H:11])[C:3]1([H:10])[H:12])([H:8])[H:9]"
N        2.01622925       0.58871233      -0.07045810
C        0.71038926       0.24724833      -0.23423551
C       -0.01368278      -0.80578791       0.45072083
N       -1.07623072      -0.94591139      -0.52013541
C       -1.37056695       0.39097074      -0.72521598
O       -2.28511204       0.84366309       0.05732852
N       -0.16647193       1.03274158      -0.86067561
H        2.58567981       0.03460167       0.54115945
H        2.22474276       1.56909880      -0.14200862
H        0.51365275      -1.74139202       0.62356333
H       -1.82791794      -1.60188361      -0.40552644
H       -1.31071148       0.38793839       1.28548353
12
Frame=15 idx=011944 GeodesicLength=0.9565787983147551 rxn_smarts="[N:1]([c:2]1[c:3]([H:10])[n:4]([H:11])[c:5]([O:6][H:12])[n:7]1)([H:8])[H:9]>>[N:1]([C:2]1=[N:7][C:5](=[O:6])[N:4]([H:11])[C:3]1([H:10])[H:12])([H:8])[H:9]"
N        2.01911947       0.58607277      -0.07484085
C        0.71229812       0.24285853      -0.23554615
C       -0.01305589      -0.80400547       0.45720858
N       -1.07638543      -0.94173242      -0.51047555
C       -1.37653605       0.39207036      -0.72777906
O       -2.29761480       0.84849158       0.04548488
N       -0.16866304       1.03034049      -0.85559009
H        2.58960445       0.03143879       0.53547991
H        2.22265087       1.56807180      -0.13896729
H        0.51191192      -1.74279394       0.62073261
H       -1.81506230      -1.61600249      -0.42496361
H       -1.30826733       0.40518999       1.30925661
12
Frame=16 idx=011944 GeodesicLength=1.020318036762792 rxn_smarts="[N:1]([c:2]1[c:3]([H:10])[n:4]([H:11])[c:5]([O:6][H:12])[n:7]1)([H:8])[H:9]>>[N:1]([C:2]1=[N:7][C:5](=[O:6])[N:4]([H:11])[C:3]1([H:10])[H:12])([H:8])[H:9]"
N        2.02186818       0.58325324      -0.07940206
C        0.71400204       0.23842057      -0.23673261
C       -0.01255364      -0.80213988       0.46397799
N       -1.07693962      -0.93744838      -0.50023030
C       -1.38268185       0.39311885      -0.73024732
O       -2.31048254       0.85325816       0.03333085
N       -0.17111734       1.02800721      -0.85007435
H        2.59344817       0.02807194       0.52953877
H        2.22060085       1.56673230      -0.13630774
H        0.50988140      -1.74406248       0.61838878
H       -1.80068685      -1.63027830      -0.44604892
H       -1.30533881       0.42306677       1.33380690
