9
Frame=0 idx=004146 GeodesicLength=0.0 rxn_smarts="[n:1]1([H:6])[c:2]([H:7])[c:3]([H:8])[n:4][c:5]1[H:9]>>[n:1]1([H:6])[c:2]([H:7])[c-:3][n:4]([H:8])[c+:5]1[H:9]"
N       -0.61681463       0.68704903      -0.04278185
C        0.74673310       0.87187939      -0.00249715
C        1.35452631      -0.34068121       0.21599917
N        0.23959443      -1.27710108       0.26967605
C       -0.88699785      -0.61479515       0.04805027
H       -1.31300252       1.41348073      -0.06187142
H        1.16708885       1.85858854      -0.10934257
H        1.19196580      -1.57005945      -0.33118879
H       -1.88309351      -1.02836081       0.01395626
9
Frame=1 idx=004146 GeodesicLength=0.042305490525570644 rxn_smarts="[n:1]1([H:6])[c:2]([H:7])[c:3]([H:8])[n:4][c:5]1[H:9]>>[n:1]1([H:6])[c:2]([H:7])[c-:3][n:4]([H:8])[c+:5]1[H:9]"
N       -0.62020454       0.69111501      -0.03895106
C        0.74394612       0.87401128      -0.00122592
C        1.34909820      -0.34077920       0.20709512
N        0.23744751      -1.27400397       0.25728447
C       -0.88956131      -0.61187610       0.04402362
H       -1.31591187       1.41803131      -0.04814671
H        1.16679506       1.85862267      -0.11664423
H        1.21363107      -1.58881565      -0.31275672
H       -1.88524023      -1.02630534       0.00932142
9
Frame=2 idx=004146 GeodesicLength=0.08459253010020605 rxn_smarts="[n:1]1([H:6])[c:2]([H:7])[c:3]([H:8])[n:4][c:5]1[H:9]>>[n:1]1([H:6])[c:2]([H:7])[c-:3][n:4]([H:8])[c+:5]1[H:9]"
N       -0.62361080       0.69525665      -0.03440016
C        0.74114176       0.87622951       0.00020218
C        1.34384379      -0.34103850       0.19563361
N        0.23542941      -1.27098646       0.24330307
C       -0.89224756      -0.60878376       0.04098990
H       -1.31880249       1.42254687      -0.03590858
H        1.16624948       1.85892722      -0.12250176
H        1.23546160      -1.60802633      -0.29244863
H       -1.88746520      -1.02412519       0.00513038
9
Frame=3 idx=004146 GeodesicLength=0.1268384101993234 rxn_smarts="[n:1]1([H:6])[c:2]([H:7])[c:3]([H:8])[n:4][c:5]1[H:9]>>[n:1]1([H:6])[c:2]([H:7])[c-:3][n:4]([H:8])[c+:5]1[H:9]"
N       -0.62697347       0.69930259      -0.03085851
C        0.73839831       0.87827298      -0.00047378
C        1.33872005      -0.34148199       0.18081275
N        0.23352557      -1.26810318       0.22701000
C       -0.89508975      -0.60559980       0.03870808
H       -1.32156476       1.42697564      -0.02638767
H        1.16538433       1.86010842      -0.12309880
H        1.25762024      -1.62783590      -0.26980811
H       -1.89002053      -1.02163876       0.00409604
9
Frame=4 idx=004146 GeodesicLength=0.1690620672635843 rxn_smarts="[n:1]1([H:6])[c:2]([H:7])[c:3]([H:8])[n:4][c:5]1[H:9]>>[n:1]1([H:6])[c:2]([H:7])[c-:3][n:4]([H:8])[c+:5]1[H:9]"
N       -0.63030984       0.70331446      -0.02770585
C        0.73564305       0.88034182      -0.00141907
C        1.33375022      -0.34216520       0.16183442
N        0.23172629      -1.26536748       0.20770310
C       -0.89803711      -0.60235130       0.03674380
H       -1.32432532       1.43132565      -0.02003664
H        1.16431695       1.86196472      -0.11930904
H        1.28010841      -1.64819789      -0.24428080
H       -1.89287265      -1.01886479       0.00647007
9
Frame=5 idx=004146 GeodesicLength=0.21123553972615758 rxn_smarts="[n:1]1([H:6])[c:2]([H:7])[c:3]([H:8])[n:4][c:5]1[H:9]>>[n:1]1([H:6])[c:2]([H:7])[c-:3][n:4]([H:8])[c+:5]1[H:9]"
N       -0.63360738       0.70726664      -0.02500138
C        0.73288011       0.88242639      -0.00232753
C        1.32892084      -0.34313677       0.13727118
N        0.23005091      -1.26284684       0.18436102
C       -0.90111993      -0.59901467       0.03603432
H       -1.32709705       1.43559852      -0.01840596
H        1.16310935       1.86451336      -0.10975162
H        1.30284523      -1.66895902      -0.21533015
H       -1.89598206      -1.01584760       0.01315012
9
Frame=6 idx=004146 GeodesicLength=0.2534226101131316 rxn_smarts="[n:1]1([H:6])[c:2]([H:7])[c:3]([H:8])[n:4][c:5]1[H:9]>>[n:1]1([H:6])[c:2]([H:7])[c-:3][n:4]([H:8])[c+:5]1[H:9]"
N       -0.63691488       0.71120412      -0.02175981
C        0.73007838       0.88448588      -0.00230436
C        1.32401316      -0.34442081       0.10558804
N        0.22838722      -1.26074622       0.15438669
C       -0.90443220      -0.59550096       0.03860990
H       -1.32988612       1.43985836      -0.02297646
H        1.16189407       1.86739784      -0.09417747
H        1.32616615      -1.68968860      -0.18148892
H       -1.89930578      -1.01258959       0.02412239
9
Frame=7 idx=004146 GeodesicLength=0.2953948888532236 rxn_smarts="[n:1]1([H:6])[c:2]([H:7])[c:3]([H:8])[n:4][c:5]1[H:9]>>[n:1]1([H:6])[c:2]([H:7])[c-:3][n:4]([H:8])[c+:5]1[H:9]"
N       -0.64012274       0.71505266      -0.02045750
C        0.72732923       0.88662090       0.00079856
C        1.31903301      -0.34595675       0.05837063
N        0.22670909      -1.25866235       0.11580888
C       -0.90760490      -0.59187978       0.04414998
H       -1.33270598       1.44370997      -0.03781130
H        1.16065235       1.87087620      -0.06627260
H        1.34920843      -1.71060710      -0.13898959
H       -1.90249848      -1.00915376       0.04440294
9
Frame=8 idx=004146 GeodesicLength=0.33588589175273637 rxn_smarts="[n:1]1([H:6])[c:2]([H:7])[c:3]([H:8])[n:4][c:5]1[H:9]>>[n:1]1([H:6])[c:2]([H:7])[c-:3][n:4]([H:8])[c+:5]1[H:9]"
N       -0.64349735       0.71872470      -0.02159235
C        0.72474923       0.88749152      -0.00963306
C        1.31276054      -0.34747958       0.00169456
N        0.22389185      -1.25706127       0.06179292
C       -0.91073048      -0.58916748       0.03492686
H       -1.33517461       1.44829364      -0.02571056
H        1.16034541       1.87247377      -0.04017853
H        1.37316221      -1.72747348      -0.06373700
H       -1.90550679      -1.00580182       0.06243717
9
Frame=9 idx=004146 GeodesicLength=0.3742206610245679 rxn_smarts="[n:1]1([H:6])[c:2]([H:7])[c:3]([H:8])[n:4][c:5]1[H:9]>>[n:1]1([H:6])[c:2]([H:7])[c-:3][n:4]([H:8])[c+:5]1[H:9]"
N       -0.64572568       0.72109337      -0.02476273
C        0.72335298       0.88678192      -0.02097247
C        1.30643620      -0.34961356      -0.06215267
N        0.22106362      -1.25616033      -0.00361283
C       -0.91259369      -0.58773099       0.02403091
H       -1.33649564       1.45127843      -0.01481338
H        1.16163214       1.87092609      -0.00785260
H        1.38802295      -1.73221270       0.02255744
H       -1.90569287      -1.00436223       0.08757833
9
Frame=10 idx=004146 GeodesicLength=0.41392002711216186 rxn_smarts="[n:1]1([H:6])[c:2]([H:7])[c:3]([H:8])[n:4][c:5]1[H:9]>>[n:1]1([H:6])[c:2]([H:7])[c-:3][n:4]([H:8])[c+:5]1[H:9]"
N       -0.64678307       0.72176846      -0.02874828
C        0.72302000       0.88448567      -0.02805665
C        1.30023558      -0.35184821      -0.11931462
N        0.21875475      -1.25549789      -0.06229942
C       -0.91280587      -0.58789705       0.01669212
H       -1.33640331       1.45250279      -0.00595814
H        1.16470068       1.86587873       0.01989193
H        1.39265057      -1.72445072       0.09843540
H       -1.90336933      -1.00494180       0.10935767
9
Frame=11 idx=004146 GeodesicLength=0.45461116827327686 rxn_smarts="[n:1]1([H:6])[c:2]([H:7])[c:3]([H:8])[n:4][c:5]1[H:9]>>[n:1]1([H:6])[c:2]([H:7])[c-:3][n:4]([H:8])[c+:5]1[H:9]"
N       -0.64714825       0.72190747      -0.03019900
C        0.72342239       0.88179790      -0.03260649
C        1.29456551      -0.35387643      -0.16366157
N        0.21666637      -1.25431670      -0.10983485
C       -0.91179457      -0.58860583       0.01600960
H       -1.33623401       1.45281130      -0.00730965
H        1.16840896       1.85963002       0.04515613
H        1.39169466      -1.71240730       0.15361239
H       -1.89958106      -1.00694045       0.12883344
9
Frame=12 idx=004146 GeodesicLength=0.4958945732806983 rxn_smarts="[n:1]1([H:6])[c:2]([H:7])[c:3]([H:8])[n:4][c:5]1[H:9]>>[n:1]1([H:6])[c:2]([H:7])[c-:3][n:4]([H:8])[c+:5]1[H:9]"
N       -0.64743589       0.72186518      -0.03225134
C        0.72392835       0.87905674      -0.03673337
C        1.28911732      -0.35590747      -0.19817005
N        0.21479966      -1.25308423      -0.14490361
C       -0.91059143      -0.58952202       0.01605185
H       -1.33583531       1.45301107      -0.00467249
H        1.17219562       1.85329819       0.06296502
H        1.39019372      -1.69961575       0.19709971
H       -1.89637205      -1.00910171       0.14061429
9
Frame=13 idx=004146 GeodesicLength=0.5372448206067628 rxn_smarts="[n:1]1([H:6])[c:2]([H:7])[c:3]([H:8])[n:4][c:5]1[H:9]>>[n:1]1([H:6])[c:2]([H:7])[c-:3][n:4]([H:8])[c+:5]1[H:9]"
N       -0.64772453       0.72176183      -0.03563356
C        0.72443804       0.87624464      -0.04013497
C        1.28394389      -0.35799763      -0.22612899
N        0.21311770      -1.25187658      -0.17410820
C       -0.90954238      -0.59050989       0.01366963
H       -1.33518833       1.45314563       0.00133743
H        1.17583633       1.84709790       0.07618409
H        1.38831523      -1.68660038       0.23478375
H       -1.89319596      -1.01126554       0.15003081
9
Frame=14 idx=004146 GeodesicLength=0.5786249235682954 rxn_smarts="[n:1]1([H:6])[c:2]([H:7])[c:3]([H:8])[n:4][c:5]1[H:9]>>[n:1]1([H:6])[c:2]([H:7])[c-:3][n:4]([H:8])[c+:5]1[H:9]"
N       -0.64798032       0.72162865      -0.03912803
C        0.72496199       0.87349891      -0.04389220
C        1.27907803      -0.36016081      -0.24975481
N        0.21155174      -1.25060093      -0.20010471
C       -0.90843912      -0.59153629       0.01107713
H       -1.33437583       1.45312220       0.00942633
H        1.17939585       1.84106426       0.08640858
H        1.38593281      -1.67347449       0.26897946
H       -1.89012515      -1.01354151       0.15698826
9
Frame=15 idx=004146 GeodesicLength=0.6200115967596347 rxn_smarts="[n:1]1([H:6])[c:2]([H:7])[c:3]([H:8])[n:4][c:5]1[H:9]>>[n:1]1([H:6])[c:2]([H:7])[c-:3][n:4]([H:8])[c+:5]1[H:9]"
N       -0.64823873       0.72148902      -0.04273432
C        0.72547335       0.87079955      -0.04781906
C        1.27436596      -0.36237850      -0.27066859
N        0.21001319      -1.24928331      -0.22379993
C       -0.90732737      -0.59257086       0.00843286
H       -1.33345362       1.45298515       0.01783652
H        1.18290016       1.83502642       0.09545590
H        1.38335269      -1.66023624       0.30028496
H       -1.88708563      -1.01583124       0.16301166
9
Frame=16 idx=004146 GeodesicLength=0.6614156692662342 rxn_smarts="[n:1]1([H:6])[c:2]([H:7])[c:3]([H:8])[n:4][c:5]1[H:9]>>[n:1]1([H:6])[c:2]([H:7])[c-:3][n:4]([H:8])[c+:5]1[H:9]"
N       -0.64849155       0.72134642      -0.04621267
C        0.72598550       0.86810624      -0.05154222
C        1.26975638      -0.36462995      -0.28961207
N        0.20845939      -1.24791318      -0.24597311
C       -0.90623253      -0.59361457       0.00565640
H       -1.33244851       1.45276275       0.02597486
H        1.18636981       1.82897870       0.10371050
H        1.38061043      -1.64688916       0.32930725
H       -1.88400892      -1.01814724       0.16869105
