14
Frame=0 idx=001902 GeodesicLength=0.0 rxn_smarts="[C:1]1([H:7])([H:8])[C:2]([H:9])([H:10])[C:3]12[C:4]([H:11])([H:12])[C:5]([H:13])([H:14])[O:6]2>>[C:1]1([H:7])([H:8])[C:2]([H:9])([H:10])[C:3](=[O+:6][C-:5]([H:13])[H:14])[C:4]1([H:11])[H:12]"
C       -1.17984269      -0.88086685      -0.27809413
C       -1.48107754       0.55383143      -0.52686012
C       -0.08900032       0.44086256      -0.04138534
C        0.15138677      -0.14858417       1.22397355
C        2.16871873       0.56056382      -0.13069979
O        0.90670467       0.69533899      -0.83256389
H       -0.76203211      -1.47196943      -1.08174943
H       -1.71623042      -1.42448389       0.48572628
H       -2.20099835       1.01159003       0.14280313
H       -1.54715635       0.88525194      -1.55595480
H        1.00598139      -0.77467302       1.39203250
H       -0.58100205      -0.03773278       2.01463857
H        2.89228713       1.09278017      -0.74789903
H        2.43226114      -0.50190877      -0.06396750
14
Frame=1 idx=001902 GeodesicLength=0.05877640371642129 rxn_smarts="[C:1]1([H:7])([H:8])[C:2]([H:9])([H:10])[C:3]12[C:4]([H:11])([H:12])[C:5]([H:13])([H:14])[O:6]2>>[C:1]1([H:7])([H:8])[C:2]([H:9])([H:10])[C:3](=[O+:6][C-:5]([H:13])[H:14])[C:4]1([H:11])[H:12]"
C       -1.19018294      -0.88461947      -0.26662419
C       -1.48171887       0.55198794      -0.53299756
C       -0.08614039       0.43032966      -0.06247376
C        0.16805938      -0.16015536       1.20339983
C        2.15967406       0.56658734      -0.11846202
O        0.91666513       0.68779524      -0.84724183
H       -0.79931982      -1.49208557      -1.07199196
H       -1.73771965      -1.41046965       0.50208404
H       -2.19055006       1.02742169       0.13645565
H       -1.55779995       0.86793875      -1.56659713
H        0.99384878      -0.82722959       1.36438545
H       -0.53500650      -0.00739844       2.01395156
H        2.88841929       1.13804828      -0.69207860
H        2.45177154      -0.48815083      -0.06180949
14
Frame=2 idx=001902 GeodesicLength=0.11749541124916632 rxn_smarts="[C:1]1([H:7])([H:8])[C:2]([H:9])([H:10])[C:3]12[C:4]([H:11])([H:12])[C:5]([H:13])([H:14])[O:6]2>>[C:1]1([H:7])([H:8])[C:2]([H:9])([H:10])[C:3](=[O+:6][C-:5]([H:13])[H:14])[C:4]1([H:11])[H:12]"
C       -1.19993235      -0.88809029      -0.25543853
C       -1.48218012       0.55015065      -0.53914567
C       -0.08327584       0.41965207      -0.08360933
C        0.18434852      -0.17224440       1.18265120
C        2.15057078       0.57184782      -0.10692299
O        0.92685929       0.68140121      -0.86119415
H       -0.83631068      -1.51132510      -1.06190011
H       -1.75819656      -1.39621337       0.51786305
H       -2.17985499       1.04282669       0.12986244
H       -1.56856710       0.85094656      -1.57680254
H        0.98152402      -0.87626607       1.33778288
H       -0.48719057       0.02093557       2.01161760
H        2.88182563       1.18079145      -0.63614878
H        2.47037997      -0.47441278      -0.05861507
14
Frame=3 idx=001902 GeodesicLength=0.1763359858964514 rxn_smarts="[C:1]1([H:7])([H:8])[C:2]([H:9])([H:10])[C:3]12[C:4]([H:11])([H:12])[C:5]([H:13])([H:14])[O:6]2>>[C:1]1([H:7])([H:8])[C:2]([H:9])([H:10])[C:3](=[O+:6][C-:5]([H:13])[H:14])[C:4]1([H:11])[H:12]"
C       -1.20928852      -0.89131269      -0.24442192
C       -1.48237607       0.54830898      -0.54534908
C       -0.08033130       0.40863254      -0.10494882
C        0.20032641      -0.18486467       1.16163562
C        2.14140072       0.57648068      -0.09605006
O        0.93728081       0.67584276      -0.87460782
H       -0.87343561      -1.52991734      -1.05129009
H       -1.77788874      -1.38153759       0.53328092
H       -2.16864220       1.05804453       0.12295808
H       -1.57942718       0.83409044      -1.58664740
H        0.96908357      -0.92241867       1.31200059
H       -0.43747450       0.04748553       2.00751981
H        2.87245390       1.22172064      -0.57954236
H        2.48831872      -0.46055514      -0.05453748
14
Frame=4 idx=001902 GeodesicLength=0.23523080979166028 rxn_smarts="[C:1]1([H:7])([H:8])[C:2]([H:9])([H:10])[C:3]12[C:4]([H:11])([H:12])[C:5]([H:13])([H:14])[O:6]2>>[C:1]1([H:7])([H:8])[C:2]([H:9])([H:10])[C:3](=[O+:6][C-:5]([H:13])[H:14])[C:4]1([H:11])[H:12]"
C       -1.21827058      -0.89426340      -0.23347557
C       -1.48224603       0.54645340      -0.55162702
C       -0.07727028       0.39726498      -0.12648151
C        0.21595809      -0.19789993       1.14038894
C        2.13220449       0.58082679      -0.08569772
O        0.94795952       0.67109010      -0.88747294
H       -0.91074277      -1.54781062      -1.04000859
H       -1.79692767      -1.36631358       0.54842963
H       -2.15683505       1.07311733       0.11565375
H       -1.59029763       0.81728127      -1.59614032
H        0.95654676      -0.96601423       1.28690935
H       -0.38612626       0.07184849       2.00165058
H        2.86041373       1.26070296      -0.52270540
H        2.50563366      -0.44628356      -0.04942318
14
Frame=5 idx=001902 GeodesicLength=0.29425861482550725 rxn_smarts="[C:1]1([H:7])([H:8])[C:2]([H:9])([H:10])[C:3]12[C:4]([H:11])([H:12])[C:5]([H:13])([H:14])[O:6]2>>[C:1]1([H:7])([H:8])[C:2]([H:9])([H:10])[C:3](=[O+:6][C-:5]([H:13])[H:14])[C:4]1([H:11])[H:12]"
C       -1.22672844      -0.89692801      -0.22260597
C       -1.48185998       0.54459738      -0.55798201
C       -0.07413147       0.38565144      -0.14823556
C        0.23123979      -0.21113878       1.11902293
C        2.12303444       0.58461735      -0.07605113
O        0.95881010       0.66734579      -0.89984013
H       -0.94788194      -1.56500330      -1.02804425
H       -1.81504762      -1.35063836       0.56336809
H       -2.14465644       1.08797747       0.10798366
H       -1.60124967       0.80059873      -1.60532662
H        0.94394555      -1.00723139       1.26270357
H       -0.33344275       0.09434474       1.99408560
H        2.84572975       1.29780720      -0.46529697
H        2.52223871      -0.43200026      -0.04378120
14
Frame=6 idx=001902 GeodesicLength=0.35368210606857114 rxn_smarts="[C:1]1([H:7])([H:8])[C:2]([H:9])([H:10])[C:3]12[C:4]([H:11])([H:12])[C:5]([H:13])([H:14])[O:6]2>>[C:1]1([H:7])([H:8])[C:2]([H:9])([H:10])[C:3](=[O+:6][C-:5]([H:13])[H:14])[C:4]1([H:11])[H:12]"
C       -1.23484750      -0.89936313      -0.21174010
C       -1.48119088       0.54284220      -0.56455522
C       -0.07084452       0.37364667      -0.17028950
C        0.24633835      -0.22467893       1.09760064
C        2.11388824       0.58830399      -0.06687027
O        0.96982651       0.66432358      -0.91188034
H       -0.98532441      -1.58173068      -1.01535988
H       -1.83252594      -1.33429978       0.57826173
H       -2.13186764       1.10307840       0.09979471
H       -1.61239688       0.78393242      -1.61446750
H        0.93151370      -1.04660405       1.23923930
H       -0.27938840       0.11455268       1.98501083
H        2.82833074       1.33330228      -0.40749824
H        2.53848864      -0.41730565      -0.03724615
14
Frame=7 idx=001902 GeodesicLength=0.4130577432769248 rxn_smarts="[C:1]1([H:7])([H:8])[C:2]([H:9])([H:10])[C:3]12[C:4]([H:11])([H:12])[C:5]([H:13])([H:14])[O:6]2>>[C:1]1([H:7])([H:8])[C:2]([H:9])([H:10])[C:3](=[O+:6][C-:5]([H:13])[H:14])[C:4]1([H:11])[H:12]"
C       -1.24256788      -0.90138951      -0.20074937
C       -1.48000624       0.54091707      -0.57110686
C       -0.06734000       0.36117923      -0.19267794
C        0.26110236      -0.23835546       1.07575461
C        2.10478365       0.59170139      -0.05838451
O        0.98108854       0.66204940      -0.92339223
H       -1.02291237      -1.59756146      -1.00147043
H       -1.84929113      -1.31717418       0.59306684
H       -2.11824921       1.11780590       0.09114500
H       -1.62334472       0.76709744      -1.62295642
H        0.91886338      -1.08388500       1.21620173
H       -0.22437817       0.13264632       1.97372988
H        2.80817658       1.36709187      -0.34894431
H        2.55407521      -0.40212301      -0.03021600
14
Frame=8 idx=001902 GeodesicLength=0.47285912298591115 rxn_smarts="[C:1]1([H:7])([H:8])[C:2]([H:9])([H:10])[C:3]12[C:4]([H:11])([H:12])[C:5]([H:13])([H:14])[O:6]2>>[C:1]1([H:7])([H:8])[C:2]([H:9])([H:10])[C:3](=[O+:6][C-:5]([H:13])[H:14])[C:4]1([H:11])[H:12]"
C       -1.24976545      -0.90316443      -0.18974863
C       -1.47855896       0.53911005      -0.57788956
C       -0.06369698       0.34845503      -0.21535738
C        0.27573597      -0.25207924       1.05399255
C        2.09575985       0.59500305      -0.05041554
O        0.99239291       0.66076445      -0.93456533
H       -1.06042388      -1.61286314      -0.98679173
H       -1.86515672      -1.29944619       0.60786112
H       -2.10417830       1.13270368       0.08195269
H       -1.63452800       0.75035107      -1.63141979
H        0.90644788      -1.11953523       1.19406837
H       -0.16861643       0.14845262       1.96111544
H        2.78541730       1.39896088      -0.29013814
H        2.56917083      -0.38671258      -0.02266406
14
Frame=9 idx=001902 GeodesicLength=0.5328684451708484 rxn_smarts="[C:1]1([H:7])([H:8])[C:2]([H:9])([H:10])[C:3]12[C:4]([H:11])([H:12])[C:5]([H:13])([H:14])[O:6]2>>[C:1]1([H:7])([H:8])[C:2]([H:9])([H:10])[C:3](=[O+:6][C-:5]([H:13])[H:14])[C:4]1([H:11])[H:12]"
C       -1.25646661      -0.90456756      -0.17862210
C       -1.47663995       0.53727182      -0.58478524
C       -0.05982172       0.33536668      -0.23831232
C        0.29020386      -0.26581094       1.03209657
C        2.08678482       0.59835461      -0.04296095
O        1.00381070       0.66030767      -0.94528732
H       -1.09797311      -1.62736221      -0.97100302
H       -1.88021968      -1.28089964       0.62262936
H       -2.08935612       1.14752921       0.07217659
H       -1.64567205       0.73348027      -1.63951616
H        0.89406470      -1.15353052       1.17251683
H       -0.11248158       0.16169685       1.94685950
H        2.76004890       1.42887799      -0.23122966
H        2.58371783      -0.37071425      -0.01456209
14
Frame=10 idx=001902 GeodesicLength=0.5932423934455662 rxn_smarts="[C:1]1([H:7])([H:8])[C:2]([H:9])([H:10])[C:3]12[C:4]([H:11])([H:12])[C:5]([H:13])([H:14])[O:6]2>>[C:1]1([H:7])([H:8])[C:2]([H:9])([H:10])[C:3](=[O+:6][C-:5]([H:13])[H:14])[C:4]1([H:11])[H:12]"
C       -1.26259691      -0.90561652      -0.16738798
C       -1.47431239       0.53547160      -0.59184827
C       -0.05573062       0.32197797      -0.26158205
C        0.30460417      -0.27948138       1.01016376
C        2.07791126       0.60170608      -0.03609199
O        1.01524926       0.66074496      -0.95565952
H       -1.13540652      -1.64112267      -0.95414545
H       -1.89433635      -1.26159252       0.63742184
H       -2.07390856       1.16237792       0.06180438
H       -1.65689758       0.71657378      -1.64736900
H        0.88183005      -1.18602293       1.15168089
H       -0.05622182       0.17248284       1.93121638
H        2.73204629       1.45681116      -0.17210313
H        2.59776972      -0.35431030      -0.00609988
14
Frame=11 idx=001902 GeodesicLength=0.6539637988176507 rxn_smarts="[C:1]1([H:7])([H:8])[C:2]([H:9])([H:10])[C:3]12[C:4]([H:11])([H:12])[C:5]([H:13])([H:14])[O:6]2>>[C:1]1([H:7])([H:8])[C:2]([H:9])([H:10])[C:3](=[O+:6][C-:5]([H:13])[H:14])[C:4]1([H:11])[H:12]"
C       -1.26812167      -0.90627372      -0.15602820
C       -1.47151435       0.53369135      -0.59905332
C       -0.05139320       0.30828681      -0.28514561
C        0.31896818      -0.29306859       0.98817275
C        2.06912748       0.60515834      -0.02978421
O        1.02668982       0.66201045      -0.96566949
H       -1.17267247      -1.65404319      -0.93614862
H       -1.90747886      -1.24147674       0.65222085
H       -2.05777111       1.17719809       0.05082235
H       -1.66813401       0.69961926      -1.65489336
H        0.86972392      -1.21708670       1.13150148
H       -0.00017228       0.18069940       1.91426712
H        2.70142545       1.48265972      -0.11299456
H        2.61132311      -0.33737447       0.00273282
14
Frame=12 idx=001902 GeodesicLength=0.7152346913933655 rxn_smarts="[C:1]1([H:7])([H:8])[C:2]([H:9])([H:10])[C:3]12[C:4]([H:11])([H:12])[C:5]([H:13])([H:14])[O:6]2>>[C:1]1([H:7])([H:8])[C:2]([H:9])([H:10])[C:3](=[O+:6][C-:5]([H:13])[H:14])[C:4]1([H:11])[H:12]"
C       -1.27307567      -0.90656731      -0.14454599
C       -1.46827840       0.53201339      -0.60648117
C       -0.04679721       0.29425629      -0.30907732
C        0.33345423      -0.30663464       0.96615421
C        2.06048625       0.60878429      -0.02403799
O        1.03808104       0.66395988      -0.97546312
H       -1.20989360      -1.66623738      -0.91702007
H       -1.91961642      -1.22051985       0.66709983
H       -2.04090647       1.19220342       0.03917060
H       -1.67951568       0.68268368      -1.66222581
H        0.85788463      -1.24700441       1.11198293
H        0.05560442       0.18636307       1.89625874
H        2.66801938       1.50658976      -0.05381322
H        2.62455351      -0.31989019       0.01199840
14
Frame=13 idx=001902 GeodesicLength=0.7767131819959261 rxn_smarts="[C:1]1([H:7])([H:8])[C:2]([H:9])([H:10])[C:3]12[C:4]([H:11])([H:12])[C:5]([H:13])([H:14])[O:6]2>>[C:1]1([H:7])([H:8])[C:2]([H:9])([H:10])[C:3](=[O+:6][C-:5]([H:13])[H:14])[C:4]1([H:11])[H:12]"
C       -1.27727266      -0.90634397      -0.13289443
C       -1.46440606       0.53024141      -0.61394077
C       -0.04189930       0.27995539      -0.33315392
C        0.34784501      -0.32006256       0.94401046
C        2.05177639       0.61272522      -0.01875207
O        1.04943584       0.66674883      -0.98473203
H       -1.24665305      -1.67718427      -0.89662190
H       -1.93070703      -1.19864229       0.68188168
H       -2.02329325       1.20686645       0.02690763
H       -1.69064679       0.66554975      -1.66893654
H        0.84604206      -1.27545981       1.09292007
H        0.11032232       0.18919553       1.87713497
H        2.63234622       1.52791949       0.00460477
H        2.63711029      -0.30150917       0.02157210
14
Frame=14 idx=001902 GeodesicLength=0.838545058588418 rxn_smarts="[C:1]1([H:7])([H:8])[C:2]([H:9])([H:10])[C:3]12[C:4]([H:11])([H:12])[C:5]([H:13])([H:14])[O:6]2>>[C:1]1([H:7])([H:8])[C:2]([H:9])([H:10])[C:3](=[O+:6][C-:5]([H:13])[H:14])[C:4]1([H:11])[H:12]"
C       -1.28062952      -0.90577247      -0.12128143
C       -1.46018530       0.52855363      -0.62151857
C       -0.03683495       0.26568633      -0.35730673
C        0.36229110      -0.33322303       0.92204824
C        2.04315977       0.61684989      -0.01386829
O        1.06054295       0.67046293      -0.99355435
H       -1.28260198      -1.68717704      -0.87534972
H       -1.94052738      -1.17630423       0.69641168
H       -2.00539425       1.22133905       0.01410909
H       -1.70185947       0.64865085      -1.67529446
H        0.83436476      -1.30263063       1.07483714
H        0.16394112       0.18973226       1.85747098
H        2.59474428       1.54663530       0.06198447
H        2.64898888      -0.28280286       0.03131195
14
Frame=15 idx=001902 GeodesicLength=0.9006734229020449 rxn_smarts="[C:1]1([H:7])([H:8])[C:2]([H:9])([H:10])[C:3]12[C:4]([H:11])([H:12])[C:5]([H:13])([H:14])[O:6]2>>[C:1]1([H:7])([H:8])[C:2]([H:9])([H:10])[C:3](=[O+:6][C-:5]([H:13])[H:14])[C:4]1([H:11])[H:12]"
C       -1.28313330      -0.90479324      -0.10969125
C       -1.45553137       0.52689580      -0.62913890
C       -0.03157019       0.25143401      -0.38147500
C        0.37675481      -0.34614163       0.90018226
C        2.03455561       0.62120853      -0.00937678
O        1.07142235       0.67493905      -1.00190627
H       -1.31767428      -1.69602827      -0.85316190
H       -1.94911641      -1.15346049       0.71063687
H       -1.98715357       1.23547812       0.00081739
H       -1.71300755       0.63191272      -1.68112393
H        0.82275076      -1.32850906       1.05759093
H        0.21619627       0.18794803       1.83729829
H        2.55532654       1.56269465       0.11810258
H        2.66018033      -0.26357824       0.04124573
14
Frame=16 idx=001902 GeodesicLength=0.9630644416394303 rxn_smarts="[C:1]1([H:7])([H:8])[C:2]([H:9])([H:10])[C:3]12[C:4]([H:11])([H:12])[C:5]([H:13])([H:14])[O:6]2>>[C:1]1([H:7])([H:8])[C:2]([H:9])([H:10])[C:3](=[O+:6][C-:5]([H:13])[H:14])[C:4]1([H:11])[H:12]"
C       -1.28472602      -0.90346182      -0.09821677
C       -1.45054327       0.52529316      -0.63678326
C       -0.02616894       0.23737293      -0.40552886
C        0.39122426      -0.35874825       0.87853205
C        2.02594173       0.62577631      -0.00519201
O        1.08197170       0.68021529      -1.00974080
H       -1.35160612      -1.70374463      -0.83027555
H       -1.95642886      -1.13033562       0.72441791
H       -1.96882131       1.24921042      -0.01289012
H       -1.72414132       0.61543421      -1.68643701
H        0.81117649      -1.35309885       1.04135163
H        0.26691052       0.18408726       1.81691302
H        2.51460750       1.57598591       0.17257011
H        2.67060364      -0.24398631       0.05127964
