14
Frame=0 idx=007371 GeodesicLength=0.0 rxn_smarts="[C:1]1([H:8])([H:9])[C@@:2]2([H:10])[C:3]([H:11])([H:12])[O:4][C:5]([H:13])=[N:6][C@@:7]12[H:14]>>[C:1]1([H:8])([H:9])[C:2]([H:10])([H:14])[C:3]([H:11])([H:12])[O:4][C:5]([H:13])=[N+:6]=[C-:7]1"
C       -1.47835128      -0.48777200       0.29748296
C       -0.70276936       0.40189576      -0.64215799
C        0.45548922       1.21489367      -0.13027844
O        1.70419720       0.49328123      -0.07837224
C        1.65887756      -0.70354653       0.54459677
N        0.69159040      -1.51145795       0.51681225
C       -0.43460812      -1.41240561      -0.25519264
H       -1.38524395      -0.24714970       1.35272060
H       -2.50220348      -0.68547430      -0.00179887
H       -1.26233124       0.82446130      -1.47082726
H        0.26091754       1.59917514       0.87368174
H        0.65296712       2.05472393      -0.79275628
H        2.56910583      -0.92876141       1.09058927
H       -0.22763742      -0.61186348      -1.30449984
14
Frame=1 idx=007371 GeodesicLength=0.048685916015479114 rxn_smarts="[C:1]1([H:8])([H:9])[C@@:2]2([H:10])[C:3]([H:11])([H:12])[O:4][C:5]([H:13])=[N:6][C@@:7]12[H:14]>>[C:1]1([H:8])([H:9])[C:2]([H:10])([H:14])[C:3]([H:11])([H:12])[O:4][C:5]([H:13])=[N+:6]=[C-:7]1"
C       -1.47303132      -0.49048957       0.30029293
C       -0.70225886       0.40062940      -0.64285573
C        0.45656696       1.21512138      -0.13344719
O        1.70434256       0.49660507      -0.05860963
C        1.65622177      -0.70421450       0.55537224
N        0.69680984      -1.51990695       0.50264995
C       -0.43075488      -1.41023771      -0.26229188
H       -1.37463821      -0.25183817       1.35558431
H       -2.49769975      -0.68989337       0.00498868
H       -1.27466434       0.83907321      -1.45435003
H        0.25537994       1.61692162       0.86240535
H        0.66109630       2.04518488      -0.80661498
H        2.56282767      -0.93187799       1.10632573
H       -0.24019766      -0.61507729      -1.32944974
14
Frame=2 idx=007371 GeodesicLength=0.09734860934249062 rxn_smarts="[C:1]1([H:8])([H:9])[C@@:2]2([H:10])[C:3]([H:11])([H:12])[O:4][C:5]([H:13])=[N:6][C@@:7]12[H:14]>>[C:1]1([H:8])([H:9])[C:2]([H:10])([H:14])[C:3]([H:11])([H:12])[O:4][C:5]([H:13])=[N+:6]=[C-:7]1"
C       -1.46754345      -0.49326429       0.30308794
C       -0.70176624       0.39943449      -0.64362328
C        0.45767812       1.21535851      -0.13660490
O        1.70417857       0.50013423      -0.03823170
C        1.65346086      -0.70494587       0.56610777
N        0.70234055      -1.52800548       0.48808448
C       -0.42670424      -1.40793046      -0.26951934
H       -1.36382837      -0.25657965       1.35839642
H       -2.49299906      -0.69448214       0.01180608
H       -1.28671614       0.85356221      -1.43739638
H        0.24974759       1.63481191       0.85063862
H        0.66959322       2.03517584      -0.82054857
H        2.55625304      -0.93507414       1.12224613
H       -0.25369445      -0.61819518      -1.35444325
14
Frame=3 idx=007371 GeodesicLength=0.14598737033102466 rxn_smarts="[C:1]1([H:8])([H:9])[C@@:2]2([H:10])[C:3]([H:11])([H:12])[O:4][C:5]([H:13])=[N:6][C@@:7]12[H:14]>>[C:1]1([H:8])([H:9])[C:2]([H:10])([H:14])[C:3]([H:11])([H:12])[O:4][C:5]([H:13])=[N+:6]=[C-:7]1"
C       -1.46189513      -0.49609195       0.30585700
C       -0.70128852       0.39831118      -0.64446339
C        0.45881648       1.21560965      -0.13973538
O        1.70367059       0.50389333      -0.01718198
C        1.65060753      -0.70573330       0.57679437
N        0.70818316      -1.53570457       0.47316079
C       -0.42244766      -1.40547770      -0.27685105
H       -1.35284655      -0.26135447       1.36114457
H       -2.48810076      -0.69924508       0.01862327
H       -1.29845003       0.86790376      -1.41999854
H        0.24400573       1.65284749       0.83837412
H        0.67847137       2.02467602      -0.83452748
H        2.54943398      -0.93839572       1.13824556
H       -0.26816019      -0.62123865      -1.37944187
14
Frame=4 idx=007371 GeodesicLength=0.19460229455418382 rxn_smarts="[C:1]1([H:8])([H:9])[C@@:2]2([H:10])[C:3]([H:11])([H:12])[O:4][C:5]([H:13])=[N:6][C@@:7]12[H:14]>>[C:1]1([H:8])([H:9])[C:2]([H:10])([H:14])[C:3]([H:11])([H:12])[O:4][C:5]([H:13])=[N+:6]=[C-:7]1"
C       -1.45609531      -0.49896758       0.30858842
C       -0.70082256       0.39725976      -0.64537901
C        0.45997552       1.21587936      -0.14282087
O        1.70277801       0.50790540       0.00459896
C        1.64767520      -0.70656856       0.58742425
N        0.71433575      -1.54295765       0.45792665
C       -0.41797773      -1.40287336      -0.28426420
H       -1.34172656      -0.26614280       1.36381649
H       -2.48300594      -0.70418497       0.02540906
H       -1.30983012       0.88207376      -1.40219330
H        0.23813951       1.67103043       0.82560379
H        0.68774788       2.01366237      -0.84851854
H        2.54243150      -0.94188528       1.15421197
H       -0.28362514      -0.62423088      -1.40440366
14
Frame=5 idx=007371 GeodesicLength=0.24319505811947004 rxn_smarts="[C:1]1([H:8])([H:9])[C@@:2]2([H:10])[C:3]([H:11])([H:12])[O:4][C:5]([H:13])=[N:6][C@@:7]12[H:14]>>[C:1]1([H:8])([H:9])[C:2]([H:10])([H:14])[C:3]([H:11])([H:12])[O:4][C:5]([H:13])=[N+:6]=[C-:7]1"
C       -1.45015080      -0.50188709       0.31127196
C       -0.70036614       0.39628180      -0.64637232
C        0.46115104       1.21617066      -0.14584508
O        1.70145616       0.51218842       0.02716402
C        1.64468189      -0.70744778       0.59797659
N        0.72079738      -1.54972527       0.44241827
C       -0.41328886      -1.40011195      -0.29174436
H       -1.33049392      -0.27093029       1.36640225
H       -2.47771570      -0.70930250       0.03213863
H       -1.32082662       0.89605299      -1.38401561
H        0.23214147       1.68936020       0.81231775
H        0.69744423       2.00210869      -0.86248760
H        2.53529258      -0.94556488       1.17006379
H       -0.30012269      -0.62719302      -1.42928829
14
Frame=6 idx=007371 GeodesicLength=0.29176784562371594 rxn_smarts="[C:1]1([H:8])([H:9])[C@@:2]2([H:10])[C:3]([H:11])([H:12])[O:4][C:5]([H:13])=[N:6][C@@:7]12[H:14]>>[C:1]1([H:8])([H:9])[C:2]([H:10])([H:14])[C:3]([H:11])([H:12])[O:4][C:5]([H:13])=[N+:6]=[C-:7]1"
C       -1.44407253      -0.50484452       0.31389517
C       -0.69991630       0.39537829      -0.64744640
C        0.46233657       1.21648775      -0.14878801
O        1.69965123       0.51676029       0.05057639
C        1.64164276      -0.70836148       0.60844317
N        0.72756220      -1.55596737       0.42668434
C       -0.40837626      -1.39718758      -0.29927295
H       -1.31918278      -0.27569871       1.36889033
H       -2.47223418      -0.71459688       0.03878078
H       -1.33140727       0.90981973      -1.36550943
H        0.22599888       1.70783969       0.79850570
H        0.70758562       1.98998644      -0.87639457
H        2.52809058      -0.94946567       1.18568373
H       -0.31767855      -0.63014997      -1.45404826
14
Frame=7 idx=007371 GeodesicLength=0.34032488359483887 rxn_smarts="[C:1]1([H:8])([H:9])[C@@:2]2([H:10])[C:3]([H:11])([H:12])[O:4][C:5]([H:13])=[N:6][C@@:7]12[H:14]>>[C:1]1([H:8])([H:9])[C:2]([H:10])([H:14])[C:3]([H:11])([H:12])[O:4][C:5]([H:13])=[N+:6]=[C-:7]1"
C       -1.43786992      -0.50783476       0.31644695
C       -0.69947111       0.39455143      -0.64860374
C        0.46352789       1.21683352      -0.15163088
O        1.69730439       0.52163338       0.07489356
C        1.63857731      -0.70930352       0.61880422
N        0.73462549      -1.56165066       0.41076258
C       -0.40323701      -1.39409489      -0.30683921
H       -1.30781986      -0.28043473       1.37127148
H       -2.46656627      -0.72006567       0.04531016
H       -1.34154626       0.92335694      -1.34671699
H        0.21970635       1.72646964       0.78415545
H        0.71820217       1.97726328      -0.89019751
H        2.52088689      -0.95359951       1.20098140
H       -0.33632004      -0.63312446      -1.47863749
14
Frame=8 idx=007371 GeodesicLength=0.3888760421816649 rxn_smarts="[C:1]1([H:8])([H:9])[C@@:2]2([H:10])[C:3]([H:11])([H:12])[O:4][C:5]([H:13])=[N:6][C@@:7]12[H:14]>>[C:1]1([H:8])([H:9])[C:2]([H:10])([H:14])[C:3]([H:11])([H:12])[O:4][C:5]([H:13])=[N+:6]=[C-:7]1"
C       -1.43155876      -0.51085329       0.31891605
C       -0.69903044       0.39380412      -0.64984934
C        0.46472168       1.21721154      -0.15435401
O        1.69435267       0.52681675       0.10017640
C        1.63550783      -0.71026471       0.62904666
N        0.74197994      -1.56674394       0.39469805
C       -0.39787114      -1.39082815      -0.31443163
H       -1.29643905      -0.28512764       1.37353948
H       -2.46072563      -0.72570710       0.05169932
H       -1.35122134       0.93665023      -1.32768989
H        0.21326005       1.74524968       0.76925515
H        0.72933148       1.96390808      -0.90385094
H        2.51376328      -0.95797610       1.21585343
H       -0.35607057      -0.63613947      -1.50300874
14
Frame=9 idx=007371 GeodesicLength=0.4374202024112946 rxn_smarts="[C:1]1([H:8])([H:9])[C@@:2]2([H:10])[C:3]([H:11])([H:12])[O:4][C:5]([H:13])=[N:6][C@@:7]12[H:14]>>[C:1]1([H:8])([H:9])[C:2]([H:10])([H:14])[C:3]([H:11])([H:12])[O:4][C:5]([H:13])=[N+:6]=[C-:7]1"
C       -1.42512474      -0.51389681       0.32129403
C       -0.69859013       0.39314206      -0.65117692
C        0.46591676       1.21761861      -0.15694491
O        1.69071427       0.53230417       0.12645103
C        1.63245600      -0.71124933       0.63910338
N        0.74962458      -1.57123229       0.37847473
C       -0.39227501      -1.38738295      -0.32206446
H       -1.28502285      -0.28977603       1.37567992
H       -2.45469077      -0.73151187       0.05794497
H       -1.36042314       0.94969263      -1.30843838
H        0.20668410       1.76417747       0.75378026
H        0.74099964       1.94986962      -0.91730779
H        2.50669500      -0.96254838       1.23032168
H       -0.37696370      -0.63920690      -1.52711752
14
Frame=10 idx=007371 GeodesicLength=0.4859810635925352 rxn_smarts="[C:1]1([H:8])([H:9])[C@@:2]2([H:10])[C:3]([H:11])([H:12])[O:4][C:5]([H:13])=[N:6][C@@:7]12[H:14]>>[C:1]1([H:8])([H:9])[C:2]([H:10])([H:14])[C:3]([H:11])([H:12])[O:4][C:5]([H:13])=[N+:6]=[C-:7]1"
C       -1.41855666      -0.51697687       0.32358460
C       -0.69816087       0.39257768      -0.65258284
C        0.46712352       1.21805489      -0.15940570
O        1.68632035       0.53809040       0.15376371
C        1.62946509      -0.71226721       0.64889048
N        0.75758499      -1.57511082       0.36203255
C       -0.38644703      -1.38375153      -0.32978109
H       -1.27353067      -0.29441315       1.37770316
H       -2.44846021      -0.73749172       0.06407329
H       -1.36916462       0.96250421      -1.28896563
H        0.20000298       1.78326674       0.73768481
H        0.75327322       1.93508864      -0.93055458
H        2.49961309      -0.96725328       1.24449516
H       -0.39906317      -0.64231798      -1.55093792
14
Frame=11 idx=007371 GeodesicLength=0.534587244447733 rxn_smarts="[C:1]1([H:8])([H:9])[C@@:2]2([H:10])[C:3]([H:11])([H:12])[O:4][C:5]([H:13])=[N:6][C@@:7]12[H:14]>>[C:1]1([H:8])([H:9])[C:2]([H:10])([H:14])[C:3]([H:11])([H:12])[O:4][C:5]([H:13])=[N+:6]=[C-:7]1"
C       -1.41185904      -0.52009425       0.32578047
C       -0.69774673       0.39211912      -0.65406923
C        0.46834422       1.21852242      -0.16172354
O        1.68108722       0.54416854       0.18216017
C        1.62657566      -0.71330907       0.65835759
N        0.76586394      -1.57835852       0.34537115
C       -0.38038826      -1.37992715      -0.33759346
H       -1.26196547      -0.29904459       1.37960663
H       -2.44204130      -0.74364608       0.07007672
H       -1.37745066       0.97508148      -1.26930201
H        0.19324070       1.80251998       0.72094397
H        0.76619831       1.91951072      -0.94354633
H        2.49253806      -0.97206391       1.25836643
H       -0.42239663      -0.64547869      -1.57442858
14
Frame=12 idx=007371 GeodesicLength=0.5832456872233227 rxn_smarts="[C:1]1([H:8])([H:9])[C@@:2]2([H:10])[C:3]([H:11])([H:12])[O:4][C:5]([H:13])=[N:6][C@@:7]12[H:14]>>[C:1]1([H:8])([H:9])[C:2]([H:10])([H:14])[C:3]([H:11])([H:12])[O:4][C:5]([H:13])=[N+:6]=[C-:7]1"
C       -1.40504933      -0.52323866       0.32786325
C       -0.69734454       0.39176861      -0.65563953
C        0.46956955       1.21902475      -0.16387086
O        1.67489832       0.55052935       0.21171242
C        1.62379966      -0.71434454       0.66750284
N        0.77444049      -1.58094054       0.32855533
C       -0.37409963      -1.37590262      -0.34548219
H       -1.25036965      -0.30364906       1.38137233
H       -2.43544184      -0.74996888       0.07591588
H       -1.38525457       0.98740666      -1.24950649
H        0.18639999       1.82194053       0.70353647
H        0.77982171       1.90308498      -0.95620240
H        2.48558656      -0.97699002       1.27175799
H       -0.44695671      -0.64872056      -1.59751503
14
Frame=13 idx=007371 GeodesicLength=0.631970099100493 rxn_smarts="[C:1]1([H:8])([H:9])[C@@:2]2([H:10])[C:3]([H:11])([H:12])[O:4][C:5]([H:13])=[N:6][C@@:7]12[H:14]>>[C:1]1([H:8])([H:9])[C:2]([H:10])([H:14])[C:3]([H:11])([H:12])[O:4][C:5]([H:13])=[N+:6]=[C-:7]1"
C       -1.39815122      -0.52640002       0.32981481
C       -0.69695325       0.39152968      -0.65729760
C        0.47079285       1.21956382      -0.16581965
O        1.66762974       0.55715173       0.24248124
C        1.62114997      -0.71534070       0.67632736
N        0.78329236      -1.58282776       0.31165139
C       -0.36758612      -1.37167167      -0.35342913
H       -1.23878997      -0.30820753       1.38298540
H       -2.42867854      -0.75645179       0.08154973
H       -1.39255704       0.99946597      -1.22964262
H        0.17949528       1.84152459       0.68544404
H        0.79419378       1.88575893      -0.96843389
H        2.47889017      -0.98202265       1.28449421
H       -0.47272803      -0.65207259      -1.62012528
14
Frame=14 idx=007371 GeodesicLength=0.6807771724785562 rxn_smarts="[C:1]1([H:8])([H:9])[C@@:2]2([H:10])[C:3]([H:11])([H:12])[O:4][C:5]([H:13])=[N:6][C@@:7]12[H:14]>>[C:1]1([H:8])([H:9])[C:2]([H:10])([H:14])[C:3]([H:11])([H:12])[O:4][C:5]([H:13])=[N+:6]=[C-:7]1"
C       -1.39119566      -0.52956630       0.33161460
C       -0.69657179       0.39140548      -0.65904791
C        0.47200835       1.22013899      -0.16753942
O        1.65914727       0.56400074       0.27451598
C        1.61863239      -0.71625911       0.68484401
N        0.79238923      -1.58399438       0.29473960
C       -0.36085665      -1.36722918      -0.36141173
H       -1.22728471      -0.31269827       1.38442957
H       -2.42177492      -0.76308340       0.08693027
H       -1.39933966       1.01124808      -1.20977983
H        0.17255222       1.86125985       0.66665419
H        0.80936505       1.86748130      -0.98013625
H        2.47260931      -0.98713612       1.29637265
H       -0.49968042      -0.65556767      -1.64218571
14
Frame=15 idx=007371 GeodesicLength=0.7296872921103412 rxn_smarts="[C:1]1([H:8])([H:9])[C@@:2]2([H:10])[C:3]([H:11])([H:12])[O:4][C:5]([H:13])=[N:6][C@@:7]12[H:14]>>[C:1]1([H:8])([H:9])[C:2]([H:10])([H:14])[C:3]([H:11])([H:12])[O:4][C:5]([H:13])=[N+:6]=[C-:7]1"
C       -1.38422910      -0.53272050       0.33323666
C       -0.69619744       0.39139734      -0.66089698
C        0.47320918       1.22074688      -0.16899257
O        1.64930412       0.57102734       0.30786140
C        1.61623460      -0.71705200       0.69310265
N        0.80168626      -1.58441718       0.27793557
C       -0.35392544      -1.36257217      -0.36939322
H       -1.21594146      -0.31708930       1.38568520
H       -2.41476796      -0.76984603       0.09199085
H       -1.40558018       1.02274137      -1.19000201
H        0.16560213       1.88112447       0.64716507
H        0.82538558       1.84820219      -0.99118406
H        2.46697692      -0.99229541       1.30711042
H       -0.52775722      -0.65924700      -1.66361898
14
Frame=16 idx=007371 GeodesicLength=0.7787124868595213 rxn_smarts="[C:1]1([H:8])([H:9])[C@@:2]2([H:10])[C:3]([H:11])([H:12])[O:4][C:5]([H:13])=[N:6][C@@:7]12[H:14]>>[C:1]1([H:8])([H:9])[C:2]([H:10])([H:14])[C:3]([H:11])([H:12])[O:4][C:5]([H:13])=[N+:6]=[C-:7]1"
C       -1.37731527      -0.53583780       0.33464658
C       -0.69582253       0.39150174      -0.66285316
C        0.47438815       1.22137807      -0.17013176
O        1.63794403       0.57816252       0.34254327
C        1.61391323      -0.71766244       0.70119918
N        0.81111288      -1.58407777       0.26140272
C       -0.34681574      -1.35770156      -0.37731723
H       -1.20488347      -0.32133313       1.38672474
H       -2.40770665      -0.77671308       0.09664008
H       -1.41124205       1.03393232      -1.17041215
H        0.15868584       1.90107698       0.62699454
H        0.84229887       1.82788524      -1.00141735
H        2.46231202      -0.99744129       1.31631909
H       -0.55686932      -0.66316981      -1.68433855
