9
Frame=0 idx=003192 GeodesicLength=0.0 rxn_smarts="[C:1]([C:2]([O:3][H:9])([H:7])[H:8])([H:4])([H:5])[H:6]>>[C:1](=[C:2]([O:3][H:9])[H:7])([H:4])[H:6].[H:5][H:8]"
C       -0.96778423      -0.14421142       0.15418481
C        0.45217769       0.01658192       0.05075008
O        1.21594840      -1.04098687       0.40361500
H       -1.31126663      -0.66994078       1.05503229
H       -0.82194404       1.09844777      -0.66635414
H       -1.55140671      -0.42587162      -0.70962604
H        0.93554575       0.96541464       0.23281941
H       -0.03627337       0.95345776      -1.21796804
H        2.08500318      -0.75289140       0.69754664
9
Frame=1 idx=003192 GeodesicLength=0.05012918747131095 rxn_smarts="[C:1]([C:2]([O:3][H:9])([H:7])[H:8])([H:4])([H:5])[H:6]>>[C:1](=[C:2]([O:3][H:9])[H:7])([H:4])[H:6].[H:5][H:8]"
C       -0.96712192      -0.14604115       0.15249659
C        0.45197123       0.01552212       0.04884166
O        1.21124675      -1.04271492       0.41971237
H       -1.31319194      -0.66862764       1.05328767
H       -0.83879382       1.10787212      -0.66732714
H       -1.54759034      -0.44379076      -0.70864332
H        0.95324378       0.95760441       0.22190953
H       -0.03595173       0.97639164      -1.21666539
H        2.08618799      -0.75621581       0.69638802
9
Frame=2 idx=003192 GeodesicLength=0.10024903092549496 rxn_smarts="[C:1]([C:2]([O:3][H:9])([H:7])[H:8])([H:4])([H:5])[H:6]>>[C:1](=[C:2]([O:3][H:9])[H:7])([H:4])[H:6].[H:5][H:8]"
C       -0.96641317      -0.14793746       0.15061630
C        0.45183194       0.01451359       0.04699685
O        1.20650729      -1.04408800       0.43613773
H       -1.31517877      -0.66702284       1.05150301
H       -0.85614421       1.11708531      -0.66850046
H       -1.54347480      -0.46203369      -0.70761098
H        0.97112080       0.94941836       0.21048304
H       -0.03557152       0.99997736      -1.21473248
H        2.08732245      -0.75991262       0.69510700
9
Frame=3 idx=003192 GeodesicLength=0.1503516559310733 rxn_smarts="[C:1]([C:2]([O:3][H:9])([H:7])[H:8])([H:4])([H:5])[H:6]>>[C:1](=[C:2]([O:3][H:9])[H:7])([H:4])[H:6].[H:5][H:8]"
C       -0.96565135      -0.14989154       0.14854366
C        0.45176627       0.01356220       0.04521141
O        1.20174517      -1.04509008       0.45285725
H       -1.31720848      -0.66513819       1.04966711
H       -0.87400811       1.12606444      -0.66991081
H       -1.53906391      -0.48059183      -0.70650317
H        0.98919047       0.94083246       0.19848604
H       -0.03514393       1.02424845      -1.21211662
H        2.08837386      -0.76399590       0.69376512
9
Frame=4 idx=003192 GeodesicLength=0.20042586265429924 rxn_smarts="[C:1]([C:2]([O:3][H:9])([H:7])[H:8])([H:4])([H:5])[H:6]>>[C:1](=[C:2]([O:3][H:9])[H:7])([H:4])[H:6].[H:5][H:8]"
C       -0.96484356      -0.15189124       0.14627465
C        0.45176989       0.01268302       0.04352473
O        1.19695295      -1.04568629       0.46992788
H       -1.31930730      -0.66295751       1.04776523
H       -0.89239033       1.13476912      -0.67162345
H       -1.53433574      -0.49948033      -0.70530975
H        1.00744231       0.93183118       0.18591966
H       -0.03465176       1.04922641      -1.20874708
H        2.08936355      -0.76849437       0.69226811
9
Frame=5 idx=003192 GeodesicLength=0.25044546973167253 rxn_smarts="[C:1]([C:2]([O:3][H:9])([H:7])[H:8])([H:4])([H:5])[H:6]>>[C:1](=[C:2]([O:3][H:9])[H:7])([H:4])[H:6].[H:5][H:8]"
C       -0.96395521      -0.15393155       0.14381512
C        0.45186684       0.01186311       0.04184800
O        1.19218774      -1.04590723       0.48711266
H       -1.32136704      -0.66052818       1.04579716
H       -0.91130737       1.14319797      -0.67363352
H       -1.52933225      -0.51864555      -0.70397116
H        1.02592138       0.92235225       0.17261693
H       -0.03416176       1.07497118      -1.20457257
H        2.09014768      -0.77337201       0.69098737
9
Frame=6 idx=003192 GeodesicLength=0.30045913541494246 rxn_smarts="[C:1]([C:2]([O:3][H:9])([H:7])[H:8])([H:4])([H:5])[H:6]>>[C:1](=[C:2]([O:3][H:9])[H:7])([H:4])[H:6].[H:5][H:8]"
C       -0.96300625      -0.15600316       0.14115907
C        0.45204638       0.01112095       0.04024779
O        1.18743175      -1.04572004       0.50455414
H       -1.32345069      -0.65782229       1.04376237
H       -0.93076558       1.15131423      -0.67604103
H       -1.52401693      -0.53812399      -0.70249879
H        1.04460299       0.91238552       0.15859893
H       -0.03364414       1.10152344      -1.19950701
H        2.09080246      -0.77867465       0.68972453
9
Frame=7 idx=003192 GeodesicLength=0.35036402795737354 rxn_smarts="[C:1]([C:2]([O:3][H:9])([H:7])[H:8])([H:4])([H:5])[H:6]>>[C:1](=[C:2]([O:3][H:9])[H:7])([H:4])[H:6].[H:5][H:8]"
C       -0.96200012      -0.15811259       0.13828482
C        0.45230616       0.01046027       0.03875135
O        1.18265670      -1.04505977       0.52232824
H       -1.32560040      -0.65477399       1.04163105
H       -0.95074440       1.15901386      -0.67891319
H       -1.51836972      -0.55794903      -0.70087281
H        1.06348497       0.90189748       0.14385427
H       -0.03306867       1.12893424      -1.19340382
H        2.09133547      -0.78441047       0.68834012
9
Frame=8 idx=003192 GeodesicLength=0.4001083972888598 rxn_smarts="[C:1]([C:2]([O:3][H:9])([H:7])[H:8])([H:4])([H:5])[H:6]>>[C:1](=[C:2]([O:3][H:9])[H:7])([H:4])[H:6].[H:5][H:8]"
C       -0.96089813      -0.16021550       0.13521279
C        0.45267195       0.00986518       0.03724569
O        1.17796876      -1.04400421       0.54004763
H       -1.32763254      -0.65149935       1.03936784
H       -0.97126646       1.16634732      -0.68223135
H       -1.51247397      -0.57796064      -0.69901028
H        1.08260733       0.89072596       0.12811938
H       -0.03256133       1.15720058      -1.18619930
H        2.09158440      -0.79045936       0.68744760
9
Frame=9 idx=003192 GeodesicLength=0.4498134495199521 rxn_smarts="[C:1]([C:2]([O:3][H:9])([H:7])[H:8])([H:4])([H:5])[H:6]>>[C:1](=[C:2]([O:3][H:9])[H:7])([H:4])[H:6].[H:5][H:8]"
C       -0.95972143      -0.16234637       0.13191646
C        0.45313387       0.00933549       0.03578156
O        1.17330007      -1.04249657       0.55802194
H       -1.32967774      -0.64791441       1.03701500
H       -0.99232769       1.17324502      -0.68612764
H       -1.50624982      -0.59830613      -0.69695401
H        1.10196929       0.87887630       0.11134663
H       -0.03206886       1.18651230      -1.17770292
H        2.09164230      -0.79690563       0.68670297
9
Frame=10 idx=003192 GeodesicLength=0.49947116761725685 rxn_smarts="[C:1]([C:2]([O:3][H:9])([H:7])[H:8])([H:4])([H:5])[H:6]>>[C:1](=[C:2]([O:3][H:9])[H:7])([H:4])[H:6].[H:5][H:8]"
C       -0.95845182      -0.16451610       0.12836091
C        0.45371032       0.00883658       0.03427463
O        1.16866661      -1.04052197       0.57622298
H       -1.33169283      -0.64399761       1.03453906
H       -1.01396173       1.17966856      -0.69063019
H       -1.49971245      -0.61898547      -0.69468286
H        1.12164648       0.86617195       0.09323974
H       -0.03166295       1.21703690      -1.16766300
H        2.09145838      -0.80369284       0.68633872
9
Frame=11 idx=003192 GeodesicLength=0.5490929569617203 rxn_smarts="[C:1]([C:2]([O:3][H:9])([H:7])[H:8])([H:4])([H:5])[H:6]>>[C:1](=[C:2]([O:3][H:9])[H:7])([H:4])[H:6].[H:5][H:8]"
C       -0.95711188      -0.16673747       0.12449769
C        0.45438555       0.00840446       0.03282964
O        1.16400612      -1.03787225       0.59509340
H       -1.33382201      -0.63961916       1.03191221
H       -1.03618333       1.18547330      -0.69595679
H       -1.49273104      -0.64014721      -0.69222974
H        1.14163135       0.85252011       0.07370972
H       -0.03130953       1.24896506      -1.15571489
H        2.09113477      -0.81098683       0.68585877
9
Frame=12 idx=003192 GeodesicLength=0.5985993293696756 rxn_smarts="[C:1]([C:2]([O:3][H:9])([H:7])[H:8])([H:4])([H:5])[H:6]>>[C:1](=[C:2]([O:3][H:9])[H:7])([H:4])[H:6].[H:5][H:8]"
C       -0.95562559      -0.16905162       0.12027326
C        0.45520012       0.00789473       0.03116352
O        1.15936103      -1.03461159       0.61438611
H       -1.33588272      -0.63481885       1.02907562
H       -1.05898754       1.19067883      -0.70202084
H       -1.48540781      -0.66169897      -0.68955410
H        1.16204415       0.83753761       0.05199212
H       -0.03118435       1.28258000      -1.14139493
H        2.09048273      -0.81851014       0.68607924
9
Frame=13 idx=003192 GeodesicLength=0.6480365595882052 rxn_smarts="[C:1]([C:2]([O:3][H:9])([H:7])[H:8])([H:4])([H:5])[H:6]>>[C:1](=[C:2]([O:3][H:9])[H:7])([H:4])[H:6].[H:5][H:8]"
C       -0.95403730      -0.17145342       0.11563615
C        0.45613561       0.00737750       0.02939380
O        1.15467358      -1.03043258       0.63457191
H       -1.33805540      -0.62942348       1.02602124
H       -1.08237813       1.19503742      -0.70923121
H       -1.47756605      -0.68387204      -0.68665346
H        1.18289543       0.82104123       0.02787027
H       -0.03125216       1.31822227      -1.12406974
H        2.08958442      -0.82649692       0.68646104
9
Frame=14 idx=003192 GeodesicLength=0.6973781406107477 rxn_smarts="[C:1]([C:2]([O:3][H:9])([H:7])[H:8])([H:4])([H:5])[H:6]>>[C:1](=[C:2]([O:3][H:9])[H:7])([H:4])[H:6].[H:5][H:8]"
C       -0.95229780      -0.17400287       0.11052301
C        0.45723281       0.00663784       0.02717969
O        1.15001934      -1.02536821       0.65544017
H       -1.34017248      -0.62350860       1.02270474
H       -1.10625248       1.19854568      -0.71761192
H       -1.46940962      -0.70651954      -0.68351071
H        1.20426925       0.80244010       0.00027904
H       -0.03168474       1.35627809      -1.10295104
H        2.08829573      -0.83450249       0.68794702
9
Frame=15 idx=003192 GeodesicLength=0.7466166592275664 rxn_smarts="[C:1]([C:2]([O:3][H:9])([H:7])[H:8])([H:4])([H:5])[H:6]>>[C:1](=[C:2]([O:3][H:9])[H:7])([H:4])[H:6].[H:5][H:8]"
C       -0.95043978      -0.17672051       0.10480689
C        0.45846910       0.00566151       0.02453082
O        1.14532902      -1.01888516       0.67774862
H       -1.34239556      -0.61680328       1.01905494
H       -1.13050094       1.20083835      -0.72786638
H       -1.46078892      -0.72997611      -0.68010539
H        1.22615130       0.78120487      -0.03157505
H       -0.03252675       1.39741552      -1.07660782
H        2.08670253      -0.84273519       0.69001337
9
Frame=16 idx=003192 GeodesicLength=0.7957694670777594 rxn_smarts="[C:1]([C:2]([O:3][H:9])([H:7])[H:8])([H:4])([H:5])[H:6]>>[C:1](=[C:2]([O:3][H:9])[H:7])([H:4])[H:6].[H:5][H:8]"
C       -0.94845073      -0.17974219       0.09827831
C        0.45987997       0.00406039       0.02087508
O        1.14064809      -1.01056724       0.70183759
H       -1.34467704      -0.60925537       1.01493889
H       -1.15485735       1.20173377      -0.74040855
H       -1.45188559      -0.75431130      -0.67646838
H        1.24870658       0.75591186      -0.07017622
H       -0.03405809       1.44272773      -1.04267300
H        2.08469415      -0.85055764       0.69379628
