14
Frame=0 idx=000825 GeodesicLength=0.0 rxn_smarts="[C:1]1([H:7])([H:8])[C@@:2]2([H:9])[C:3]([H:10])([H:11])[C:4]([H:12])=[C:5]([H:13])[C@@:6]12[H:14]>>[C:1]1([H:7])([H:8])[C@@:2]2([H:9])[C:3]([H:10])([H:11])[C:4]([H:12])([H:14])[C:5]([H:13])=[C:6]12"
C       -1.65418233       0.45699988       0.08927734
C       -0.38759142       0.58183342      -0.79878953
C        1.01953734       0.83907707      -0.24351636
C        1.24424734      -0.38152274       0.61066984
C        0.12768157      -1.25198854       0.56650165
C       -0.87916408      -0.72307802      -0.33671942
H       -1.59045101       0.72201830       1.14356363
H       -2.57850517       0.75475820      -0.39256095
H       -0.60775379       0.93578534      -1.80019058
H        1.18334999       1.77517091       0.30621248
H        1.72161995       0.86909252      -1.08732264
H        2.22970045      -0.68990368       0.94400041
H       -0.12261033      -1.94123854       1.36962829
H        0.29412144      -1.94700406      -0.37075411
14
Frame=1 idx=000825 GeodesicLength=0.10158704885492459 rxn_smarts="[C:1]1([H:7])([H:8])[C@@:2]2([H:9])[C:3]([H:10])([H:11])[C:4]([H:12])=[C:5]([H:13])[C@@:6]12[H:14]>>[C:1]1([H:7])([H:8])[C@@:2]2([H:9])[C:3]([H:10])([H:11])[C:4]([H:12])([H:14])[C:5]([H:13])=[C:6]12"
C       -1.65601190       0.46268844       0.08771944
C       -0.38926609       0.58199835      -0.79621363
C        1.01897929       0.83498072      -0.24446885
C        1.25499797      -0.39991668       0.58716112
C        0.11957481      -1.24511278       0.58689035
C       -0.87884531      -0.72178596      -0.32384236
H       -1.59576339       0.74258552       1.13807636
H       -2.58114744       0.74765213      -0.40023767
H       -0.60587158       0.92232986      -1.80311705
H        1.17494665       1.76216813       0.32174925
H        1.71947987       0.88372337      -1.08830619
H        2.23452138      -0.69812395       0.94442088
H       -0.11811905      -1.94457621       1.38383061
H        0.30252478      -1.92861096      -0.39366225
14
Frame=2 idx=000825 GeodesicLength=0.20312288763533357 rxn_smarts="[C:1]1([H:7])([H:8])[C@@:2]2([H:9])[C:3]([H:10])([H:11])[C:4]([H:12])=[C:5]([H:13])[C@@:6]12[H:14]>>[C:1]1([H:7])([H:8])[C@@:2]2([H:9])[C:3]([H:10])([H:11])[C:4]([H:12])([H:14])[C:5]([H:13])=[C:6]12"
C       -1.65764936       0.46810850       0.08624054
C       -0.39089040       0.58220586      -0.79369398
C        1.01859290       0.83058406      -0.24553185
C        1.26547332      -0.41917441       0.56215636
C        0.11246102      -1.23784830       0.60686430
C       -0.87823669      -0.72049867      -0.31093658
H       -1.60074455       0.76272359       1.13247059
H       -2.58362687       0.74011755      -0.40745610
H       -0.60409966       0.90898906      -1.80581752
H        1.16713963       1.74809447       0.33757148
H        1.71734564       0.89845682      -1.08908939
H        2.23792281      -0.70468445       0.94659518
H       -0.11308945      -1.94643814       1.39821829
H        0.30940164      -1.91063596      -0.41759133
14
Frame=3 idx=000825 GeodesicLength=0.30460828175208104 rxn_smarts="[C:1]1([H:7])([H:8])[C@@:2]2([H:9])[C:3]([H:10])([H:11])[C:4]([H:12])=[C:5]([H:13])[C@@:6]12[H:14]>>[C:1]1([H:7])([H:8])[C@@:2]2([H:9])[C:3]([H:10])([H:11])[C:4]([H:12])([H:14])[C:5]([H:13])=[C:6]12"
C       -1.65912001       0.47324134       0.08482441
C       -0.39243766       0.58245033      -0.79117511
C        1.01838710       0.82586298      -0.24660518
C        1.27553952      -0.43915409       0.53601299
C        0.10634402      -1.23008337       0.62659653
C       -0.87730041      -0.71922648      -0.29793953
H       -1.60548214       0.78248567       1.12671764
H       -2.58594399       0.73210256      -0.41429596
H       -0.60236394       0.89574026      -1.80826081
H        1.15994291       1.73300873       0.35359930
H        1.71528048       0.91310803      -1.08951474
H        2.23976494      -0.70966600       0.94990741
H       -0.10751330      -1.94692061       1.41283204
H        0.31490247      -1.89294934      -0.44269901
14
Frame=4 idx=000825 GeodesicLength=0.40604722691062856 rxn_smarts="[C:1]1([H:7])([H:8])[C@@:2]2([H:9])[C:3]([H:10])([H:11])[C:4]([H:12])=[C:5]([H:13])[C@@:6]12[H:14]>>[C:1]1([H:7])([H:8])[C@@:2]2([H:9])[C:3]([H:10])([H:11])[C:4]([H:12])([H:14])[C:5]([H:13])=[C:6]12"
C       -1.66050487       0.47804771       0.08338339
C       -0.39387076       0.58273032      -0.78857348
C        1.01833815       0.82086734      -0.24747737
C        1.28497008      -0.45954003       0.50941627
C        0.10116986      -1.22164786       0.64639737
C       -0.87597683      -0.71797878      -0.28475883
H       -1.61020790       0.80194741       1.12070364
H       -2.58812203       0.72348218      -0.42098806
H       -0.60051320       0.88252070      -1.81041231
H        1.15326939       1.71711235       0.36980208
H        1.71337799       0.92749647      -1.08928452
H        2.24023930      -0.71367026       0.95293616
H       -0.10146395      -1.94606573       1.42782474
H        0.31929476      -1.87530181      -0.46896906
14
Frame=5 idx=000825 GeodesicLength=0.5074441462574079 rxn_smarts="[C:1]1([H:7])([H:8])[C@@:2]2([H:9])[C:3]([H:10])([H:11])[C:4]([H:12])=[C:5]([H:13])[C@@:6]12[H:14]>>[C:1]1([H:7])([H:8])[C@@:2]2([H:9])[C:3]([H:10])([H:11])[C:4]([H:12])([H:14])[C:5]([H:13])=[C:6]12"
C       -1.66192951       0.48247376       0.08177990
C       -0.39516150       0.58305417      -0.78579716
C        1.01839158       0.81571730      -0.24788829
C        1.29348494      -0.47990729       0.48321471
C        0.09682116      -1.21233540       0.66665837
C       -0.87420472      -0.71675893      -0.27129189
H       -1.61525089       0.82119504       1.11424979
H       -2.59020629       0.71407745      -0.42785620
H       -0.59836898       0.86925116      -1.81223826
H        1.14695068       1.70071640       0.38618398
H        1.71173409       0.94147455      -1.08805091
H        2.23991210      -0.71773390       0.95387649
H       -0.09508208      -1.94386217       1.44343261
H        0.32290942      -1.85736212      -0.49627314
14
Frame=6 idx=000825 GeodesicLength=0.6087982105567495 rxn_smarts="[C:1]1([H:7])([H:8])[C@@:2]2([H:9])[C:3]([H:10])([H:11])[C:4]([H:12])=[C:5]([H:13])[C@@:6]12[H:14]>>[C:1]1([H:7])([H:8])[C@@:2]2([H:9])[C:3]([H:10])([H:11])[C:4]([H:12])([H:14])[C:5]([H:13])=[C:6]12"
C       -1.66350556       0.48646380       0.07990374
C       -0.39630776       0.58343916      -0.78277877
C        1.01849607       0.81053243      -0.24766497
C        1.30085766      -0.49992025       0.45804238
C        0.09316275      -1.20196933       0.68770085
C       -0.87194664      -0.71556585      -0.25746688
H       -1.62088248       0.84028749       1.10719867
H       -2.59223933       0.70372465      -0.43514654
H       -0.59582030       0.85589012      -1.81370510
H        1.14083913       1.68410388       0.40272656
H        1.71041051       0.95493274      -1.08560025
H        2.23943026      -0.72281522       0.95148872
H       -0.08849790      -1.94029110       1.45985413
H        0.32600360      -1.83881252      -0.52455254
14
Frame=7 idx=000825 GeodesicLength=0.710109101096882 rxn_smarts="[C:1]1([H:7])([H:8])[C@@:2]2([H:9])[C:3]([H:10])([H:11])[C:4]([H:12])=[C:5]([H:13])[C@@:6]12[H:14]>>[C:1]1([H:7])([H:8])[C@@:2]2([H:9])[C:3]([H:10])([H:11])[C:4]([H:12])([H:14])[C:5]([H:13])=[C:6]12"
C       -1.66529152       0.48996569       0.07771659
C       -0.39732829       0.58390633      -0.77948393
C        1.01863373       0.80537286      -0.24677191
C        1.30697778      -0.51944835       0.43414973
C        0.09009253      -1.19043108       0.70970426
C       -0.86918618      -0.71440147      -0.24325812
H       -1.62723112       0.85923846       1.09946858
H       -2.59424224       0.69230943      -0.44294188
H       -0.59285700       0.84245849      -1.81477829
H        1.13488224       1.66743799       0.41936699
H        1.70943147       0.96778294      -1.08191879
H        2.23920198      -0.72943144       0.94547883
H       -0.08177859      -1.93535316       1.47718172
H        0.32869522      -1.81940669      -0.55391379
14
Frame=8 idx=000825 GeodesicLength=0.8113774867355898 rxn_smarts="[C:1]1([H:7])([H:8])[C@@:2]2([H:9])[C:3]([H:10])([H:11])[C:4]([H:12])=[C:5]([H:13])[C@@:6]12[H:14]>>[C:1]1([H:7])([H:8])[C@@:2]2([H:9])[C:3]([H:10])([H:11])[C:4]([H:12])([H:14])[C:5]([H:13])=[C:6]12"
C       -1.66729891       0.49292335       0.07523721
C       -0.39824653       0.58447684      -0.77589480
C        1.01882045       0.80023712      -0.24526410
C        1.31181942      -0.53852516       0.41151794
C        0.08755236      -1.17763772       0.73274716
C       -0.86590932      -0.71327643      -0.22867141
H       -1.63431687       0.87801979       1.09104002
H       -2.59621221       0.67975016      -0.45120426
H       -0.58953059       0.82902695      -1.81541738
H        1.12911370       1.65077751       0.43601056
H        1.70880499       0.97993647      -1.07712317
H        2.23934262      -0.73770638       0.93618339
H       -0.07493780      -1.92905733       1.49542960
H        0.33099869      -1.79894516      -0.58459078
14
Frame=9 idx=000825 GeodesicLength=0.9126058901739591 rxn_smarts="[C:1]1([H:7])([H:8])[C@@:2]2([H:9])[C:3]([H:10])([H:11])[C:4]([H:12])=[C:5]([H:13])[C@@:6]12[H:14]>>[C:1]1([H:7])([H:8])[C@@:2]2([H:9])[C:3]([H:10])([H:11])[C:4]([H:12])([H:14])[C:5]([H:13])=[C:6]12"
C       -1.66951478       0.49526612       0.07250875
C       -0.39908130       0.58517257      -0.77199231
C        1.01909307       0.79508766      -0.24322508
C        1.31538809      -0.55726337       0.39002648
C        0.08551381      -1.16350931       0.75687151
C       -0.86208794      -0.71221256      -0.21372675
H       -1.64211718       0.89657148       1.08191851
H       -2.59812924       0.66596361      -0.45984811
H       -0.58591233       0.81569773      -1.81557275
H        1.12361565       1.63413043       0.45255473
H        1.70854097       0.99129432      -1.07137396
H        2.23977796      -0.74757940       0.92414001
H       -0.06797431      -1.92138836       1.51459236
H        0.33288753      -1.77723094      -0.61687339
14
Frame=10 idx=000825 GeodesicLength=1.0137926282956822 rxn_smarts="[C:1]1([H:7])([H:8])[C@@:2]2([H:9])[C:3]([H:10])([H:11])[C:4]([H:12])=[C:5]([H:13])[C@@:6]12[H:14]>>[C:1]1([H:7])([H:8])[C@@:2]2([H:9])[C:3]([H:10])([H:11])[C:4]([H:12])([H:14])[C:5]([H:13])=[C:6]12"
C       -1.67192188       0.49690206       0.06957657
C       -0.39984322       0.58602054      -0.76774680
C        1.01949925       0.78986945      -0.24073468
C        1.31768205      -0.57580586       0.36954279
C        0.08396648      -1.14795070       0.78211450
C       -0.85767659      -0.71124352      -0.19845615
H       -1.65061867       0.91480143       1.07211465
H       -2.59996648       0.65084104      -0.46878999
H       -0.58206635       0.80260600      -1.81518278
H        1.11849060       1.61748780       0.46890171
H        1.70866133       1.00174528      -1.06482799
H        2.24035765      -0.75896440       0.90985337
H       -0.06088753      -1.91227100       1.53470170
H        0.33432335      -1.75403811      -0.65106692
14
Frame=11 idx=000825 GeodesicLength=1.1149361007246712 rxn_smarts="[C:1]1([H:7])([H:8])[C@@:2]2([H:9])[C:3]([H:10])([H:11])[C:4]([H:12])=[C:5]([H:13])[C@@:6]12[H:14]>>[C:1]1([H:7])([H:8])[C@@:2]2([H:9])[C:3]([H:10])([H:11])[C:4]([H:12])([H:14])[C:5]([H:13])=[C:6]12"
C       -1.67450370       0.49771259       0.06648264
C       -0.40053755       0.58705498      -0.76311506
C        1.02009361       0.78451695      -0.23786035
C        1.31868076      -0.59430669       0.34995463
C        0.08291002      -1.13084924       0.80851230
C       -0.85260940      -0.71041704      -0.18290429
H       -1.65982861       0.93257977       1.06163747
H       -2.60169036       0.63424419      -0.47795982
H       -0.57805015       0.78992068      -1.81417484
H        1.11385375       1.60083671       0.48496159
H        1.70920033       1.01116161      -1.05762897
H        2.24089703      -0.77180844       0.89373304
H       -0.05369368      -1.90155040       1.55584441
H        0.33527796      -1.72909566      -0.68748277
14
Frame=12 idx=000825 GeodesicLength=1.2160361003842624 rxn_smarts="[C:1]1([H:7])([H:8])[C@@:2]2([H:9])[C:3]([H:10])([H:11])[C:4]([H:12])=[C:5]([H:13])[C@@:6]12[H:14]>>[C:1]1([H:7])([H:8])[C@@:2]2([H:9])[C:3]([H:10])([H:11])[C:4]([H:12])([H:14])[C:5]([H:13])=[C:6]12"
C       -1.67724701       0.49754851       0.06326352
C       -0.40116611       0.58832000      -0.75803896
C        1.02093762       0.77895653      -0.23465763
C        1.31834071      -0.61292892       0.33116845
C        0.08235146      -1.11207863       0.83608951
C       -0.84680139      -0.70979705      -0.16713488
H       -1.66978125       0.94973001       1.05049530
H       -2.60326082       0.61600034      -0.48730588
H       -0.57391656       0.77785405      -1.81246394
H        1.10983279       1.58416231       0.50065440
H        1.71020603       1.01940152      -1.04990762
H        2.24119767      -0.78611905       0.87608769
H       -0.04643037      -1.88897086       1.57818609
H        0.33573723      -1.70207877      -0.72643604
14
Frame=13 idx=000825 GeodesicLength=1.3170933038176438 rxn_smarts="[C:1]1([H:7])([H:8])[C@@:2]2([H:9])[C:3]([H:10])([H:11])[C:4]([H:12])=[C:5]([H:13])[C@@:6]12[H:14]>>[C:1]1([H:7])([H:8])[C@@:2]2([H:9])[C:3]([H:10])([H:11])[C:4]([H:12])([H:14])[C:5]([H:13])=[C:6]12"
C       -1.68014143       0.49622805       0.05995126
C       -0.40172866       0.58987180      -0.75244511
C        1.02209963       0.77310419      -0.23117547
C        1.31659201      -0.63184585       0.31310507
C        0.08230373      -1.09150779       0.86484192
C       -0.84015152      -0.70946619      -0.15123890
H       -1.68053806       0.96601784       1.03870185
H       -2.60462930       0.59590744      -0.49679413
H       -0.56971633       0.76667488      -1.80995214
H        1.10657045       1.56744538       0.51590407
H        1.71173941       1.02630463      -1.04178847
H        2.24104799      -0.80196451       0.85714683
H       -0.03915124      -1.87416858       1.60197915
H        0.33570331      -1.67260130      -0.76823592
14
Frame=14 idx=000825 GeodesicLength=1.4181084791519765 rxn_smarts="[C:1]1([H:7])([H:8])[C@@:2]2([H:9])[C:3]([H:10])([H:11])[C:4]([H:12])=[C:5]([H:13])[C@@:6]12[H:14]>>[C:1]1([H:7])([H:8])[C@@:2]2([H:9])[C:3]([H:10])([H:11])[C:4]([H:12])([H:14])[C:5]([H:13])=[C:6]12"
C       -1.68317620       0.49354161       0.05657507
C       -0.40222502       0.59177942      -0.74624535
C        1.02365349       0.76686424      -0.22746389
C        1.31333804      -0.65123918       0.29569673
C        0.08278321      -1.06901089       0.89471768
C       -0.83254817      -0.70952550      -0.13533900
H       -1.69218304       0.98114683       1.02628319
H       -2.60573370       0.57374639      -0.50640660
H       -0.56550392       0.75671578      -1.80652854
H        1.10422569       1.55066370       0.53062725
H        1.71387096       1.03168707      -1.03339926
H        2.24021620      -0.81946144       0.83709360
H       -0.03191466      -1.85668968       1.62754178
H        0.33519711      -1.64021836      -0.81315265
14
Frame=15 idx=000825 GeodesicLength=1.5190847889370214 rxn_smarts="[C:1]1([H:7])([H:8])[C@@:2]2([H:9])[C:3]([H:10])([H:11])[C:4]([H:12])=[C:5]([H:13])[C@@:6]12[H:14]>>[C:1]1([H:7])([H:8])[C@@:2]2([H:9])[C:3]([H:10])([H:11])[C:4]([H:12])([H:14])[C:5]([H:13])=[C:6]12"
C       -1.68633762       0.48926513       0.05316305
C       -0.40265746       0.59412179      -0.73934076
C        1.02567634       0.76013163      -0.22358219
C        1.30845983      -0.67128920       0.27888850
C        0.08380690      -1.04448221       0.92559855
C       -0.82388031      -0.71009016      -0.11958878
H       -1.70481376       0.99476638       1.01328551
H       -2.60649677       0.54930319      -0.51613856
H       -0.56134308       0.74836769      -1.80207479
H        1.10297329       1.53379791       0.54472304
H        1.71667702       1.03534133      -1.02488241
H        2.23844412      -0.83874982       0.81609947
H       -0.02477015      -1.83603881       1.65520696
H        0.33426163      -1.60444484      -0.86135759
14
Frame=16 idx=000825 GeodesicLength=1.6200285048266765 rxn_smarts="[C:1]1([H:7])([H:8])[C@@:2]2([H:9])[C:3]([H:10])([H:11])[C:4]([H:12])=[C:5]([H:13])[C@@:6]12[H:14]>>[C:1]1([H:7])([H:8])[C@@:2]2([H:9])[C:3]([H:10])([H:11])[C:4]([H:12])([H:14])[C:5]([H:13])=[C:6]12"
C       -1.68960338       0.48318769       0.04974334
C       -0.40303293       0.59697989      -0.73163100
C        1.02824010       0.75279871      -0.21960744
C        1.30182494      -0.69215505       0.26264529
C        0.08538946      -1.01785896       0.95728056
C       -0.81405585      -0.71127801      -0.10416390
H       -1.71852378       1.00649413       0.99978251
H       -2.60682295       0.52240965      -0.52599473
H       -0.55731015       0.74205521      -1.79647565
H        1.10299220       1.51684168       0.55806077
H        1.72022840       1.03704365      -1.01640500
H        2.23544747      -0.85995182       0.79436356
H       -0.01773772      -1.81176471       1.68522802
H        0.33296418      -1.56480206      -0.91282633
