16
Frame=0 idx=008570 GeodesicLength=0.0 rxn_smarts="[C:1]([c:2]1[c:3]([H:11])[c:4]([C:5]([H:12])([H:13])[H:14])[c:6]([H:15])[n:7]1[H:16])([H:8])([H:9])[H:10]>>[C:1]([C:2]1=[C-:3][C:4](=[C:5]([H:13])[H:14])[C+:6]([H:15])[N:7]1[H:16])([H:8])([H:9])[H:10].[H:11][H:12]"
C        2.54333402      -0.28567533      -0.10082306
C        1.09165866       0.01026367       0.05137736
C       -0.01093115      -0.72874187      -0.21493663
C       -1.15174090       0.10201259       0.04725815
C       -2.45757689      -0.35205891       0.13519356
C       -0.67091512       1.38578394       0.34281101
N        0.66754024       1.30556659       0.40819567
H        3.07163930      -0.22953673       0.85484842
H        2.65480313      -1.29688812      -0.48731499
H        3.03376536       0.39994540      -0.79769849
H       -1.01199562      -1.82612544      -0.90900669
H       -1.85242847      -1.88276847      -1.09858901
H       -3.29480929       0.33234481       0.02403935
H       -2.68682982      -1.31043700       0.57411459
H       -1.19598135       2.26688125       0.68358833
H        1.27046792       2.10943360       0.48694245
16
Frame=1 idx=008570 GeodesicLength=0.0800523221770061 rxn_smarts="[C:1]([c:2]1[c:3]([H:11])[c:4]([C:5]([H:12])([H:13])[H:14])[c:6]([H:15])[n:7]1[H:16])([H:8])([H:9])[H:10]>>[C:1]([C:2]1=[C-:3][C:4](=[C:5]([H:13])[H:14])[C+:6]([H:15])[N:7]1[H:16])([H:8])([H:9])[H:10].[H:11][H:12]"
C        2.54385593      -0.28526748      -0.09999575
C        1.09199446       0.00992543       0.05223912
C       -0.01002503      -0.73482150      -0.20182711
C       -1.15053678       0.09657997       0.06893038
C       -2.46025566      -0.35710329       0.12228057
C       -0.67033013       1.38539592       0.34411966
N        0.66783508       1.30658060       0.40462678
H        3.07469478      -0.21804091       0.85361592
H        2.65603460      -1.30033269      -0.47606877
H        3.03141908       0.39401879      -0.80507296
H       -0.99580072      -1.82595732      -0.92474043
H       -1.86293307      -1.87485194      -1.10494873
H       -3.29425963       0.33667240       0.05173822
H       -2.69755083      -1.31470166       0.56040203
H       -1.19521408       2.27187200       0.67066355
H        1.27107200       2.11003169       0.48403753
16
Frame=2 idx=008570 GeodesicLength=0.16033276180764833 rxn_smarts="[C:1]([c:2]1[c:3]([H:11])[c:4]([C:5]([H:12])([H:13])[H:14])[c:6]([H:15])[n:7]1[H:16])([H:8])([H:9])[H:10]>>[C:1]([C:2]1=[C-:3][C:4](=[C:5]([H:13])[H:14])[C+:6]([H:15])[N:7]1[H:16])([H:8])([H:9])[H:10].[H:11][H:12]"
C        2.54429353      -0.28528463      -0.09820039
C        1.09220329       0.00949019       0.05299551
C       -0.00922294      -0.74062302      -0.18946575
C       -1.14925754       0.09038146       0.09383466
C       -2.46229377      -0.36242099       0.11216669
C       -0.66988105       1.38489246       0.34467351
N        0.66801795       1.30778045       0.39990623
H        3.07704358      -0.20649806       0.85352136
H        2.65726221      -1.30433558      -0.46312063
H        3.02955460       0.38705637      -0.81150935
H       -0.97970924      -1.82351401      -0.94258250
H       -1.87448981      -1.86287633      -1.11497112
H       -3.29327340       0.33814115       0.08364887
H       -2.70714857      -1.32077463       0.54633600
H       -1.19460833       2.27764888       0.65362158
H        1.27150949       2.11093629       0.47914535
16
Frame=3 idx=008570 GeodesicLength=0.24082737700076967 rxn_smarts="[C:1]([c:2]1[c:3]([H:11])[c:4]([C:5]([H:12])([H:13])[H:14])[c:6]([H:15])[n:7]1[H:16])([H:8])([H:9])[H:10]>>[C:1]([C:2]1=[C-:3][C:4](=[C:5]([H:13])[H:14])[C+:6]([H:15])[N:7]1[H:16])([H:8])([H:9])[H:10].[H:11][H:12]"
C        2.54463983      -0.28567712      -0.09553227
C        1.09227459       0.00891999       0.05367121
C       -0.00855374      -0.74606998      -0.17820280
C       -1.14786755       0.08374357       0.12078283
C       -2.46362482      -0.36783823       0.10479802
C       -0.66958029       1.38422494       0.34441012
N        0.66804403       1.30899380       0.39448112
H        3.07868535      -0.19519899       0.85448618
H        2.65847547      -1.30869640      -0.44893216
H        3.02816103       0.37937085      -0.81685034
H       -0.96374588      -1.81905296      -0.96214982
H       -1.88733187      -1.84707322      -1.12807486
H       -3.29184100       0.33667608       0.11945239
H       -2.71523474      -1.32827216       0.53244577
H       -1.19425247       2.28403070       0.63204919
H        1.27175205       2.11191913       0.47316541
16
Frame=4 idx=008570 GeodesicLength=0.32136480558470737 rxn_smarts="[C:1]([c:2]1[c:3]([H:11])[c:4]([C:5]([H:12])([H:13])[H:14])[c:6]([H:15])[n:7]1[H:16])([H:8])([H:9])[H:10]>>[C:1]([C:2]1=[C-:3][C:4](=[C:5]([H:13])[H:14])[C+:6]([H:15])[N:7]1[H:16])([H:8])([H:9])[H:10].[H:11][H:12]"
C        2.54487780      -0.28635404      -0.09216751
C        1.09219178       0.00825819       0.05415694
C       -0.00805777      -0.75101273      -0.16851469
C       -1.14640267       0.07725066       0.14774337
C       -2.46428146      -0.37310068       0.09966241
C       -0.66941828       1.38342873       0.34347367
N        0.66790332       1.31010310       0.38880481
H        3.07957462      -0.18448443       0.85639256
H        2.65963482      -1.31316237      -0.43412415
H        3.02727001       0.37136723      -0.82095341
H       -0.94790226      -1.81325324      -0.98272416
H       -1.90163544      -1.82839080      -1.14308548
H       -3.28996754       0.33244053       0.15824610
H       -2.72144961      -1.33647217       0.51941201
H       -1.19416200       2.29059797       0.60659961
H        1.27182470       2.11278406       0.46707793
16
Frame=5 idx=008570 GeodesicLength=0.4018350734417089 rxn_smarts="[C:1]([c:2]1[c:3]([H:11])[c:4]([C:5]([H:12])([H:13])[H:14])[c:6]([H:15])[n:7]1[H:16])([H:8])([H:9])[H:10]>>[C:1]([C:2]1=[C-:3][C:4](=[C:5]([H:13])[H:14])[C+:6]([H:15])[N:7]1[H:16])([H:8])([H:9])[H:10].[H:11][H:12]"
C        2.54499923      -0.28717755      -0.08843332
C        1.09196243       0.00755228       0.05443745
C       -0.00774274      -0.75542279      -0.16044846
C       -1.14491352       0.07135038       0.17309176
C       -2.46442325      -0.37797924       0.09605629
C       -0.66934584       1.38258233       0.34217188
N        0.66762874       1.31101241       0.38345424
H        3.07984033      -0.17459896       0.85889541
H        2.66069122      -1.31746250      -0.41947008
H        3.02676530       0.36350948      -0.82394772
H       -0.93204331      -1.80698916      -1.00340489
H       -1.91746367      -1.80798022      -1.15871139
H       -3.28763028       0.32585272       0.19853075
H       -2.72584495      -1.34463536       0.50768314
H       -1.19428287       2.29703337       0.57810635
H        1.27180318       2.11335281       0.46198859
16
Frame=6 idx=008570 GeodesicLength=0.4822667080076593 rxn_smarts="[C:1]([c:2]1[c:3]([H:11])[c:4]([C:5]([H:12])([H:13])[H:14])[c:6]([H:15])[n:7]1[H:16])([H:8])([H:9])[H:10]>>[C:1]([C:2]1=[C-:3][C:4](=[C:5]([H:13])[H:14])[C+:6]([H:15])[N:7]1[H:16])([H:8])([H:9])[H:10].[H:11][H:12]"
C        2.54501828      -0.28805377      -0.08453652
C        1.09161407       0.00684939       0.05451236
C       -0.00758189      -0.75934066      -0.15383252
C       -1.14341100       0.06617495       0.19628329
C       -2.46422306      -0.38240789       0.09355659
C       -0.66931563       1.38173134       0.34088115
N        0.66726938       1.31172310       0.37866724
H        3.07961650      -0.16555435       0.86175696
H        2.66163322      -1.32147900      -0.40532900
H        3.02655865       0.35601125      -0.82603196
H       -0.91599928      -1.80078792      -1.02370755
H       -1.93489072      -1.78645760      -1.17428079
H       -3.28478720       0.31731727       0.23922229
H       -2.72870245      -1.35245079       0.49733442
H       -1.19454310       2.30311988       0.54722714
H        1.27174422       2.11360479       0.45827690
16
Frame=7 idx=008570 GeodesicLength=0.5623933669450418 rxn_smarts="[C:1]([c:2]1[c:3]([H:11])[c:4]([C:5]([H:12])([H:13])[H:14])[c:6]([H:15])[n:7]1[H:16])([H:8])([H:9])[H:10]>>[C:1]([C:2]1=[C-:3][C:4](=[C:5]([H:13])[H:14])[C+:6]([H:15])[N:7]1[H:16])([H:8])([H:9])[H:10].[H:11][H:12]"
C        2.54496927      -0.28898894      -0.08035655
C        1.09117496       0.00621486       0.05424862
C       -0.00755197      -0.76276921      -0.14868187
C       -1.14190173       0.06161940       0.21759331
C       -2.46379672      -0.38652031       0.09223156
C       -0.66932591       1.38088636       0.33989227
N        0.66686542       1.31236592       0.37406817
H        3.07883834      -0.15715643       0.86515157
H        2.66249322      -1.32531197      -0.39133673
H        3.02679169       0.34870248      -0.82718494
H       -0.89978475      -1.79457606      -1.04381648
H       -1.95402992      -1.76358211      -1.19007002
H       -3.28140276       0.30695949       0.28058560
H       -2.73015324      -1.36020264       0.48815474
H       -1.19484832       2.30863870       0.51426042
H        1.27166242       2.11372047       0.45526032
16
Frame=8 idx=008570 GeodesicLength=0.6422295374807158 rxn_smarts="[C:1]([c:2]1[c:3]([H:11])[c:4]([C:5]([H:12])([H:13])[H:14])[c:6]([H:15])[n:7]1[H:16])([H:8])([H:9])[H:10]>>[C:1]([C:2]1=[C-:3][C:4](=[C:5]([H:13])[H:14])[C+:6]([H:15])[N:7]1[H:16])([H:8])([H:9])[H:10].[H:11][H:12]"
C        2.54487664      -0.28995424      -0.07592033
C        1.09067335       0.00566077       0.05365802
C       -0.00761881      -0.76577715      -0.14480910
C       -1.14034646       0.05755884       0.23732722
C       -2.46322724      -0.39038427       0.09207690
C       -0.66937064       1.38006140       0.33940323
N        0.66643230       1.31297176       0.36963261
H        3.07757059      -0.14931343       0.86903982
H        2.66329347      -1.32896587      -0.37747497
H        3.02744721       0.34159415      -0.82750018
H       -0.88328751      -1.78839929      -1.06372744
H       -1.97501665      -1.73917988      -1.20611559
H       -3.27741325       0.29493382       0.32254268
H       -2.73042007      -1.36800018       0.47996460
H       -1.19515448       2.31345257       0.47901924
H        1.27156154       2.11374100       0.45288328
16
Frame=9 idx=008570 GeodesicLength=0.7221374436905614 rxn_smarts="[C:1]([c:2]1[c:3]([H:11])[c:4]([C:5]([H:12])([H:13])[H:14])[c:6]([H:15])[n:7]1[H:16])([H:8])([H:9])[H:10]>>[C:1]([C:2]1=[C-:3][C:4](=[C:5]([H:13])[H:14])[C+:6]([H:15])[N:7]1[H:16])([H:8])([H:9])[H:10].[H:11][H:12]"
C        2.54474880      -0.29087787      -0.07133645
C        1.09013094       0.00517636       0.05287311
C       -0.00775386      -0.76845813      -0.14191300
C       -1.13871281       0.05382654       0.25583417
C       -2.46259192      -0.39406331       0.09308338
C       -0.66942812       1.37921548       0.33959696
N        0.66598299       1.31349720       0.36561431
H        3.07596192      -0.14200312       0.87325673
H        2.66403453      -1.33234821      -0.36396413
H        3.02838953       0.33485120      -0.82711246
H       -0.86628251      -1.78241266      -1.08336404
H       -1.99809919      -1.71302087      -1.22233862
H       -3.27274039       0.28139332       0.36496279
H       -2.72973904      -1.37588575       0.47256613
H       -1.19535433       2.31750987       0.44067400
H        1.27145347       2.11359994       0.45156712
16
Frame=10 idx=008570 GeodesicLength=0.8017541065746678 rxn_smarts="[C:1]([c:2]1[c:3]([H:11])[c:4]([C:5]([H:12])([H:13])[H:14])[c:6]([H:15])[n:7]1[H:16])([H:8])([H:9])[H:10]>>[C:1]([C:2]1=[C-:3][C:4](=[C:5]([H:13])[H:14])[C+:6]([H:15])[N:7]1[H:16])([H:8])([H:9])[H:10].[H:11][H:12]"
C        2.54459368      -0.29174637      -0.06658131
C        1.08955181       0.00479846       0.05180919
C       -0.00794551      -0.77083617      -0.13988817
C       -1.13700521       0.05048468       0.27302874
C       -2.46192338      -0.39751798       0.09504684
C       -0.66951988       1.37849699       0.34001010
N        0.66549503       1.31403771       0.36167063
H        3.07398683      -0.13504082       0.87782694
H        2.66473236      -1.33551087      -0.35059298
H        3.02965318       0.32836083      -0.82610179
H       -0.84865816      -1.77694321      -1.10242528
H       -2.02328579      -1.68502989      -1.23870049
H       -3.26738221       0.26651440       0.40758126
H       -2.72823277      -1.38377538       0.46578268
H       -1.19537393       2.32030793       0.40065073
H        1.27131396       2.11339968       0.45088291
16
Frame=11 idx=008570 GeodesicLength=0.8812792177368725 rxn_smarts="[C:1]([c:2]1[c:3]([H:11])[c:4]([C:5]([H:12])([H:13])[H:14])[c:6]([H:15])[n:7]1[H:16])([H:8])([H:9])[H:10]>>[C:1]([C:2]1=[C-:3][C:4](=[C:5]([H:13])[H:14])[C+:6]([H:15])[N:7]1[H:16])([H:8])([H:9])[H:10].[H:11][H:12]"
C        2.54441974      -0.29252866      -0.06166551
C        1.08894674       0.00452693       0.05048689
C       -0.00817010      -0.77299651      -0.13849755
C       -1.13522398       0.04751638       0.28893975
C       -2.46126903      -0.40073081       0.09778168
C       -0.66965716       1.37798033       0.34006947
N        0.66495200       1.31463386       0.35761481
H        3.07169835      -0.12824060       0.88269689
H        2.66540659      -1.33846536      -0.33723453
H        3.03118699       0.32206396      -0.82459641
H       -0.83015781      -1.77246261      -1.12054202
H       -2.05075524      -1.65496425      -1.25525214
H       -3.26129234       0.25042542       0.45023829
H       -2.72604455      -1.39163232       0.45931743
H       -1.19515880       2.32169072       0.36004045
H        1.27111863       2.11318351       0.45060251
16
Frame=12 idx=008570 GeodesicLength=0.960781873660244 rxn_smarts="[C:1]([c:2]1[c:3]([H:11])[c:4]([C:5]([H:12])([H:13])[H:14])[c:6]([H:15])[n:7]1[H:16])([H:8])([H:9])[H:10]>>[C:1]([C:2]1=[C-:3][C:4](=[C:5]([H:13])[H:14])[C+:6]([H:15])[N:7]1[H:16])([H:8])([H:9])[H:10].[H:11][H:12]"
C        2.54424385      -0.29321902      -0.05657257
C        1.08833179       0.00434703       0.04891112
C       -0.00839694      -0.77503148      -0.13752264
C       -1.13336795       0.04490037       0.30364649
C       -2.46065743      -0.40369334       0.10116786
C       -0.66985308       1.37769815       0.33928723
N        0.66434398       1.31532556       0.35319956
H        3.06913649      -0.12141046       0.88783946
H        2.66608816      -1.34125658      -0.32368923
H        3.03296964       0.31584314      -0.82270804
H       -0.81053506      -1.76950061      -1.13725193
H       -2.08065120      -1.62234061      -1.27228342
H       -3.25442233       0.23315446       0.49300683
H       -2.72330461      -1.39952149       0.45277926
H       -1.19476474       2.32168918       0.31984600
H        1.27083944       2.11301571       0.45034401
16
Frame=13 idx=008570 GeodesicLength=1.0404056593649604 rxn_smarts="[C:1]([c:2]1[c:3]([H:11])[c:4]([C:5]([H:12])([H:13])[H:14])[c:6]([H:15])[n:7]1[H:16])([H:8])([H:9])[H:10]>>[C:1]([C:2]1=[C-:3][C:4](=[C:5]([H:13])[H:14])[C+:6]([H:15])[N:7]1[H:16])([H:8])([H:9])[H:10].[H:11][H:12]"
C        2.54408464      -0.29379737      -0.05132344
C        1.08772522       0.00423044       0.04712405
C       -0.00859280      -0.77704635      -0.13671242
C       -1.13144501       0.04258941       0.31724354
C       -2.46011886      -0.40638998       0.10507691
C       -0.67012265       1.37761491       0.33738586
N        0.66366599       1.31612322       0.34825907
H        3.06638304      -0.11436318       0.89316747
H        2.66681288      -1.34389825      -0.30982999
H        3.03493910       0.30961883      -0.82058661
H       -0.78949381      -1.76876157      -1.15196834
H       -2.11316836      -1.58652151      -1.29007177
H       -3.24671527       0.21467939       0.53592466
H       -2.72013750      -1.40748794       0.44568477
H       -1.19426279       2.32047637       0.28080364
H        1.27044617       2.11293357       0.44982261
16
Frame=14 idx=008570 GeodesicLength=1.1201813261518767 rxn_smarts="[C:1]([c:2]1[c:3]([H:11])[c:4]([C:5]([H:12])([H:13])[H:14])[c:6]([H:15])[n:7]1[H:16])([H:8])([H:9])[H:10]>>[C:1]([C:2]1=[C-:3][C:4](=[C:5]([H:13])[H:14])[C+:6]([H:15])[N:7]1[H:16])([H:8])([H:9])[H:10].[H:11][H:12]"
C        2.54396982      -0.29427247      -0.04585852
C        1.08714992       0.00416978       0.04503851
C       -0.00871990      -0.77909907      -0.13600092
C       -1.12942375       0.04050258       0.32989830
C       -2.45964859      -0.40883733       0.10952899
C       -0.67047125       1.37765337       0.33440355
N        0.66291573       1.31706401       0.34247094
H        3.06340817      -0.10692762       0.89873121
H        2.66762739      -1.34644253      -0.29539405
H        3.03716362       0.30324185      -0.81825330
H       -0.76681148      -1.77086203      -1.16419853
H       -2.14856327      -1.54653253      -1.30903953
H       -3.23806068       0.19477692       0.57937082
H       -2.71661017      -1.41569722       0.43749356
H       -1.19382873       2.31823645       0.24331750
H        1.26990316       2.11302584       0.44849147
16
Frame=15 idx=008570 GeodesicLength=1.2001459996546588 rxn_smarts="[C:1]([c:2]1[c:3]([H:11])[c:4]([C:5]([H:12])([H:13])[H:14])[c:6]([H:15])[n:7]1[H:16])([H:8])([H:9])[H:10]>>[C:1]([C:2]1=[C-:3][C:4](=[C:5]([H:13])[H:14])[C+:6]([H:15])[N:7]1[H:16])([H:8])([H:9])[H:10].[H:11][H:12]"
C        2.54392184      -0.29462362      -0.04017374
C        1.08662509       0.00415735       0.04257971
C       -0.00874427      -0.78125294      -0.13529526
C       -1.12728616       0.03856326       0.34172266
C       -2.45924914      -0.41102831       0.11447851
C       -0.67091183       1.37773312       0.33034498
N        0.66208445       1.31816315       0.33558516
H        3.06020941      -0.09894675       0.90451092
H        2.66857420      -1.34888899      -0.28023471
H        3.03967176       0.29663675      -0.81576567
H       -0.74222828      -1.77665671      -1.17323632
H       -2.18709965      -1.50129983      -1.32943820
H       -3.22833252       0.17318788       0.62358059
H       -2.71280983      -1.42422286       0.42757374
H       -1.19360153       2.31513880       0.20776505
H        1.26917646       2.11333968       0.44600257
16
Frame=16 idx=008570 GeodesicLength=1.2802976373172954 rxn_smarts="[C:1]([c:2]1[c:3]([H:11])[c:4]([C:5]([H:12])([H:13])[H:14])[c:6]([H:15])[n:7]1[H:16])([H:8])([H:9])[H:10]>>[C:1]([C:2]1=[C-:3][C:4](=[C:5]([H:13])[H:14])[C+:6]([H:15])[N:7]1[H:16])([H:8])([H:9])[H:10].[H:11][H:12]"
C        2.54396072      -0.29482922      -0.03424768
C        1.08616801       0.00419755       0.03960402
C       -0.00863229      -0.78354638      -0.13459996
C       -1.12499297       0.03667994       0.35283820
C       -2.45890789      -0.41296600       0.11992886
C       -0.67145731       1.37776417       0.32528984
N        0.66115646       1.31943327       0.32732822
H        3.05672542      -0.09030101       0.91053618
H        2.66969440      -1.35122474      -0.26421349
H        3.04254427       0.28974796      -0.81310897
H       -0.71550035      -1.78703503      -1.17831799
H       -2.22908270      -1.44949461      -1.35143688
H       -3.21734131       0.14948498       0.66892136
H       -2.70881088      -1.43314271       0.41520155
H       -1.19374916       2.31131148       0.17428016
H        1.26822557       2.11392037       0.44199658
