14
Frame=0 idx=011686 GeodesicLength=0.0 rxn_smarts="[C:1]([c:2]1[c:3]([H:11])[o:4][c:5]([N:6]([H:12])[H:13])[c:7]1[H:14])([H:8])([H:9])[H:10]>>[C:1]([C@@:2]1([C:3](=[O:4])[H:11])[C:5]([N:6]([H:12])[H:13])=[C:7]1[H:14])([H:8])([H:9])[H:10]"
C       -1.79665209       0.21329529      -0.37261320
C       -0.51196460      -0.08360023       0.35097244
C       -0.00434521      -1.41731907       0.38735611
O        1.13418528      -1.78083447       0.68547350
C        1.14689374       0.81467388       0.16513369
N        2.19199723       0.44706868      -0.52616980
C        0.21001357       1.01749965       1.00568513
H       -2.48903624       0.78383216       0.25371605
H       -2.29642756      -0.71130349      -0.67014484
H       -1.62851847       0.79895597      -1.28216101
H       -0.73241484      -2.17629406       0.03462694
H        2.39551546      -0.55114166      -0.43590505
H        2.43518703       0.92224707      -1.37815376
H       -0.05443330       1.72292033       1.78218374
14
Frame=1 idx=011686 GeodesicLength=0.08137140713334576 rxn_smarts="[C:1]([c:2]1[c:3]([H:11])[o:4][c:5]([N:6]([H:12])[H:13])[c:7]1[H:14])([H:8])([H:9])[H:10]>>[C:1]([C@@:2]1([C:3](=[O:4])[H:11])[C:5]([N:6]([H:12])[H:13])=[C:7]1[H:14])([H:8])([H:9])[H:10]"
C       -1.80331253       0.21176060      -0.37331860
C       -0.52034096      -0.08508436       0.35235479
C       -0.02585741      -1.42205180       0.42128751
O        1.12758174      -1.75878835       0.70736440
C        1.15597999       0.76808286       0.17806375
N        2.19621067       0.43377960      -0.54131649
C        0.21226110       1.01185868       1.00243984
H       -2.50149557       0.76838649       0.25901523
H       -2.29799155      -0.71030905      -0.68661192
H       -1.63338365       0.81108935      -1.27328707
H       -0.73036932      -2.18672133       0.03812173
H        2.40176269      -0.56585516      -0.49854932
H        2.46687427       0.98001118      -1.34020902
H       -0.04791948       1.74384129       1.75464518
14
Frame=2 idx=011686 GeodesicLength=0.16184880997609086 rxn_smarts="[C:1]([c:2]1[c:3]([H:11])[o:4][c:5]([N:6]([H:12])[H:13])[c:7]1[H:14])([H:8])([H:9])[H:10]>>[C:1]([C@@:2]1([C:3](=[O:4])[H:11])[C:5]([N:6]([H:12])[H:13])=[C:7]1[H:14])([H:8])([H:9])[H:10]"
C       -1.80913460       0.21056168      -0.37508530
C       -0.52758829      -0.08690369       0.35200306
C       -0.04604824      -1.42646913       0.45023705
O        1.12148449      -1.73882092       0.72134666
C        1.16445167       0.72275697       0.19011744
N        2.19929635       0.42365533      -0.55674725
C        0.21544159       1.00503455       0.99886441
H       -2.51306713       0.75213598       0.26384658
H       -2.29831180      -0.70854742      -0.70510086
H       -1.63798841       0.82468354      -1.26448823
H       -0.73374470      -2.19787973       0.05349791
H        2.41168959      -0.57418234      -0.55524215
H        2.49329503       1.03190291      -1.30004803
H       -0.03977556       1.76207227       1.72679871
14
Frame=3 idx=011686 GeodesicLength=0.24230115779115335 rxn_smarts="[C:1]([c:2]1[c:3]([H:11])[o:4][c:5]([N:6]([H:12])[H:13])[c:7]1[H:14])([H:8])([H:9])[H:10]>>[C:1]([C@@:2]1([C:3](=[O:4])[H:11])[C:5]([N:6]([H:12])[H:13])=[C:7]1[H:14])([H:8])([H:9])[H:10]"
C       -1.81682683       0.20903631      -0.37595458
C       -0.53453399      -0.08873609       0.34893025
C       -0.06554817      -1.43022866       0.47475169
O        1.11497400      -1.72007768       0.73022280
C        1.17124639       0.67880501       0.19707080
N        2.20217490       0.41526417      -0.57322984
C        0.21938835       0.99821333       0.99181102
H       -2.52534852       0.73405131       0.27160960
H       -2.30031593      -0.70699836      -0.72234608
H       -1.64745692       0.83891609      -1.25430994
H       -0.74045709      -2.20927029       0.07396209
H        2.42638739      -0.57816495      -0.60578732
H        2.52548438       1.08016990      -1.25249225
H       -0.02916798       1.77901991       1.69576176
14
Frame=4 idx=011686 GeodesicLength=0.32260824344495487 rxn_smarts="[C:1]([c:2]1[c:3]([H:11])[o:4][c:5]([N:6]([H:12])[H:13])[c:7]1[H:14])([H:8])([H:9])[H:10]>>[C:1]([C@@:2]1([C:3](=[O:4])[H:11])[C:5]([N:6]([H:12])[H:13])=[C:7]1[H:14])([H:8])([H:9])[H:10]"
C       -1.82562717       0.20751039      -0.37633302
C       -0.54124681      -0.09062185       0.34403093
C       -0.08434375      -1.43343519       0.49569889
O        1.10818883      -1.70265290       0.73466695
C        1.17657519       0.63613639       0.20009977
N        2.20382997       0.40893858      -0.59163775
C        0.22405284       0.99112445       0.98249346
H       -2.53782615       0.71495117       0.28107697
H       -2.30340496      -0.70518030      -0.73897063
H       -1.65986871       0.85374938      -1.24312273
H       -0.75002758      -2.22070046       0.09845594
H        2.44741085      -0.57753477      -0.64885921
H        2.55860803       1.12348188      -1.20061502
H       -0.01632059       1.79423322       1.66301544
14
Frame=5 idx=011686 GeodesicLength=0.40302756546226265 rxn_smarts="[C:1]([c:2]1[c:3]([H:11])[o:4][c:5]([N:6]([H:12])[H:13])[c:7]1[H:14])([H:8])([H:9])[H:10]>>[C:1]([C@@:2]1([C:3](=[O:4])[H:11])[C:5]([N:6]([H:12])[H:13])=[C:7]1[H:14])([H:8])([H:9])[H:10]"
C       -1.83740202       0.20573492      -0.37474911
C       -0.54848444      -0.09229683       0.33692067
C       -0.10264389      -1.43573797       0.51274597
O        1.10076370      -1.68530893       0.73662976
C        1.17957355       0.59505710       0.19628610
N        2.20316014       0.40347863      -0.61485308
C        0.22925484       0.98460095       0.96882631
H       -2.55149663       0.69441110       0.29465007
H       -2.30981171      -0.70347483      -0.75273065
H       -1.67852705       0.86880111      -1.22973719
H       -0.75975375      -2.23153128       0.12111651
H        2.47766635      -0.57300665      -0.68112786
H        2.59841290       1.16085279      -1.14099006
H       -0.00071198       1.80841991       1.62701257
14
Frame=6 idx=011686 GeodesicLength=0.48343101441696784 rxn_smarts="[C:1]([c:2]1[c:3]([H:11])[o:4][c:5]([N:6]([H:12])[H:13])[c:7]1[H:14])([H:8])([H:9])[H:10]>>[C:1]([C@@:2]1([C:3](=[O:4])[H:11])[C:5]([N:6]([H:12])[H:13])=[C:7]1[H:14])([H:8])([H:9])[H:10]"
C       -1.84968134       0.20432967      -0.37280600
C       -0.55543097      -0.09409797       0.32844845
C       -0.12036027      -1.43774026       0.52719563
O        1.09324781      -1.66934603       0.73469764
C        1.18152375       0.55493060       0.18947035
N        2.20160701       0.40036655      -0.63974183
C        0.23518733       0.97741109       0.95384009
H       -2.56463024       0.67380635       0.30923347
H       -2.31722551      -0.70092939      -0.76591112
H       -1.69863190       0.88440171      -1.21545990
H       -0.77138741      -2.24213501       0.14600471
H        2.51547351      -0.56315362      -0.70465140
H        2.63390268       1.19133087      -1.08014700
H        0.01640554       1.82082542       1.58982690
14
Frame=7 idx=011686 GeodesicLength=0.5637556540572775 rxn_smarts="[C:1]([c:2]1[c:3]([H:11])[o:4][c:5]([N:6]([H:12])[H:13])[c:7]1[H:14])([H:8])([H:9])[H:10]>>[C:1]([C@@:2]1([C:3](=[O:4])[H:11])[C:5]([N:6]([H:12])[H:13])=[C:7]1[H:14])([H:8])([H:9])[H:10]"
C       -1.86213848       0.20274750      -0.37096284
C       -0.56176155      -0.09584602       0.31835956
C       -0.13752723      -1.43909481       0.54106681
O        1.08588487      -1.65426272       0.72962346
C        1.18268135       0.51614743       0.18010744
N        2.20215891       0.40043322      -0.66242581
C        0.24151048       0.97018549       0.93735166
H       -2.57723331       0.65234090       0.32412595
H       -2.32481769      -0.69838796      -0.77893645
H       -1.71993934       0.89986445      -1.20082410
H       -0.78452882      -2.25229878       0.17492116
H        2.55250395      -0.54932872      -0.72913679
H        2.66884482       1.21567449      -1.01487795
H        0.03436203       1.83182554       1.55160790
14
Frame=8 idx=011686 GeodesicLength=0.644350864219885 rxn_smarts="[C:1]([c:2]1[c:3]([H:11])[o:4][c:5]([N:6]([H:12])[H:13])[c:7]1[H:14])([H:8])([H:9])[H:10]>>[C:1]([C@@:2]1([C:3](=[O:4])[H:11])[C:5]([N:6]([H:12])[H:13])=[C:7]1[H:14])([H:8])([H:9])[H:10]"
C       -1.87422046       0.20169358      -0.36929760
C       -0.56735833      -0.09783966       0.30687592
C       -0.15435058      -1.44033002       0.55349720
O        1.07813333      -1.64104990       0.72200465
C        1.18353422       0.47784577       0.16950648
N        2.20574394       0.40271932      -0.68098178
C        0.24847472       0.96194324       0.92063481
H       -2.58860121       0.63122342       0.33901854
H       -2.33268525      -0.69475872      -0.79201504
H       -1.74108493       0.91586596      -1.18574364
H       -0.79918545      -2.26197686       0.20587268
H        2.59343488      -0.53147439      -0.74819441
H        2.69516693       1.23522537      -0.95413318
H        0.05299818       1.84091289       1.51295536
14
Frame=9 idx=011686 GeodesicLength=0.7247427351026988 rxn_smarts="[C:1]([c:2]1[c:3]([H:11])[o:4][c:5]([N:6]([H:12])[H:13])[c:7]1[H:14])([H:8])([H:9])[H:10]>>[C:1]([C@@:2]1([C:3](=[O:4])[H:11])[C:5]([N:6]([H:12])[H:13])=[C:7]1[H:14])([H:8])([H:9])[H:10]"
C       -1.88607933       0.20023224      -0.36797680
C       -0.57232516      -0.09978267       0.29421932
C       -0.17050725      -1.44067817       0.56644193
O        1.07052663      -1.62822782       0.71334938
C        1.18380873       0.44092297       0.15714792
N        2.21193612       0.40792901      -0.69577037
C        0.25556009       0.95396019       0.90275412
H       -2.59922506       0.60952312       0.35336516
H       -2.34036729      -0.69152978      -0.80482538
H       -1.76252179       0.93095557      -1.17085098
H       -0.81391637      -2.27076487       0.24002607
H        2.62875375      -0.51189943      -0.77345386
H        2.72259305       1.25049440      -0.88815552
H        0.07176388       1.84886523       1.47372899
14
Frame=10 idx=011686 GeodesicLength=0.8051695919418164 rxn_smarts="[C:1]([c:2]1[c:3]([H:11])[o:4][c:5]([N:6]([H:12])[H:13])[c:7]1[H:14])([H:8])([H:9])[H:10]>>[C:1]([C@@:2]1([C:3](=[O:4])[H:11])[C:5]([N:6]([H:12])[H:13])=[C:7]1[H:14])([H:8])([H:9])[H:10]"
C       -1.89781144       0.19895264      -0.36667264
C       -0.57686852      -0.10187840       0.28052161
C       -0.18623413      -1.44055796       0.57867260
O        1.06261487      -1.61636377       0.70398792
C        1.18357942       0.40467764       0.14298133
N        2.22015063       0.41467592      -0.70745331
C        0.26303667       0.94559344       0.88402472
H       -2.60891214       0.58809781       0.36764409
H       -2.34853868      -0.68780555      -0.81714527
H       -1.78403730       0.94582049      -1.15569726
H       -0.82868331      -2.27870224       0.27507018
H        2.66475980      -0.49007876      -0.79692754
H        2.74581925       1.26241905      -0.82334432
H        0.09112487       1.85514969       1.43433788
14
Frame=11 idx=011686 GeodesicLength=0.8856468416560364 rxn_smarts="[C:1]([c:2]1[c:3]([H:11])[o:4][c:5]([N:6]([H:12])[H:13])[c:7]1[H:14])([H:8])([H:9])[H:10]>>[C:1]([C@@:2]1([C:3](=[O:4])[H:11])[C:5]([N:6]([H:12])[H:13])=[C:7]1[H:14])([H:8])([H:9])[H:10]"
C       -1.90935856       0.19802102      -0.36533818
C       -0.58107171      -0.10421972       0.26591909
C       -0.20162483      -1.44011268       0.58997429
O        1.05430717      -1.60559010       0.69417005
C        1.18288948       0.36878537       0.12698910
N        2.22984149       0.42219678      -0.71654016
C        0.27100273       0.93661351       0.86452906
H       -2.61758342       0.56721464       0.38186522
H       -2.35730658      -0.68332019      -0.82898855
H       -1.80536476       0.96064210      -1.14018936
H       -0.84347915      -2.28579156       0.31053579
H        2.70282139      -0.46596235      -0.81649804
H        2.76365576       1.27200958      -0.76151621
H        0.11127098       1.85951359       1.39508790
14
Frame=12 idx=011686 GeodesicLength=0.9658911277341712 rxn_smarts="[C:1]([c:2]1[c:3]([H:11])[o:4][c:5]([N:6]([H:12])[H:13])[c:7]1[H:14])([H:8])([H:9])[H:10]>>[C:1]([C@@:2]1([C:3](=[O:4])[H:11])[C:5]([N:6]([H:12])[H:13])=[C:7]1[H:14])([H:8])([H:9])[H:10]"
C       -1.92057832       0.19711685      -0.36413187
C       -0.58497008      -0.10664346       0.25080051
C       -0.21637513      -1.43900418       0.60105340
O        1.04602379      -1.59504121       0.68501616
C        1.18169832       0.33376157       0.10944705
N        2.24012291       0.43080031      -0.72360108
C        0.27916537       0.92760176       0.84427432
H       -2.62544780       0.54652810       0.39557200
H       -2.36615882      -0.67860689      -0.84051205
H       -1.82626503       0.97497107      -1.12461452
H       -0.85731513      -2.29189553       0.34637545
H        2.73897096      -0.44044687      -0.83694506
H        2.77948456       1.27838807      -0.69895057
H        0.13164439       1.86247043       1.35621625
14
Frame=13 idx=011686 GeodesicLength=1.0458310595126286 rxn_smarts="[C:1]([c:2]1[c:3]([H:11])[o:4][c:5]([N:6]([H:12])[H:13])[c:7]1[H:14])([H:8])([H:9])[H:10]>>[C:1]([C@@:2]1([C:3](=[O:4])[H:11])[C:5]([N:6]([H:12])[H:13])=[C:7]1[H:14])([H:8])([H:9])[H:10]"
C       -1.93143322       0.19603027      -0.36315065
C       -0.58857239      -0.10904387       0.23530502
C       -0.23022515      -1.43700547       0.61214682
O        1.03812622      -1.58413341       0.67693673
C        1.18001229       0.29999673       0.09058983
N        2.25049954       0.44091199      -0.72884552
C        0.28728443       0.91891319       0.82330444
H       -2.63265488       0.52580659       0.40853178
H       -2.37484078      -0.67401882      -0.85178851
H       -1.84672306       0.98852866      -1.10916848
H       -0.86969909      -2.29692599       0.38287061
H        2.77100781      -0.41381805      -0.86139433
H        2.79553068       1.28027228      -0.63302838
H        0.15168761       1.86448591       1.31769063
14
Frame=14 idx=011686 GeodesicLength=1.1257367444769357 rxn_smarts="[C:1]([c:2]1[c:3]([H:11])[o:4][c:5]([N:6]([H:12])[H:13])[c:7]1[H:14])([H:8])([H:9])[H:10]>>[C:1]([C@@:2]1([C:3](=[O:4])[H:11])[C:5]([N:6]([H:12])[H:13])=[C:7]1[H:14])([H:8])([H:9])[H:10]"
C       -1.94186717       0.19563214      -0.36202262
C       -0.59192895      -0.11183480       0.21935117
C       -0.24388354      -1.43503012       0.62197412
O        1.02986589      -1.57429787       0.66942911
C        1.17808522       0.26604044       0.07044641
N        2.26083897       0.45019301      -0.73280169
C        0.29598350       0.90924045       0.80207688
H       -2.63870113       0.50634708       0.42137603
H       -2.38423295      -0.66817351      -0.86253133
H       -1.86617042       1.00231551      -1.09331891
H       -0.88171646      -2.30131106       0.41812718
H        2.80708617      -0.38512466      -0.87819005
H        2.80398746       1.28175438      -0.57427480
H        0.17265341       1.86424899       1.28035850
14
Frame=15 idx=011686 GeodesicLength=1.2051378221474793 rxn_smarts="[C:1]([c:2]1[c:3]([H:11])[o:4][c:5]([N:6]([H:12])[H:13])[c:7]1[H:14])([H:8])([H:9])[H:10]>>[C:1]([C@@:2]1([C:3](=[O:4])[H:11])[C:5]([N:6]([H:12])[H:13])=[C:7]1[H:14])([H:8])([H:9])[H:10]"
C       -1.95154498       0.19453543      -0.36168901
C       -0.59494553      -0.11425445       0.20368894
C       -0.25603939      -1.43156683       0.63278597
O        1.02281575      -1.56268280       0.66424940
C        1.17573391       0.23442382       0.05024034
N        2.27002676       0.46217276      -0.73516791
C        0.30399090       0.90089018       0.78070729
H       -2.64456351       0.48593333       0.43236272
H       -2.39207438      -0.66327849      -0.87397978
H       -1.88467618       1.01487337      -1.07815622
H       -0.89113549      -2.30433697       0.45493223
H        2.83294848      -0.35565200      -0.90737348
H        2.81762450       1.27471506      -0.50644683
H        0.19183915       1.86422759       1.24384633
14
Frame=16 idx=011686 GeodesicLength=1.2844561246132022 rxn_smarts="[C:1]([c:2]1[c:3]([H:11])[o:4][c:5]([N:6]([H:12])[H:13])[c:7]1[H:14])([H:8])([H:9])[H:10]>>[C:1]([C@@:2]1([C:3](=[O:4])[H:11])[C:5]([N:6]([H:12])[H:13])=[C:7]1[H:14])([H:8])([H:9])[H:10]"
C       -1.96051205       0.19419324      -0.36136354
C       -0.59763453      -0.11708746       0.18787811
C       -0.26806347      -1.42825968       0.64249758
O        1.01551337      -1.55210326       0.66000316
C        1.17341010       0.20246071       0.02969361
N        2.27836029       0.47279611      -0.73684949
C        0.31252001       0.89148251       0.75969033
H       -2.64934506       0.46659225       0.44292886
H       -2.40008245      -0.65694774      -0.88547171
H       -1.90165004       1.02795954      -1.06251340
H       -0.90025692      -2.30679559       0.49052877
H        2.86252189      -0.32429125      -0.92878879
H        2.82346144       1.26799317      -0.44749636
H        0.21175742       1.86200744       1.20926286
