14
Frame=0 idx=008891 GeodesicLength=0.0 rxn_smarts="[O:1]=[C:2]1[C:3]([H:8])([H:9])[N:4]2[C:5]([H:10])([H:11])[C:6]1([H:12])[C:7]2([H:13])[H:14]>>[O:1]([C:2]1=[C:6]2[C:5]([H:10])([H:11])[N:4]([C:3]1([H:8])[H:9])[C:7]2([H:13])[H:14])[H:12]"
O       -1.14854412       1.40430938       1.51053614
C       -0.69468064       0.64120929       0.62201777
C       -1.20386636      -0.07526796      -0.59244876
N        0.07940242      -0.72015938      -0.98125713
C        1.02515791       0.43328136      -0.76470506
C        0.70174225       0.35363353       0.78266520
C        0.56517187      -1.16882524       0.37273633
H       -1.57258077       0.60031393      -1.36635759
H       -1.97811406      -0.81037302      -0.36587229
H        0.78396311       1.34459437      -1.31826788
H        2.04576349       0.12381662      -0.98399024
H       -0.01669363       1.34153796       1.88127568
H        1.53543418      -1.65371734       0.27781127
H       -0.12215568      -1.81435354       0.92585650
14
Frame=1 idx=008891 GeodesicLength=0.04843803702403708 rxn_smarts="[O:1]=[C:2]1[C:3]([H:8])([H:9])[N:4]2[C:5]([H:10])([H:11])[C:6]1([H:12])[C:7]2([H:13])[H:14]>>[O:1]([C:2]1=[C:6]2[C:5]([H:10])([H:11])[N:4]([C:3]1([H:8])[H:9])[C:7]2([H:13])[H:14])[H:12]"
O       -1.14635258       1.41250173       1.50469745
C       -0.69977042       0.63988888       0.62129265
C       -1.20430331      -0.07832508      -0.59463297
N        0.08013897      -0.72031805      -0.98180723
C        1.02248886       0.43472097      -0.76150991
C        0.69793312       0.34913322       0.78645223
C        0.56424464      -1.17076376       0.37196378
H       -1.57369882       0.59842163      -1.36714439
H       -1.97748745      -0.81443580      -0.36774333
H        0.77990672       1.34673142      -1.31321036
H        2.04477048       0.12910226      -0.97832661
H        0.00002499       1.34591749       1.87983516
H        1.53540093      -1.65412909       0.27791222
H       -0.12329614      -1.81844579       0.92222132
14
Frame=2 idx=008891 GeodesicLength=0.09688129700183834 rxn_smarts="[O:1]=[C:2]1[C:3]([H:8])([H:9])[N:4]2[C:5]([H:10])([H:11])[C:6]1([H:12])[C:7]2([H:13])[H:14]>>[O:1]([C:2]1=[C:6]2[C:5]([H:10])([H:11])[N:4]([C:3]1([H:8])[H:9])[C:7]2([H:13])[H:14])[H:12]"
O       -1.14426369       1.42064965       1.49871780
C       -0.70488466       0.63860338       0.62058129
C       -1.20473878      -0.08136055      -0.59680394
N        0.08087121      -0.72045658      -0.98233334
C        1.01979945       0.43616932      -0.75829778
C        0.69408288       0.34465502       0.79023403
C        0.56331277      -1.17267373       0.37121375
H       -1.57482186       0.59652111      -1.36793739
H       -1.97685368      -0.81848673      -0.36962353
H        0.77582474       1.34886191      -1.30814898
H        2.04374304       0.13440250      -0.97260955
H        0.01699515       1.35013115       1.87836264
H        1.53536467      -1.65450373       0.27805217
H       -0.12443125      -1.82251273       0.91859285
14
Frame=3 idx=008891 GeodesicLength=0.14532893746113815 rxn_smarts="[O:1]=[C:2]1[C:3]([H:8])([H:9])[N:4]2[C:5]([H:10])([H:11])[C:6]1([H:12])[C:7]2([H:13])[H:14]>>[O:1]([C:2]1=[C:6]2[C:5]([H:10])([H:11])[N:4]([C:3]1([H:8])[H:9])[C:7]2([H:13])[H:14])[H:12]"
O       -1.14227569       1.42876773       1.49258456
C       -0.71002638       0.63734672       0.61988759
C       -1.20517356      -0.08437816      -0.59896001
N        0.08159939      -0.72057444      -0.98283562
C        1.01708855       0.43762808      -0.75506524
C        0.69018811       0.34019484       0.79401432
C        0.56237445      -1.17455755       0.37048524
H       -1.57595054       0.59460943      -1.36873356
H       -1.97621290      -0.82253208      -0.37151298
H        0.77171430       1.35099000      -1.30307456
H        2.04268189       0.13972541      -0.96683165
H        0.03423198       1.35418265       1.87684946
H        1.53532429      -1.65484099       0.27822794
H       -0.12556390      -1.82656163       0.91496451
14
Frame=4 idx=008891 GeodesicLength=0.19378642184867284 rxn_smarts="[O:1]=[C:2]1[C:3]([H:8])([H:9])[N:4]2[C:5]([H:10])([H:11])[C:6]1([H:12])[C:7]2([H:13])[H:14]>>[O:1]([C:2]1=[C:6]2[C:5]([H:10])([H:11])[N:4]([C:3]1([H:8])[H:9])[C:7]2([H:13])[H:14])[H:12]"
O       -1.14039210       1.43685689       1.48629744
C       -0.71519894       0.63611704       0.61921217
C       -1.20560958      -0.08737881      -0.60110210
N        0.08232370      -0.72067109      -0.98331506
C        1.01435422       0.43909843      -0.75180877
C        0.68624580       0.33574987       0.79779684
C        0.56142951      -1.17641749       0.36977753
H       -1.57708662       0.59268516      -1.36953550
H       -1.97556435      -0.82657543      -0.37341384
H        0.76757256       1.35311901      -1.29798098
H        2.04158682       0.14507496      -0.96098644
H        0.05175373       1.35808270       1.87528655
H        1.53527945      -1.65514467       0.27843987
H       -0.12669421      -1.83059658       0.91133229
14
Frame=5 idx=008891 GeodesicLength=0.24225390823902743 rxn_smarts="[O:1]=[C:2]1[C:3]([H:8])([H:9])[N:4]2[C:5]([H:10])([H:11])[C:6]1([H:12])[C:7]2([H:13])[H:14]>>[O:1]([C:2]1=[C:6]2[C:5]([H:10])([H:11])[N:4]([C:3]1([H:8])[H:9])[C:7]2([H:13])[H:14])[H:12]"
O       -1.13860817       1.44493973       1.47983619
C       -0.72040538       0.63491205       0.61855585
C       -1.20604808      -0.09036549      -0.60322888
N        0.08304430      -0.72074563      -0.98377122
C        1.01159423       0.44058251      -0.74852586
C        0.68225231       0.33131833       0.80158401
C        0.56047737      -1.17825420       0.36909031
H       -1.57823142       0.59074179      -1.37034479
H       -1.97490781      -0.83062067      -0.37532246
H        0.76339655       1.35525313      -1.29286190
H        2.04045681       0.15045881      -0.95506881
H        0.06957167       1.36181530       1.87367911
H        1.53522964      -1.65541431       0.27868582
H       -0.12782203      -1.83462135       0.90769264
14
Frame=6 idx=008891 GeodesicLength=0.2907466683405306 rxn_smarts="[O:1]=[C:2]1[C:3]([H:8])([H:9])[N:4]2[C:5]([H:10])([H:11])[C:6]1([H:12])[C:7]2([H:13])[H:14]>>[O:1]([C:2]1=[C:6]2[C:5]([H:10])([H:11])[N:4]([C:3]1([H:8])[H:9])[C:7]2([H:13])[H:14])[H:12]"
O       -1.13692352       1.45303063       1.47319056
C       -0.72565211       0.63372902       0.61791918
C       -1.20649409      -0.09334157      -0.60534167
N        0.08376133      -0.72079941      -0.98420546
C        1.00880771       0.44208170      -0.74521267
C        0.67820484       0.32689836       0.80537956
C        0.55951825      -1.18007100       0.36842197
H       -1.57939070       0.58877660      -1.37116306
H       -1.97424819      -0.83467424      -0.37724183
H        0.75918343       1.35739771      -1.28770758
H        2.03929524       0.15588086      -0.94907184
H        0.08770563       1.36538631       1.87202799
H        1.53517925      -1.65565172       0.27896501
H       -0.12894707      -1.83864326       0.90403984
14
Frame=7 idx=008891 GeodesicLength=0.3392276171541212 rxn_smarts="[O:1]=[C:2]1[C:3]([H:8])([H:9])[N:4]2[C:5]([H:10])([H:11])[C:6]1([H:12])[C:7]2([H:13])[H:14]>>[O:1]([C:2]1=[C:6]2[C:5]([H:10])([H:11])[N:4]([C:3]1([H:8])[H:9])[C:7]2([H:13])[H:14])[H:12]"
O       -1.13533076       1.46116826       1.46632885
C       -0.73093416       0.63256908       0.61730468
C       -1.20694131      -0.09630884      -0.60743453
N        0.08447411      -0.72082705      -0.98461498
C        1.00599061       0.44359786      -0.74187057
C        0.67409832       0.32249068       0.80918253
C        0.55855057      -1.18186273       0.36777423
H       -1.58055977       0.58677897      -1.37198936
H       -1.97357552      -0.83873466      -0.37915925
H        0.75493001       1.35955412      -1.28251550
H        2.03809212       0.16135203      -0.94299515
H        0.10615244       1.36872824       1.87033380
H        1.53512160      -1.65584701       0.27928040
H       -0.13006826      -1.84265894       0.90037484
14
Frame=8 idx=008891 GeodesicLength=0.38771713996954577 rxn_smarts="[O:1]=[C:2]1[C:3]([H:8])([H:9])[N:4]2[C:5]([H:10])([H:11])[C:6]1([H:12])[C:7]2([H:13])[H:14]>>[O:1]([C:2]1=[C:6]2[C:5]([H:10])([H:11])[N:4]([C:3]1([H:8])[H:9])[C:7]2([H:13])[H:14])[H:12]"
O       -1.13385089       1.46925391       1.45930623
C       -0.73625802       0.63143251       0.61670030
C       -1.20739111      -0.09926123      -0.60951750
N        0.08518357      -0.72082840      -0.98500032
C        1.00314332       0.44512945      -0.73849788
C        0.66992958       0.31809599       0.81299153
C        0.55756916      -1.18362752       0.36714992
H       -1.58173689       0.58476444      -1.37282841
H       -1.97289037      -0.84279923      -0.38109596
H        0.75063846       1.36171441      -1.27729834
H        2.03684854       0.16686015      -0.93683057
H        0.12495263       1.37192732       1.86857843
H        1.53505209      -1.65600113       0.27963941
H       -0.13119007      -1.84666067       0.89670316
14
Frame=9 idx=008891 GeodesicLength=0.436235803213511 rxn_smarts="[O:1]=[C:2]1[C:3]([H:8])([H:9])[N:4]2[C:5]([H:10])([H:11])[C:6]1([H:12])[C:7]2([H:13])[H:14]>>[O:1]([C:2]1=[C:6]2[C:5]([H:10])([H:11])[N:4]([C:3]1([H:8])[H:9])[C:7]2([H:13])[H:14])[H:12]"
O       -1.13248991       1.47733924       1.45209357
C       -0.74162617       0.63032828       0.61610978
C       -1.20784871      -0.10220310      -0.61158791
N        0.08589032      -0.72080609      -0.98536198
C        1.00026874       0.44667930      -0.73509452
C        0.66569888       0.31372171       0.81680967
C        0.55657723      -1.18536521       0.36654913
H       -1.58293225       0.58272202      -1.37368052
H       -1.97220069      -0.84687419      -0.38304531
H        0.74630808       1.36388493      -1.27204969
H        2.03557208       0.17241329      -0.93057742
H        0.14411659       1.37492498       1.86677110
H        1.53497927      -1.65611298       0.28004212
H       -0.13231346      -1.85065215       0.89302199
14
Frame=10 idx=008891 GeodesicLength=0.4848713392463338 rxn_smarts="[O:1]=[C:2]1[C:3]([H:8])([H:9])[N:4]2[C:5]([H:10])([H:11])[C:6]1([H:12])[C:7]2([H:13])[H:14]>>[O:1]([C:2]1=[C:6]2[C:5]([H:10])([H:11])[N:4]([C:3]1([H:8])[H:9])[C:7]2([H:13])[H:14])[H:12]"
O       -1.13128166       1.48544288       1.44465902
C       -0.74703325       0.62925255       0.61553876
C       -1.20831163      -0.10513433      -0.61363969
N        0.08659348      -0.72075676      -0.98569921
C        0.99736393       0.44824823      -0.73165795
C        0.66140497       0.30936018       0.82063853
C        0.55557449      -1.18707809       0.36597052
H       -1.58414280       0.58064926      -1.37454347
H       -1.97150125      -0.85095845      -0.38500115
H        0.74193321       1.36606946      -1.26675993
H        2.03425775       0.17801439      -0.92423160
H        0.16367656       1.37771291       1.86491541
H        1.53490104      -1.65618244       0.28048568
H       -0.13343482      -1.85463978       0.88932507
14
Frame=11 idx=008891 GeodesicLength=0.5335069798644787 rxn_smarts="[O:1]=[C:2]1[C:3]([H:8])([H:9])[N:4]2[C:5]([H:10])([H:11])[C:6]1([H:12])[C:7]2([H:13])[H:14]>>[O:1]([C:2]1=[C:6]2[C:5]([H:10])([H:11])[N:4]([C:3]1([H:8])[H:9])[C:7]2([H:13])[H:14])[H:12]"
O       -1.13019929       1.49353489       1.43703406
C       -0.75248689       0.62821683       0.61496933
C       -1.20878078      -0.10805432      -0.61568304
N        0.08729398      -0.72068279      -0.98601017
C        0.99442848       0.44983672      -0.72819531
C        0.65704300       0.30502918       0.82447160
C        0.55455934      -1.18875431       0.36542142
H       -1.58536669       0.57854525      -1.37543013
H       -1.97079430      -0.85504874      -0.38696793
H        0.73751536       1.36826169      -1.26144859
H        2.03290349       0.18365978      -0.91779844
H        0.18362395       1.38025886       1.86302504
H        1.53481659      -1.65619729       0.28098565
H       -0.13455623      -1.85860573       0.88562652
14
Frame=12 idx=008891 GeodesicLength=0.5821465744228633 rxn_smarts="[O:1]=[C:2]1[C:3]([H:8])([H:9])[N:4]2[C:5]([H:10])([H:11])[C:6]1([H:12])[C:7]2([H:13])[H:14]>>[O:1]([C:2]1=[C:6]2[C:5]([H:10])([H:11])[N:4]([C:3]1([H:8])[H:9])[C:7]2([H:13])[H:14])[H:12]"
O       -1.12926420       1.50159147       1.42923458
C       -0.75798517       0.62723262       0.61439122
C       -1.20925515      -0.11095988      -0.61772193
N        0.08799202      -0.72058535      -0.98629315
C        0.99146375       0.45144454      -0.72471310
C        0.65261339       0.30074077       0.82830314
C        0.55353171      -1.19038546       0.36490691
H       -1.58660093       0.57641067      -1.37634792
H       -1.97008012      -0.85913884      -0.38894509
H        0.73305855       1.37045658      -1.25613142
H        2.03150818       0.18934331      -0.91128661
H        0.20397077       1.38253528       1.86111391
H        1.53472518      -1.65615052       0.28155106
H       -0.13567798      -1.86253518       0.88193839
14
Frame=13 idx=008891 GeodesicLength=0.6307924498106535 rxn_smarts="[O:1]=[C:2]1[C:3]([H:8])([H:9])[N:4]2[C:5]([H:10])([H:11])[C:6]1([H:12])[C:7]2([H:13])[H:14]>>[O:1]([C:2]1=[C:6]2[C:5]([H:10])([H:11])[N:4]([C:3]1([H:8])[H:9])[C:7]2([H:13])[H:14])[H:12]"
O       -1.12849673       1.50959326       1.42127383
C       -0.76352665       0.62631074       0.61379442
C       -1.20973389      -0.11384844      -0.61976024
N        0.08868794      -0.72046564      -0.98654658
C        0.98847086       0.45307182      -0.72121759
C        0.64811621       0.29650688       0.83212772
C        0.55249156      -1.19196346       0.36443195
H       -1.58784288       0.57424550      -1.37730423
H       -1.96935901      -0.86322340      -0.39093174
H        0.72856628       1.37264988      -1.25082354
H        2.03007068       0.19505987      -0.90470467
H        0.22472959       1.38451275       1.85919767
H        1.53462625      -1.65603536       0.28219047
H       -0.13680021      -1.86641439       0.87827252
14
Frame=14 idx=008891 GeodesicLength=0.679444708045497 rxn_smarts="[O:1]=[C:2]1[C:3]([H:8])([H:9])[N:4]2[C:5]([H:10])([H:11])[C:6]1([H:12])[C:7]2([H:13])[H:14]>>[O:1]([C:2]1=[C:6]2[C:5]([H:10])([H:11])[N:4]([C:3]1([H:8])[H:9])[C:7]2([H:13])[H:14])[H:12]"
O       -1.12791708       1.51752353       1.41316425
C       -0.76911033       0.62546072       0.61316937
C       -1.21021624      -0.11671798      -0.62180184
N        0.08938219      -0.72032484      -0.98676900
C        0.98545072       0.45471899      -0.71771453
C        0.64355120       0.29233884       0.83594053
C        0.55143886      -1.19348075       0.36400125
H       -1.58909006       0.57204945      -1.37830621
H       -1.96863132      -0.86729774      -0.39292716
H        0.72404168       1.37483794      -1.24553896
H        2.02858986       0.20080510      -0.89806062
H        0.24591425       1.38616262       1.85729084
H        1.53451928      -1.65584529       0.28291195
H       -0.13792301      -1.87023060       0.87464011
14
Frame=15 idx=008891 GeodesicLength=0.7281021525076249 rxn_smarts="[O:1]=[C:2]1[C:3]([H:8])([H:9])[N:4]2[C:5]([H:10])([H:11])[C:6]1([H:12])[C:7]2([H:13])[H:14]>>[O:1]([C:2]1=[C:6]2[C:5]([H:10])([H:11])[N:4]([C:3]1([H:8])[H:9])[C:7]2([H:13])[H:14])[H:12]"
O       -1.12754489       1.52536873       1.40491652
C       -0.77473577       0.62469103       0.61250690
C       -1.21070160      -0.11956697      -0.62385056
N        0.09007535      -0.72016403      -0.98695905
C        0.98240392       0.45638676      -0.71420917
C        0.63891771       0.28824754       0.83973722
C        0.55037355      -1.19493011       0.36361942
H       -1.59034027       0.56982174      -1.37936089
H       -1.96789737      -0.87135789      -0.39493069
H        0.71948732       1.37701774      -1.24029072
H        2.02706454       0.20657557      -0.89136199
H        0.26753999       1.38745579       1.85540795
H        1.53440386      -1.65557395       0.28372317
H       -0.13904634      -1.87397195       0.87105191
14
Frame=16 idx=008891 GeodesicLength=0.7767622262442723 rxn_smarts="[O:1]=[C:2]1[C:3]([H:8])([H:9])[N:4]2[C:5]([H:10])([H:11])[C:6]1([H:12])[C:7]2([H:13])[H:14]>>[O:1]([C:2]1=[C:6]2[C:5]([H:10])([H:11])[N:4]([C:3]1([H:8])[H:9])[C:7]2([H:13])[H:14])[H:12]"
O       -1.12739966       1.53311760       1.39654034
C       -0.78040298       0.62400916       0.61179818
C       -1.21118947      -0.12239437      -0.62591025
N        0.09076808      -0.71998420      -0.98711542
C        0.97933081       0.45807616      -0.71070630
C        0.63421468       0.28424346       0.84351396
C        0.54929557      -1.19630461       0.36329091
H       -1.59159148       0.56756123      -1.38047519
H       -1.96715748      -0.87540053      -0.39694185
H        0.71490533       1.37918675      -1.23509106
H        2.02549351       0.21236864      -0.88461570
H        0.28962369       1.38836316       1.85356271
H        1.53427955      -1.65521510       0.28463147
H       -0.14017016      -1.87762736       0.86751819
