18
Frame=0 idx=006564 GeodesicLength=0.0 rxn_smarts="[C:1]([C:2]([C:3]([C:4]([C:5]([H:16])([H:17])[H:18])([H:14])[H:15])([C:6]#[N:7])[H:13])([H:11])[H:12])([H:8])([H:9])[H:10]>>[C:1]([C@:2]1([H:11])[C@:3]([C:4]([C:5]([H:16])([H:17])[H:18])([H:14])[H:15])([H:13])/[C:6]1=[N:7]/[H:12])([H:8])([H:9])[H:10]"
C       -2.49684462       0.01700978       0.45853924
C       -1.29408102      -0.17480489      -0.42936007
C        0.10196789       0.19594272       0.21350576
C        1.24112583      -0.79508006       0.07637755
C        2.60003543      -0.17267984       0.36773806
C       -0.14360279       1.12501427      -0.83738078
N       -0.24951071       1.94451750      -1.73383267
H       -3.41957095      -0.18215537      -0.08898951
H       -2.55975360       1.04534981       0.82591835
H       -2.48112232      -0.64279642       1.33394463
H       -1.22597666      -1.12262810      -0.95858112
H       -1.19482810       1.01717000      -1.58691443
H        0.00223556       0.61463411       1.21556018
H        1.04278638      -1.62788045       0.75704869
H        1.22837515      -1.20711210      -0.93628868
H        2.64115750       0.23400609       1.38064216
H        3.39748122      -0.91059950       0.27037171
H        2.81012576       0.64209242      -0.32829911
18
Frame=1 idx=006564 GeodesicLength=0.08073880223957745 rxn_smarts="[C:1]([C:2]([C:3]([C:4]([C:5]([H:16])([H:17])[H:18])([H:14])[H:15])([C:6]#[N:7])[H:13])([H:11])[H:12])([H:8])([H:9])[H:10]>>[C:1]([C@:2]1([H:11])[C@:3]([C:4]([C:5]([H:16])([H:17])[H:18])([H:14])[H:15])([H:13])/[C:6]1=[N:7]/[H:12])([H:8])([H:9])[H:10]"
C       -2.49960224       0.02618370       0.45708052
C       -1.29343055      -0.17783868      -0.42466529
C        0.10007087       0.18852153       0.22002157
C        1.24439661      -0.79488250       0.06947595
C        2.60018069      -0.16907032       0.36792436
C       -0.14319198       1.13289743      -0.82008878
N       -0.24526933       1.93484528      -1.73156925
H       -3.42104557      -0.17311345      -0.09252255
H       -2.55878861       1.05740999       0.81654493
H       -2.49006403      -0.62716351       1.33706387
H       -1.23034106      -1.13397828      -0.93953823
H       -1.19784924       0.98935048      -1.60585802
H        0.00387035       0.59910420       1.22568101
H        1.05029125      -1.63719549       0.73953844
H        1.23386685      -1.19414186      -0.94836938
H        2.64032538       0.22363075       1.38639230
H        3.40156929      -0.90118158       0.25959109
H        2.80501133       0.65662232      -0.31670254
18
Frame=2 idx=006564 GeodesicLength=0.1614644898855968 rxn_smarts="[C:1]([C:2]([C:3]([C:4]([C:5]([H:16])([H:17])[H:18])([H:14])[H:15])([C:6]#[N:7])[H:13])([H:11])[H:12])([H:8])([H:9])[H:10]>>[C:1]([C@:2]1([H:11])[C@:3]([C:4]([C:5]([H:16])([H:17])[H:18])([H:14])[H:15])([H:13])/[C:6]1=[N:7]/[H:12])([H:8])([H:9])[H:10]"
C       -2.50215816       0.03526306       0.45548932
C       -1.29274657      -0.18077897      -0.42019011
C        0.09821696       0.18124883       0.22631987
C        1.24753923      -0.79452695       0.06260349
C        2.60025906      -0.16553288       0.36810647
C       -0.14269058       1.14079365      -0.80289243
N       -0.24118491       1.92513408      -1.72889716
H       -3.42235753      -0.16418589      -0.09610662
H       -2.55761458       1.06925309       0.80715927
H       -2.49865180      -0.61165310       1.33991558
H       -1.23476196      -1.14515516      -0.92031686
H       -1.20092652       0.96140950      -1.62436781
H        0.00547679       0.58364802       1.23552035
H        1.05759417      -1.64607245       0.72206136
H        1.23910616      -1.18107549      -0.96020620
H        2.63952927       0.21331464       1.39186386
H        3.40545290      -0.89179867       0.24906337
H        2.79991808       0.67071469      -0.30512576
18
Frame=3 idx=006564 GeodesicLength=0.24217078024728816 rxn_smarts="[C:1]([C:2]([C:3]([C:4]([C:5]([H:16])([H:17])[H:18])([H:14])[H:15])([C:6]#[N:7])[H:13])([H:11])[H:12])([H:8])([H:9])[H:10]>>[C:1]([C@:2]1([H:11])[C@:3]([C:4]([C:5]([H:16])([H:17])[H:18])([H:14])[H:15])([H:13])/[C:6]1=[N:7]/[H:12])([H:8])([H:9])[H:10]"
C       -2.50450790       0.04421999       0.45376089
C       -1.29201476      -0.18359554      -0.41596614
C        0.09641635       0.17414673       0.23240153
C        1.25055632      -0.79402716       0.05579422
C        2.60029695      -0.16209168       0.36828481
C       -0.14203628       1.14872608      -0.78579292
N       -0.23734595       1.91546396      -1.72578629
H       -3.42350844      -0.15540340      -0.09974637
H       -2.55624383       1.08084642       0.79779615
H       -2.50686147      -0.59633638       1.34246964
H       -1.23921254      -1.15608812      -0.90100370
H       -1.20421040       0.93341240      -1.64247759
H        0.00705843       0.56831033       1.24507539
H        1.06467468      -1.65449335       0.70470186
H        1.24409527      -1.16798724      -0.97175335
H        2.63878469       0.20315321       1.39702943
H        3.40914123      -0.88253037       0.23887957
H        2.79491767       0.68427413      -0.29366711
18
Frame=4 idx=006564 GeodesicLength=0.3227878269356799 rxn_smarts="[C:1]([C:2]([C:3]([C:4]([C:5]([H:16])([H:17])[H:18])([H:14])[H:15])([C:6]#[N:7])[H:13])([H:11])[H:12])([H:8])([H:9])[H:10]>>[C:1]([C@:2]1([H:11])[C@:3]([C:4]([C:5]([H:16])([H:17])[H:18])([H:14])[H:15])([H:13])/[C:6]1=[N:7]/[H:12])([H:8])([H:9])[H:10]"
C       -2.50659135       0.05302997       0.45189595
C       -1.29118919      -0.18624368      -0.41200596
C        0.09466635       0.16723316       0.23828224
C        1.25341243      -0.79337757       0.04907632
C        2.60025197      -0.15875546       0.36844861
C       -0.14119184       1.15675693      -0.76873806
N       -0.23379988       1.90584607      -1.72218626
H       -3.42441521      -0.14679057      -0.10344154
H       -2.55463219       1.09214168       0.78847521
H       -2.51462257      -0.58127511       1.34470834
H       -1.24365716      -1.16668147      -0.88165255
H       -1.20772736       0.90533525      -1.66029241
H        0.00861498       0.55307968       1.25435335
H        1.07148856      -1.66243928       0.68752415
H        1.24878551      -1.15489172      -0.98296880
H        2.63805048       0.19321811       1.40184906
H        3.41255658      -0.87342955       0.22909523
H        2.78999989       0.69724357      -0.28242292
18
Frame=5 idx=006564 GeodesicLength=0.4033684477720241 rxn_smarts="[C:1]([C:2]([C:3]([C:4]([C:5]([H:16])([H:17])[H:18])([H:14])[H:15])([C:6]#[N:7])[H:13])([H:11])[H:12])([H:8])([H:9])[H:10]>>[C:1]([C@:2]1([H:11])[C@:3]([C:4]([C:5]([H:16])([H:17])[H:18])([H:14])[H:15])([H:13])/[C:6]1=[N:7]/[H:12])([H:8])([H:9])[H:10]"
C       -2.50845247       0.06173356       0.44990565
C       -1.29029273      -0.18874172      -0.40830655
C        0.09298790       0.16049611       0.24395297
C        1.25616740      -0.79259301       0.04241690
C        2.60019015      -0.15553628       0.36864743
C       -0.14012233       1.16485430      -0.75174900
N       -0.23066758       1.89626589      -1.71819298
H       -3.42514881      -0.13829492      -0.10717717
H       -2.55281089       1.10321358       0.77918817
H       -2.52198850      -0.56641278       1.34666157
H       -1.24809954      -1.17696244      -0.86225109
H       -1.21168585       0.87713598      -1.67784839
H        0.01016710       0.53796733       1.26335827
H        1.07808192      -1.66997284       0.67044283
H        1.25328747      -1.14176402      -0.99392323
H        2.63734725       0.18340879       1.40643702
H        3.41580490      -0.86449483       0.21969839
H        2.78523461       0.70969730      -0.27126080
18
Frame=6 idx=006564 GeodesicLength=0.4839977157624311 rxn_smarts="[C:1]([C:2]([C:3]([C:4]([C:5]([H:16])([H:17])[H:18])([H:14])[H:15])([C:6]#[N:7])[H:13])([H:11])[H:12])([H:8])([H:9])[H:10]>>[C:1]([C@:2]1([H:11])[C@:3]([C:4]([C:5]([H:16])([H:17])[H:18])([H:14])[H:15])([H:13])/[C:6]1=[N:7]/[H:12])([H:8])([H:9])[H:10]"
C       -2.51006878       0.07031904       0.44778532
C       -1.28929346      -0.19103351      -0.40488104
C        0.09137864       0.15395982       0.24944683
C        1.25880556      -0.79166829       0.03583947
C        2.60010480      -0.15244477       0.36886688
C       -0.13879853       1.17311186      -0.73471901
N       -0.22800714       1.88671218      -1.71372906
H       -3.42567413      -0.12994472      -0.11096677
H       -2.55078287       1.11403920       0.76995015
H       -2.52892556      -0.55178919       1.34831215
H       -1.25251698      -1.18684639      -0.84285377
H       -1.21610808       0.84873874      -1.69530186
H        0.01171119       0.52295334       1.27212517
H        1.08443763      -1.67708059       0.65350548
H        1.25756415      -1.12861598      -1.00458619
H        2.63667675       0.17380097       1.41075519
H        3.41885546      -0.85579106       0.21072494
H        2.78064135       0.72157935      -0.26027389
18
Frame=7 idx=006564 GeodesicLength=0.5645756845709086 rxn_smarts="[C:1]([C:2]([C:3]([C:4]([C:5]([H:16])([H:17])[H:18])([H:14])[H:15])([C:6]#[N:7])[H:13])([H:11])[H:12])([H:8])([H:9])[H:10]>>[C:1]([C@:2]1([H:11])[C@:3]([C:4]([C:5]([H:16])([H:17])[H:18])([H:14])[H:15])([H:13])/[C:6]1=[N:7]/[H:12])([H:8])([H:9])[H:10]"
C       -2.51145296       0.07882799       0.44554701
C       -1.28819587      -0.19313976      -0.40171210
C        0.08984794       0.14760832       0.25476125
C        1.26135453      -0.79060127       0.02930315
C        2.60001392      -0.14947718       0.36914197
C       -0.13720525       1.18151660      -0.71764472
N       -0.22588498       1.87713197      -1.70886104
H       -3.42600809      -0.12170414      -0.11478997
H       -2.54855308       1.12468495       0.76071833
H       -2.53546489      -0.53731708       1.34971086
H       -1.25691483      -1.19635137      -0.82341741
H       -1.22106054       0.82002028      -1.71269349
H        0.01325880       0.50801069       1.28066360
H        1.09057292      -1.68381552       0.63660892
H        1.26168065      -1.11537733      -1.01503261
H        2.63602939       0.16426268       1.41490168
H        3.42175266      -0.84727900       0.20211260
H        2.77622968       0.73299917      -0.24931803
18
Frame=8 idx=006564 GeodesicLength=0.6451349799141534 rxn_smarts="[C:1]([C:2]([C:3]([C:4]([C:5]([H:16])([H:17])[H:18])([H:14])[H:15])([C:6]#[N:7])[H:13])([H:11])[H:12])([H:8])([H:9])[H:10]>>[C:1]([C@:2]1([H:11])[C@:3]([C:4]([C:5]([H:16])([H:17])[H:18])([H:14])[H:15])([H:13])/[C:6]1=[N:7]/[H:12])([H:8])([H:9])[H:10]"
C       -2.51260871       0.08730822       0.44319452
C       -1.28699424      -0.19506239      -0.39877771
C        0.08840145       0.14143412       0.25991083
C        1.26383578      -0.78937925       0.02277218
C        2.59992647      -0.14663092       0.36950004
C       -0.13533859       1.19009016      -0.70047100
N       -0.22438431       1.86743857      -1.70360612
H       -3.42615173      -0.11352957      -0.11864577
H       -2.54611975       1.13521788       0.75143946
H       -2.54163076      -0.52290301       1.35089618
H       -1.26129690      -1.20548834      -0.80387524
H       -1.22657369       0.79079264      -1.73013599
H        0.01482094       0.49309420       1.28899537
H        1.09651558      -1.69021854       0.61964645
H        1.26567840      -1.10195792      -1.02532286
H        2.63540982       0.15464775       1.41895355
H        3.42452580      -0.83891632       0.19376765
H        2.77198443       0.74406270      -0.23824154
18
Frame=9 idx=006564 GeodesicLength=0.7257004852852892 rxn_smarts="[C:1]([C:2]([C:3]([C:4]([C:5]([H:16])([H:17])[H:18])([H:14])[H:15])([C:6]#[N:7])[H:13])([H:11])[H:12])([H:8])([H:9])[H:10]>>[C:1]([C@:2]1([H:11])[C@:3]([C:4]([C:5]([H:16])([H:17])[H:18])([H:14])[H:15])([H:13])/[C:6]1=[N:7]/[H:12])([H:8])([H:9])[H:10]"
C       -2.51353657       0.09580561       0.44073173
C       -1.28568425      -0.19680547      -0.39606086
C        0.08704576       0.13543361       0.26490149
C        1.26626872      -0.78798766       0.01620919
C        2.59985067      -0.14390633       0.36997185
C       -0.13318950       1.19885039      -0.68316239
N       -0.22359857       1.85755669      -1.69797995
H       -3.42610413      -0.10538578      -0.12252967
H       -2.54347536       1.14570250       0.74206168
H       -2.54743803      -0.50845304       1.35190791
H       -1.26566877      -1.21426452      -0.78416581
H       -1.23268173       0.76086366      -1.74772308
H        0.01640965       0.47816870       1.29713452
H        1.10228383      -1.69632414       0.60251102
H        1.26959930      -1.08826818      -1.03551700
H        2.63482226       0.14480434       1.42298732
H        3.42720249      -0.83065777       0.18560602
H        2.76789423       0.75486739      -0.22688398
18
Frame=10 idx=006564 GeodesicLength=0.8062658083158395 rxn_smarts="[C:1]([C:2]([C:3]([C:4]([C:5]([H:16])([H:17])[H:18])([H:14])[H:15])([C:6]#[N:7])[H:13])([H:11])[H:12])([H:8])([H:9])[H:10]>>[C:1]([C@:2]1([H:11])[C@:3]([C:4]([C:5]([H:16])([H:17])[H:18])([H:14])[H:15])([H:13])/[C:6]1=[N:7]/[H:12])([H:8])([H:9])[H:10]"
C       -2.51422110       0.10429911       0.43815664
C       -1.28424935      -0.19832838      -0.39359719
C        0.08578613       0.12962929       0.26973037
C        1.26864951      -0.78642448       0.00963468
C        2.59979305      -0.14131774       0.37055649
C       -0.13070561       1.20783862      -0.66569019
N       -0.22358020       1.84749839      -1.69194479
H       -3.42585296      -0.09728282      -0.12644039
H       -2.54060995       1.15610206       0.73263500
H       -2.55285438      -0.49404465       1.35270844
H       -1.27000316      -1.22260286      -0.76437425
H       -1.23950521       0.73024092      -1.76547335
H        0.01802033       0.46325064       1.30507478
H        1.10785561      -1.70210604       0.58525329
H        1.27344485      -1.07433488      -1.04558371
H        2.63424526       0.13483980       1.42696787
H        3.42977187      -0.82257362       0.17774279
H        2.76401532       0.76531664      -0.21535648
18
Frame=11 idx=006564 GeodesicLength=0.8868468898058539 rxn_smarts="[C:1]([C:2]([C:3]([C:4]([C:5]([H:16])([H:17])[H:18])([H:14])[H:15])([C:6]#[N:7])[H:13])([H:11])[H:12])([H:8])([H:9])[H:10]>>[C:1]([C@:2]1([H:11])[C@:3]([C:4]([C:5]([H:16])([H:17])[H:18])([H:14])[H:15])([H:13])/[C:6]1=[N:7]/[H:12])([H:8])([H:9])[H:10]"
C       -2.51465956       0.11283092       0.43547428
C       -1.28268709      -0.19963459      -0.39137812
C        0.08462944       0.12402453       0.27439319
C        1.27099722      -0.78467266       0.00300929
C        2.59976450      -0.13887016       0.37129017
C       -0.12788023       1.21707613      -0.64803213
N       -0.22443261       1.83719758      -1.68550986
H       -3.42539939      -0.08919940      -0.13036276
H       -2.53751971       1.16648140       0.72309669
H       -2.55787614      -0.47958120       1.35334372
H       -1.27430604      -1.23050925      -0.74445530
H       -1.24709333       0.69872958      -1.78345740
H        0.01966681       0.44831748       1.31281749
H        1.11324491      -1.70759516       0.56775934
H        1.27725964      -1.06006546      -1.05558174
H        2.63368122       0.12460435       1.43097024
H        3.43226171      -0.81463017       0.17011639
H        2.76034864       0.77549608      -0.20349349
18
Frame=12 idx=006564 GeodesicLength=0.967452172344448 rxn_smarts="[C:1]([C:2]([C:3]([C:4]([C:5]([H:16])([H:17])[H:18])([H:14])[H:15])([C:6]#[N:7])[H:13])([H:11])[H:12])([H:8])([H:9])[H:10]>>[C:1]([C@:2]1([H:11])[C@:3]([C:4]([C:5]([H:16])([H:17])[H:18])([H:14])[H:15])([H:13])/[C:6]1=[N:7]/[H:12])([H:8])([H:9])[H:10]"
C       -2.51484718       0.12140883       0.43268378
C       -1.28098916      -0.20070653      -0.38942120
C        0.08358074       0.11863328       0.27888571
C        1.27331966      -0.78272127      -0.00367521
C        2.59977511      -0.13657220       0.37218605
C       -0.12467971       1.22659270      -0.63016290
N       -0.22620875       1.82662342      -1.67865005
H       -3.42474318      -0.08113459      -0.13428945
H       -2.53420324       1.17685237       0.71343585
H       -2.56249157      -0.46505293       1.35381663
H       -1.27856584      -1.23794949      -0.72443373
H       -1.25553882       0.66624020      -1.80170007
H        0.02134988       0.43336719       1.32035926
H        1.11844723      -1.71278674       0.55000303
H        1.28106665      -1.04543094      -1.06552066
H        2.63312329       0.11408269       1.43500737
H        3.43468267      -0.80684388       0.16274886
H        2.75692223       0.78539790      -0.19127329
18
Frame=13 idx=006564 GeodesicLength=1.048075776009924 rxn_smarts="[C:1]([C:2]([C:3]([C:4]([C:5]([H:16])([H:17])[H:18])([H:14])[H:15])([C:6]#[N:7])[H:13])([H:11])[H:12])([H:8])([H:9])[H:10]>>[C:1]([C@:2]1([H:11])[C@:3]([C:4]([C:5]([H:16])([H:17])[H:18])([H:14])[H:15])([H:13])/[C:6]1=[N:7]/[H:12])([H:8])([H:9])[H:10]"
C       -2.51477040       0.13004147       0.42978265
C       -1.27914601      -0.20152776      -0.38774525
C        0.08264533       0.11347100       0.28319671
C        1.27562376      -0.78055633      -0.01042806
C        2.59982964      -0.13443476       0.37326185
C       -0.12107705       1.23641209      -0.61206839
N       -0.22896957       1.81574348      -1.67133786
H       -3.42387654      -0.07308516      -0.13820990
H       -2.53065038       1.18722576       0.70363410
H       -2.56667273      -0.45044622       1.35412861
H       -1.28276702      -1.24488897      -0.70433391
H       -1.26494666       0.63267966      -1.82021237
H        0.02307435       0.41840137       1.32768409
H        1.12345992      -1.71767137       0.53195337
H        1.28488917      -1.03039464      -1.07540665
H        2.63255866       0.10324572       1.43909471
H        3.43704004      -0.79923010       0.15566597
H        2.75375548       0.79501474      -0.17865969
18
Frame=14 idx=006564 GeodesicLength=1.1287582441587396 rxn_smarts="[C:1]([C:2]([C:3]([C:4]([C:5]([H:16])([H:17])[H:18])([H:14])[H:15])([C:6]#[N:7])[H:13])([H:11])[H:12])([H:8])([H:9])[H:10]>>[C:1]([C@:2]1([H:11])[C@:3]([C:4]([C:5]([H:16])([H:17])[H:18])([H:14])[H:15])([H:13])/[C:6]1=[N:7]/[H:12])([H:8])([H:9])[H:10]"
C       -2.51442715       0.13876193       0.42676878
C       -1.27715332      -0.20210480      -0.38635092
C        0.08182746       0.10854787       0.28732048
C        1.27792215      -0.77815646      -0.01728061
C        2.59993396      -0.13246087       0.37454307
C       -0.11705282       1.24654901      -0.59374039
N       -0.23277955       1.80451188      -1.66354458
H       -3.42279875      -0.06502965      -0.14212133
H       -2.52684980       1.19765069       0.69363155
H       -2.57042417      -0.43568238       1.35430978
H       -1.28691131      -1.25133172      -0.68410758
H       -1.27536757       0.59784476      -1.83902291
H        0.02484513       0.40341272       1.33478826
H        1.12828541      -1.72225952       0.51351753
H        1.28876450      -1.01487426      -1.08528226
H        2.63198860       0.09195581       1.44328517
H        3.43935249      -0.79174863       0.14879723
H        2.75084475       0.80441363      -0.16551126
18
Frame=15 idx=006564 GeodesicLength=1.209478112537498 rxn_smarts="[C:1]([C:2]([C:3]([C:4]([C:5]([H:16])([H:17])[H:18])([H:14])[H:15])([C:6]#[N:7])[H:13])([H:11])[H:12])([H:8])([H:9])[H:10]>>[C:1]([C@:2]1([H:11])[C@:3]([C:4]([C:5]([H:16])([H:17])[H:18])([H:14])[H:15])([H:13])/[C:6]1=[N:7]/[H:12])([H:8])([H:9])[H:10]"
C       -2.51379842       0.14754631       0.42364195
C       -1.27500082      -0.20240873      -0.38528462
C        0.08112956       0.10389417       0.29123249
C        1.28021304      -0.77551458      -0.02421856
C        2.60009239      -0.13066736       0.37603742
C       -0.11256987       1.25703137      -0.57518958
N       -0.23764016       1.79294197      -1.65522898
H       -3.42150489      -0.05699605      -0.14599932
H       -2.52279332       1.20809630       0.68344791
H       -2.57369249      -0.42082281       1.35433816
H       -1.29096694      -1.25721685      -0.66385869
H       -1.28696873       0.56174243      -1.85808622
H        0.02665989       0.38844073       1.34163541
H        1.13290158      -1.72651649       0.49473619
H        1.29270680      -0.99888891      -1.09511566
H        2.63138565       0.08028404       1.44755686
H        3.44161387      -0.78446476       0.14224686
H        2.74823285       0.81351921      -0.15189162
18
Frame=16 idx=006564 GeodesicLength=1.290270434473526 rxn_smarts="[C:1]([C:2]([C:3]([C:4]([C:5]([H:16])([H:17])[H:18])([H:14])[H:15])([C:6]#[N:7])[H:13])([H:11])[H:12])([H:8])([H:9])[H:10]>>[C:1]([C@:2]1([H:11])[C@:3]([C:4]([C:5]([H:16])([H:17])[H:18])([H:14])[H:15])([H:13])/[C:6]1=[N:7]/[H:12])([H:8])([H:9])[H:10]"
C       -2.51288426       0.15641815       0.42039386
C       -1.27268633      -0.20245293      -0.38455256
C        0.08055171       0.09951938       0.29492495
C        1.28250553      -0.77261079      -0.03126559
C        2.60030723      -0.12905604       0.37776015
C       -0.10761426       1.26786227      -0.55641911
N       -0.24357609       1.78102753      -1.64633251
H       -3.41999606      -0.04896785      -0.14984846
H       -2.51847059       1.21859803       0.67302366
H       -2.57648254      -0.40580022       1.35423452
H       -1.29493481      -1.26255101      -0.64355623
H       -1.29979987       0.52418666      -1.87738448
H        0.02851927       0.37348544       1.34821497
H        1.13731288      -1.73044193       0.47553810
H        1.29674475      -0.98237591      -1.10493309
H        2.63075049       0.06812901       1.45193855
H        3.44383745      -0.77734487       0.13596082
H        2.74591550       0.82237508      -0.13769753
