11
Frame=0 idx=001379 GeodesicLength=0.0 rxn_smarts="[N:1](=[C:2](/[O:3][C:4]([C:5](=[O:6])[H:11])([H:9])[H:10])[H:8])\[H:7]>>[N:1]1([H:7])[C@@:2]([O:6][C:5](=[C:4]([H:9])[H:10])[H:11])([H:8])[O:3]1"
N        2.01236529       0.42557576       0.73906050
C        0.96541612       0.48893677      -0.09191940
O        0.77445448      -0.83282418      -0.09191109
C       -1.24475309      -1.00930997       0.14212604
C       -1.28733621       0.34796695      -0.08776301
O       -0.41653907       1.13293225       0.47270365
H        2.85287212       0.74319195       0.25064962
H        1.02272780       0.99896268      -1.05646100
H       -0.93797933      -1.40202947       1.09807624
H       -1.82045629      -1.66382397      -0.50223025
H       -1.92077180       0.77042121      -0.87233127
11
Frame=1 idx=001379 GeodesicLength=0.08334039269936433 rxn_smarts="[N:1](=[C:2](/[O:3][C:4]([C:5](=[O:6])[H:11])([H:9])[H:10])[H:8])\[H:7]>>[N:1]1([H:7])[C@@:2]([O:6][C:5](=[C:4]([H:9])[H:10])[H:11])([H:8])[O:3]1"
N        1.98391894       0.39393568       0.74762354
C        0.96556398       0.49830364      -0.11327119
O        0.77339501      -0.82382273      -0.15634691
C       -1.22827408      -1.00835133       0.15132565
C       -1.30137747       0.34949478      -0.08147042
O       -0.43747191       1.15154326       0.46253455
H        2.84290461       0.71591896       0.29626160
H        1.05240071       1.02808129      -1.06435016
H       -0.89440254      -1.39230378       1.10214226
H       -1.83206510      -1.66795418      -0.46132740
H       -1.92459215       0.75515441      -0.88312153
11
Frame=2 idx=001379 GeodesicLength=0.16665059532141663 rxn_smarts="[N:1](=[C:2](/[O:3][C:4]([C:5](=[O:6])[H:11])([H:9])[H:10])[H:8])\[H:7]>>[N:1]1([H:7])[C@@:2]([O:6][C:5](=[C:4]([H:9])[H:10])[H:11])([H:8])[O:3]1"
N        1.95464934       0.36328747       0.75425742
C        0.96574258       0.50798263      -0.13384797
O        0.77162538      -0.81326984      -0.21642260
C       -1.21093259      -1.00691750       0.15925986
C       -1.31544958       0.35109836      -0.07463944
O       -0.45940160       1.17050378       0.45302475
H        2.83102333       0.68617503       0.33913169
H        1.08278283       1.05479876      -1.07145592
H       -0.85208476      -1.38192870       1.10493564
H       -1.83918770      -1.67202073      -0.42203525
H       -1.92876724       0.74029074      -0.89220818
11
Frame=3 idx=001379 GeodesicLength=0.24994553760397858 rxn_smarts="[N:1](=[C:2](/[O:3][C:4]([C:5](=[O:6])[H:11])([H:9])[H:10])[H:8])\[H:7]>>[N:1]1([H:7])[C@@:2]([O:6][C:5](=[C:4]([H:9])[H:10])[H:11])([H:8])[O:3]1"
N        1.92491826       0.33406016       0.75909952
C        0.96606746       0.51781806      -0.15362179
O        0.76944186      -0.80166804      -0.27193568
C       -1.19298751      -1.00504768       0.16591390
C       -1.32943104       0.35269513      -0.06737692
O       -0.48224178       1.18950369       0.44442392
H        2.81749524       0.65474372       0.37906674
H        1.11380715       1.07882074      -1.07794691
H       -0.81145255      -1.37101329       1.10664607
H       -1.84234851      -1.67597440      -0.38469119
H       -1.93326859       0.72606193      -0.89957766
11
Frame=4 idx=001379 GeodesicLength=0.3332494398378832 rxn_smarts="[N:1](=[C:2](/[O:3][C:4]([C:5](=[O:6])[H:11])([H:9])[H:10])[H:8])\[H:7]>>[N:1]1([H:7])[C@@:2]([O:6][C:5](=[C:4]([H:9])[H:10])[H:11])([H:8])[O:3]1"
N        1.89503284       0.30653201       0.76231156
C        0.96662272       0.52768828      -0.17261153
O        0.76708444      -0.78945954      -0.32293365
C       -1.17467830      -1.00278818       0.17133291
C       -1.34324074       0.35422340      -0.05976614
O       -0.50592263       1.20829515       0.43696135
H        2.80257727       0.62233320       0.41602216
H        1.14541448       1.10000713      -1.08398600
H       -0.77276860      -1.35969311       1.10747005
H       -1.84210902      -1.67977331      -0.34947221
H       -1.93801246       0.71263497      -0.90532849
11
Frame=5 idx=001379 GeodesicLength=0.41656621889348666 rxn_smarts="[N:1](=[C:2](/[O:3][C:4]([C:5](=[O:6])[H:11])([H:9])[H:10])[H:8])\[H:7]>>[N:1]1([H:7])[C@@:2]([O:6][C:5](=[C:4]([H:9])[H:10])[H:11])([H:8])[O:3]1"
N        1.86523346       0.28086643       0.76406613
C        0.96746594       0.53750801      -0.19086943
O        0.76473537      -0.77698552      -0.36964276
C       -1.15620696      -1.00017587       0.17559541
C       -1.35683337       0.35562894      -0.05188316
O       -0.53039704       1.22668490       0.43081853
H        2.78650841       0.58950940       0.45007279
H        1.17756944       1.11831994      -1.08970542
H       -0.73614541      -1.34807654       1.10757567
H       -1.83900158      -1.68338660      -0.31642597
H       -1.94292826       0.70010691      -0.90960180
11
Frame=6 idx=001379 GeodesicLength=0.49989432024733227 rxn_smarts="[N:1](=[C:2](/[O:3][C:4]([C:5](=[O:6])[H:11])([H:9])[H:10])[H:8])\[H:7]>>[N:1]1([H:7])[C@@:2]([O:6][C:5](=[C:4]([H:9])[H:10])[H:11])([H:8])[O:3]1"
N        1.83569338       0.25713383       0.76452188
C        0.96863002       0.54722251      -0.20847125
O        0.76251995      -0.76449692      -0.41238600
C       -1.13773295      -0.99724199       0.17879984
C       -1.37019165       0.35686963      -0.04378591
O       -0.55563977       1.24452920       0.42614270
H        2.76949066       0.55671420       0.48136278
H        1.21025143       1.13379677      -1.09520812
H       -0.70159054      -1.33626041       1.10710313
H       -1.83350914      -1.68678682      -0.28550464
H       -1.94792140       0.68852000      -0.91257441
11
Frame=7 idx=001379 GeodesicLength=0.5832407249232596 rxn_smarts="[N:1](=[C:2](/[O:3][C:4]([C:5](=[O:6])[H:11])([H:9])[H:10])[H:8])\[H:7]>>[N:1]1([H:7])[C@@:2]([O:6][C:5](=[C:4]([H:9])[H:10])[H:11])([H:8])[O:3]1"
N        1.80653433       0.23534427       0.76382725
C        0.97013369       0.55679856      -0.22550896
O        0.76052293      -0.75217832      -0.45152640
C       -1.11937791      -0.99401257       0.18105038
C       -1.38331854       0.35791701      -0.03552130
O       -0.58164406       1.26173331       0.42305267
H        2.75169329       0.52428423       0.51007978
H        1.24345468       1.14650339      -1.10058400
H       -0.66904191      -1.32432320       1.10616868
H       -1.82604083      -1.68996102      -0.25661604
H       -1.95291569       0.67789434      -0.91442206
11
Frame=8 idx=001379 GeodesicLength=0.666615707326106 rxn_smarts="[N:1](=[C:2](/[O:3][C:4]([C:5](=[O:6])[H:11])([H:9])[H:10])[H:8])\[H:7]>>[N:1]1([H:7])[C@@:2]([O:6][C:5](=[C:4]([H:9])[H:10])[H:11])([H:8])[O:3]1"
N        1.77782937       0.21547852       0.76210763
C        0.97198881       0.56622651      -0.24208162
O        0.75879612      -0.74015211      -0.48743045
C       -1.10123446      -0.99051123       0.18245140
C       -1.39623343       0.35874797      -0.02712394
O       -0.60842160       1.27823437       0.42164244
H        2.73325818       0.49245717       0.53641676
H        1.27719348       1.15653395      -1.10589615
H       -0.63840560      -1.31232973       1.10486383
H       -1.81694536      -1.69290676      -0.22963416
H       -1.95782551       0.66822135      -0.91531575
11
Frame=9 idx=001379 GeodesicLength=0.7499772357805379 rxn_smarts="[N:1](=[C:2](/[O:3][C:4]([C:5](=[O:6])[H:11])([H:9])[H:10])[H:8])\[H:7]>>[N:1]1([H:7])[C@@:2]([O:6][C:5](=[C:4]([H:9])[H:10])[H:11])([H:8])[O:3]1"
N        1.74964133       0.19744861       0.75944728
C        0.97419226       0.57546071      -0.25829837
O        0.75735780      -0.72850974      -0.52044901
C       -1.08335723      -0.98673709       0.18308536
C       -1.40894059       0.35934931      -0.01863104
O       -0.63596749       1.29395763       0.42198923
H        2.71426457       0.46149446       0.56061709
H        1.31143643       1.16392966      -1.11117935
H       -0.60953644      -1.30030746       1.10323833
H       -1.80650816      -1.69558797      -0.20441919
H       -1.96258248       0.65950190      -0.91540032
11
Frame=10 idx=001379 GeodesicLength=0.8333714326798001 rxn_smarts="[N:1](=[C:2](/[O:3][C:4]([C:5](=[O:6])[H:11])([H:9])[H:10])[H:8])\[H:7]>>[N:1]1([H:7])[C@@:2]([O:6][C:5](=[C:4]([H:9])[H:10])[H:11])([H:8])[O:3]1"
N        1.72197350       0.18124945       0.75596110
C        0.97675317       0.58453367      -0.27425933
O        0.75623236      -0.71731110      -0.55088485
C       -1.06579887      -0.98271471       0.18305450
C       -1.42148075       0.35971175      -0.01005947
O       -0.66433105       1.30890090       0.42416228
H        2.69482320       0.43145053       0.58282674
H        1.34621802       1.16879948      -1.11648819
H       -0.58233279      -1.28830225       1.10137245
H       -1.79493778      -1.69803934      -0.18086992
H       -1.96711901       0.65172161      -0.91481532
11
Frame=11 idx=001379 GeodesicLength=0.916784442491281 rxn_smarts="[N:1](=[C:2](/[O:3][C:4]([C:5](=[O:6])[H:11])([H:9])[H:10])[H:8])\[H:7]>>[N:1]1([H:7])[C@@:2]([O:6][C:5](=[C:4]([H:9])[H:10])[H:11])([H:8])[O:3]1"
N        1.69483245       0.16682101       0.75171991
C        0.97967199       0.59343449      -0.29006915
O        0.75542371      -0.70659611      -0.57901877
C       -1.04858038      -0.97844313       0.18243225
C       -1.43387269       0.35982859      -0.00143526
O       -0.69354137       1.32302779       0.42821440
H        2.67498916       0.40242869       0.60323370
H        1.38151964       1.17119831      -1.12183814
H       -0.55665561      -1.27632243       1.09930258
H       -1.78241071      -1.70025246      -0.15886628
H       -1.97137620       0.64487523      -0.91367525
11
Frame=12 idx=001379 GeodesicLength=1.0002182224035832 rxn_smarts="[N:1](=[C:2](/[O:3][C:4]([C:5](=[O:6])[H:11])([H:9])[H:10])[H:8])\[H:7]>>[N:1]1([H:7])[C@@:2]([O:6][C:5](=[C:4]([H:9])[H:10])[H:11])([H:8])[O:3]1"
N        1.66821382       0.15410783       0.74678180
C        0.98295850       0.60215315      -0.30583357
O        0.75493448      -0.69639994      -0.60510192
C       -1.03171720      -0.97392345       0.18128634
C       -1.44613779       0.35969676       0.00721992
O       -0.72363494       1.33630956       0.43419373
H        2.65480896       0.37451071       0.62201196
H        1.41732438       1.17118119      -1.12724069
H       -0.53237968      -1.26437333       1.09706092
H       -1.76907320      -1.70222794      -0.13829992
H       -1.97529734       0.63896546      -0.91207858
11
Frame=13 idx=001379 GeodesicLength=1.0836824874575783 rxn_smarts="[N:1](=[C:2](/[O:3][C:4]([C:5](=[O:6])[H:11])([H:9])[H:10])[H:8])\[H:7]>>[N:1]1([H:7])[C@@:2]([O:6][C:5](=[C:4]([H:9])[H:10])[H:11])([H:8])[O:3]1"
N        1.64210886       0.14305816       0.74119714
C        0.98662978       0.61067498      -0.32165797
O        0.75477127      -0.68675518      -0.62935394
C       -1.01521676      -0.96915440       0.17967761
C       -1.45829844       0.35931640       0.01588577
O       -0.75465605       1.34871568       0.44214392
H        2.63432171       0.34776101       0.63932555
H        1.45360308       1.16879697      -1.13270721
H       -0.50938704      -1.25245540       1.09467707
H       -1.75504253      -1.70396578      -0.11907766
H       -1.97883387       0.63400755      -0.91011029
11
Frame=14 idx=001379 GeodesicLength=1.1672934164945759 rxn_smarts="[N:1](=[C:2](/[O:3][C:4]([C:5](=[O:6])[H:11])([H:9])[H:10])[H:8])\[H:7]>>[N:1]1([H:7])[C@@:2]([O:6][C:5](=[C:4]([H:9])[H:10])[H:11])([H:8])[O:3]1"
N        1.61654051       0.13360713       0.73503478
C        0.99072222       0.61897465      -0.33766010
O        0.75498571      -0.67770197      -0.65199676
C       -0.99908194      -0.96413168       0.17766293
C       -1.47042518       0.35870292       0.02454610
O       -0.78671429       1.36022122       0.45212935
H        2.61361363       0.32222275       0.65536292
H        1.49032972       1.16408935      -1.13829091
H       -0.48755045      -1.24057353       1.09221238
H       -1.74041340      -1.70546263      -0.10112741
H       -1.98200652       0.63005177      -0.90787328
11
Frame=15 idx=001379 GeodesicLength=1.2506144567734576 rxn_smarts="[N:1](=[C:2](/[O:3][C:4]([C:5](=[O:6])[H:11])([H:9])[H:10])[H:8])\[H:7]>>[N:1]1([H:7])[C@@:2]([O:6][C:5](=[C:4]([H:9])[H:10])[H:11])([H:8])[O:3]1"
N        1.59134319       0.12577922       0.72821492
C        0.99520085       0.62702911      -0.35387818
O        0.75540623      -0.66925432      -0.67310827
C       -0.98328923      -0.95884964       0.17525855
C       -1.48231368       0.35781137       0.03316531
O       -0.81959391       1.37074739       0.46411232
H        2.59245180       0.29799428       0.67013830
H        1.52735478       1.15709745      -1.14379571
H       -0.46681384      -1.22864988       1.08953252
H       -1.72528046      -1.70672497      -0.08431540
H       -1.98446574       0.62702000      -0.90532436
11
Frame=16 idx=001379 GeodesicLength=1.334114620558098 rxn_smarts="[N:1](=[C:2](/[O:3][C:4]([C:5](=[O:6])[H:11])([H:9])[H:10])[H:8])\[H:7]>>[N:1]1([H:7])[C@@:2]([O:6][C:5](=[C:4]([H:9])[H:10])[H:11])([H:8])[O:3]1"
N        1.56660196       0.11946838       0.72086742
C        1.00012348       0.63474666      -0.37044353
O        0.75623912      -0.66152383      -0.69284705
C       -0.96779611      -0.95327295       0.17252105
C       -1.49413452       0.35672324       0.04173647
O       -0.85362128       1.38027803       0.47818350
H        2.57101193       0.27507841       0.68388766
H        1.56457209       1.14779015      -1.14941876
H       -0.44702207      -1.21671173       1.08675478
H       -1.70958357      -1.70767972      -0.06868700
H       -1.98639102       0.62510335      -0.90255454
