14
Frame=0 idx=002000 GeodesicLength=0.0 rxn_smarts="[C:1]([C:2]1([H:10])[C:3]([H:11])([H:12])[C:4](=[O:5])[C:6]1([H:13])[H:14])([H:7])([H:8])[H:9]>>[C:1]1([H:8])([H:9])[C:2]2([H:10])[C:3]([H:11])([H:12])[C:4]1([O:5][H:7])[C:6]2([H:13])[H:14]"
C        1.19244815       0.02543024      -0.42691634
C        0.37933101       0.39227126       0.81722714
C       -0.42984674      -0.92274044       0.81195192
C       -0.64520975      -0.34632724      -0.59421058
O       -0.94738474      -0.86500376      -1.75610161
C       -0.75815028       1.05852015       0.01347635
H        0.27934302      -0.56595574      -1.52010884
H        1.61088036       0.86872620      -0.97752973
H        1.88832898      -0.80504858      -0.30311366
H        0.84317201       0.82447567       1.69915403
H       -1.33697505      -0.92823936       1.41793510
H        0.12028371      -1.85918299       0.89025513
H       -1.69277127       1.21972031       0.55262151
H       -0.50344937       1.90335428      -0.62464047
14
Frame=1 idx=002000 GeodesicLength=0.09669046995964956 rxn_smarts="[C:1]([C:2]1([H:10])[C:3]([H:11])([H:12])[C:4](=[O:5])[C:6]1([H:13])[H:14])([H:7])([H:8])[H:9]>>[C:1]1([H:8])([H:9])[C:2]2([H:10])[C:3]([H:11])([H:12])[C:4]1([O:5][H:7])[C:6]2([H:13])[H:14]"
C        1.19570610       0.02495434      -0.42861124
C        0.37949561       0.39095814       0.81413194
C       -0.43149369      -0.92348012       0.81329091
C       -0.65871658      -0.34856021      -0.59074153
O       -0.96157243      -0.86591573      -1.75146343
C       -0.75998869       1.05851430       0.01360044
H        0.29008706      -0.56627289      -1.53673001
H        1.62079975       0.87147372      -0.96929024
H        1.89726727      -0.79944930      -0.29572075
H        0.83759198       0.82373003       1.69848727
H       -1.33248640      -0.93534463       1.42800301
H        0.11877668      -1.86073514       0.88273128
H       -1.69138576       1.23239209       0.55407829
H       -0.50408092       1.89773541      -0.63176595
14
Frame=2 idx=002000 GeodesicLength=0.19330646880067642 rxn_smarts="[C:1]([C:2]1([H:10])[C:3]([H:11])([H:12])[C:4](=[O:5])[C:6]1([H:13])[H:14])([H:7])([H:8])[H:9]>>[C:1]1([H:8])([H:9])[C:2]2([H:10])[C:3]([H:11])([H:12])[C:4]1([O:5][H:7])[C:6]2([H:13])[H:14]"
C        1.19887410       0.02441393      -0.43038772
C        0.37959183       0.38959613       0.81096259
C       -0.43319761      -0.92425111       0.81469939
C       -0.67272053      -0.35078194      -0.58697898
O       -0.97558345      -0.86680202      -1.74672812
C       -0.76189617       1.05852783       0.01374019
H        0.30133912      -0.56653065      -1.55388915
H        1.63070859       0.87413949      -0.96084142
H        1.90613155      -0.79370348      -0.28822726
H        0.83201845       0.82293302       1.69767454
H       -1.32778346      -0.94255899       1.43828458
H        0.11716056      -1.86227884       0.87511724
H       -1.68984474       1.24532372       0.55553904
H       -0.50479825       1.89197291      -0.63896491
14
Frame=3 idx=002000 GeodesicLength=0.28986609141722075 rxn_smarts="[C:1]([C:2]1([H:10])[C:3]([H:11])([H:12])[C:4](=[O:5])[C:6]1([H:13])[H:14])([H:7])([H:8])[H:9]>>[C:1]1([H:8])([H:9])[C:2]2([H:10])[C:3]([H:11])([H:12])[C:4]1([O:5][H:7])[C:6]2([H:13])[H:14]"
C        1.20194215       0.02380370      -0.43225082
C        0.37961395       0.38818283       0.80771678
C       -0.43496398      -0.92505348       0.81618608
C       -0.68725466      -0.35298982      -0.58289605
O       -0.98938575      -0.86765824      -1.74189252
C       -0.76387905       1.05856159       0.01389950
H        0.31316079      -0.56671547      -1.57162306
H        1.64059170       0.87671056      -0.95218404
H        1.91490224      -0.78781333      -0.28064199
H        0.82645438       0.82208418       1.69671048
H       -1.32285470      -0.94988385       1.44879464
H        0.11542420      -1.86381343       0.86741285
H       -1.68814009       1.25852638       0.55700768
H       -0.50561117       1.88605839      -0.64623952
14
Frame=4 idx=002000 GeodesicLength=0.38640662931281455 rxn_smarts="[C:1]([C:2]1([H:10])[C:3]([H:11])([H:12])[C:4](=[O:5])[C:6]1([H:13])[H:14])([H:7])([H:8])[H:9]>>[C:1]1([H:8])([H:9])[C:2]2([H:10])[C:3]([H:11])([H:12])[C:4]1([O:5][H:7])[C:6]2([H:13])[H:14]"
C        1.20489750       0.02311763      -0.43420726
C        0.37955523       0.38671524       0.80439161
C       -0.43679920      -0.92588770       0.81776052
C       -0.70235900      -0.35518120      -0.57846081
O       -1.00293958      -0.86847755      -1.73695122
C       -0.76594511       1.05861632       0.01408346
H        0.32562661      -0.56681254      -1.58997621
H        1.65043108       0.87917230      -0.94332032
H        1.92355760      -0.78178229      -0.27297536
H        0.82090340       0.82118243       1.69558848
H       -1.31768861      -0.95731917       1.45955169
H        0.11355478      -1.86533848       0.85961798
H       -1.68626249       1.27201323       0.55848927
H       -0.50653221       1.87998178      -0.65359184
14
Frame=5 idx=002000 GeodesicLength=0.48293776113209136 rxn_smarts="[C:1]([C:2]1([H:10])[C:3]([H:11])([H:12])[C:4](=[O:5])[C:6]1([H:13])[H:14])([H:7])([H:8])[H:9]>>[C:1]1([H:8])([H:9])[C:2]2([H:10])[C:3]([H:11])([H:12])[C:4]1([O:5][H:7])[C:6]2([H:13])[H:14]"
C        1.20772850       0.02235012      -0.43626317
C        0.37940835       0.38519047       0.80098401
C       -0.43871042      -0.92675376       0.81943134
C       -0.71807152      -0.35735315      -0.57364221
O       -1.01620770      -0.86925235      -1.73189735
C       -0.76810227       1.05869283       0.01429653
H        0.33881290      -0.56680862      -1.60898842
H        1.66020877       0.88151184      -0.93425563
H        1.93207656      -0.77561585      -0.26523812
H        0.81536787       0.82022649       1.69430237
H       -1.31227263      -0.96486548       1.47057244
H        0.11153873      -1.86685320       0.85173205
H       -1.68420240       1.28579723       0.55998953
H       -0.50757473       1.87373341      -0.66102335
14
Frame=6 idx=002000 GeodesicLength=0.5795012577173501 rxn_smarts="[C:1]([C:2]1([H:10])[C:3]([H:11])([H:12])[C:4](=[O:5])[C:6]1([H:13])[H:14])([H:7])([H:8])[H:9]>>[C:1]1([H:8])([H:9])[C:2]2([H:10])[C:3]([H:11])([H:12])[C:4]1([O:5][H:7])[C:6]2([H:13])[H:14]"
C        1.21042132       0.02149401      -0.43842517
C        0.37916466       0.38360466       0.79749016
C       -0.44070623      -0.92765193       0.82120925
C       -0.73443831      -0.35950184      -0.56840232
O       -1.02914996      -0.86997430      -1.72671838
C       -0.77035978       1.05879088       0.01454289
H        0.35281368      -0.56668135      -1.62870947
H        1.66990447       0.88371407      -0.92499365
H        1.94043273      -0.76932147      -0.25744446
H        0.80985011       0.81921548       1.69284448
H       -1.30658989      -0.97252419       1.48187723
H        0.10935923      -1.86835713       0.84375486
H       -1.68194822       1.29989289       0.56151244
H       -0.50875380       1.86730023      -0.66853788
14
Frame=7 idx=002000 GeodesicLength=0.6761031572625888 rxn_smarts="[C:1]([C:2]1([H:10])[C:3]([H:11])([H:12])[C:4](=[O:5])[C:6]1([H:13])[H:14])([H:7])([H:8])[H:9]>>[C:1]1([H:8])([H:9])[C:2]2([H:10])[C:3]([H:11])([H:12])[C:4]1([O:5][H:7])[C:6]2([H:13])[H:14]"
C        1.21296335       0.02054322      -0.44070017
C        0.37881569       0.38195429       0.79390577
C       -0.44279456      -0.92858230       0.82310375
C       -0.75150255      -0.36162313      -0.56270462
O       -1.04172959      -0.87063529      -1.72139912
C       -0.77272740       1.05890938       0.01482625
H        0.36772343      -0.56640557      -1.64918382
H        1.67949844       0.88576167      -0.91554031
H        1.94860130      -0.76290859      -0.24960882
H        0.80435167       0.81814881       1.69120706
H       -1.30062522      -0.98029659       1.49348412
H        0.10699989      -1.86984901       0.83568617
H       -1.67948957       1.31431312       0.56306229
H       -0.51008488       1.86066999      -0.67613855
14
Frame=8 idx=002000 GeodesicLength=0.7727517230489868 rxn_smarts="[C:1]([C:2]1([H:10])[C:3]([H:11])([H:12])[C:4](=[O:5])[C:6]1([H:13])[H:14])([H:7])([H:8])[H:9]>>[C:1]1([H:8])([H:9])[C:2]2([H:10])[C:3]([H:11])([H:12])[C:4]1([O:5][H:7])[C:6]2([H:13])[H:14]"
C        1.21533964       0.01949071      -0.44309587
C        0.37835152       0.38023447       0.79022616
C       -0.44498553      -0.92954499       0.82512471
C       -0.76931333      -0.36371386      -0.55650783
O       -1.05390178      -0.87122252      -1.71591946
C       -0.77521590       1.05904742       0.01515175
H        0.38364862      -0.56595945      -1.67046085
H        1.68896816       0.88764156      -0.90590425
H        1.95655470      -0.75638808      -0.24174901
H        0.79887470       0.81702388       1.68938164
H       -1.29436201      -0.98818239       1.50541328
H        0.10444141      -1.87132821       0.82752572
H       -1.67681222       1.32907385       0.56464080
H       -0.51158798       1.85382760      -0.68382681
14
Frame=9 idx=002000 GeodesicLength=0.8694049182851382 rxn_smarts="[C:1]([C:2]1([H:10])[C:3]([H:11])([H:12])[C:4](=[O:5])[C:6]1([H:13])[H:14])([H:7])([H:8])[H:9]>>[C:1]1([H:8])([H:9])[C:2]2([H:10])[C:3]([H:11])([H:12])[C:4]1([O:5][H:7])[C:6]2([H:13])[H:14]"
C        1.21753790       0.01832952      -0.44561963
C        0.37776247       0.37844038       0.78644555
C       -0.44728973      -0.93053971       0.82728055
C       -0.78791767      -0.36577048      -0.54977390
O       -1.06561279      -0.87171985      -1.71025129
C       -0.77783681       1.05920154       0.01552199
H        0.40068917      -0.56531448      -1.69258834
H        1.69829022       0.88933619      -0.89609798
H        1.96426532      -0.74977382      -0.23388442
H        0.79341855       0.81583935       1.68735910
H       -1.28778503      -0.99618062       1.51768444
H        0.10166386      -1.87279266       0.81927537
H       -1.67390655       1.34418528       0.56625454
H       -0.51327890       1.84675937      -0.69160598
14
Frame=10 idx=002000 GeodesicLength=0.9661136696581969 rxn_smarts="[C:1]([C:2]1([H:10])[C:3]([H:11])([H:12])[C:4](=[O:5])[C:6]1([H:13])[H:14])([H:7])([H:8])[H:9]>>[C:1]1([H:8])([H:9])[C:2]2([H:10])[C:3]([H:11])([H:12])[C:4]1([O:5][H:7])[C:6]2([H:13])[H:14]"
C        1.21954021       0.01705078      -0.44828257
C        0.37703531       0.37656575       0.78255644
C       -0.44972024      -0.93156684       0.82958163
C       -0.80737411      -0.36778638      -0.54245064
O       -1.07683054      -0.87211265      -1.70435880
C       -0.78060459       1.05936946       0.01594153
H        0.41899004      -0.56443867      -1.71562212
H        1.70744091       0.89083214      -0.88613048
H        1.97170331      -0.74308151      -0.22603373
H        0.78798481       0.81459204       1.68512735
H       -1.28087027      -1.00429476       1.53031768
H        0.09864258      -1.87424166       0.81093239
H       -1.67075433       1.35966649       0.56790062
H       -0.51518312       1.83944583      -0.69947930
14
Frame=11 idx=002000 GeodesicLength=1.0628657867206828 rxn_smarts="[C:1]([C:2]1([H:10])[C:3]([H:11])([H:12])[C:4](=[O:5])[C:6]1([H:13])[H:14])([H:7])([H:8])[H:9]>>[C:1]1([H:8])([H:9])[C:2]2([H:10])[C:3]([H:11])([H:12])[C:4]1([O:5][H:7])[C:6]2([H:13])[H:14]"
C        1.22133051       0.01564623      -0.45109687
C        0.37615787       0.37460393       0.77854952
C       -0.45229086      -0.93262612       0.83203610
C       -0.82773595      -0.36975535      -0.53449163
O       -1.08752135      -0.87238272      -1.69819974
C       -0.78353399       1.05954672       0.01641327
H        0.43869240      -0.56329604      -1.73960670
H        1.71639711       0.89211347      -0.87601354
H        1.97883913      -0.73632860      -0.21821849
H        0.78257392       0.81327905       1.68267309
H       -1.27359542      -1.01252694       1.54333134
H        0.09535235      -1.87567327       0.80249578
H       -1.66734086       1.37553106       0.56957799
H       -0.51732485       1.83186858      -0.70745013
14
Frame=12 idx=002000 GeodesicLength=1.159642990875128 rxn_smarts="[C:1]([C:2]1([H:10])[C:3]([H:11])([H:12])[C:4](=[O:5])[C:6]1([H:13])[H:14])([H:7])([H:8])[H:9]>>[C:1]1([H:8])([H:9])[C:2]2([H:10])[C:3]([H:11])([H:12])[C:4]1([O:5][H:7])[C:6]2([H:13])[H:14]"
C        1.22289270       0.01410748      -0.45407496
C        0.37511718       0.37254754       0.77441523
C       -0.45501637      -0.93371702       0.83465186
C       -0.84905949      -0.37167145      -0.52584629
O       -1.09764695      -0.87250954      -1.69172239
C       -0.78664117       1.05972707       0.01693983
H        0.45994674      -0.56184702      -1.76459193
H        1.72513280       0.89316498      -0.86576221
H        1.98564150      -0.72953497      -0.21046341
H        0.77718559       0.81189652       1.67998266
H       -1.26593909      -1.02087832       1.55674236
H        0.09176536      -1.87708499       0.79396592
H       -1.66364859       1.39179272       0.57128439
H       -0.51973022       1.82400698      -0.71552103
14
Frame=13 idx=002000 GeodesicLength=1.2564145542233696 rxn_smarts="[C:1]([C:2]1([H:10])[C:3]([H:11])([H:12])[C:4](=[O:5])[C:6]1([H:13])[H:14])([H:7])([H:8])[H:9]>>[C:1]1([H:8])([H:9])[C:2]2([H:10])[C:3]([H:11])([H:12])[C:4]1([O:5][H:7])[C:6]2([H:13])[H:14]"
C        1.22421252       0.01242606      -0.45723090
C        0.37390032       0.37038845       0.77014181
C       -0.45791269      -0.93483870       0.83743417
C       -0.87139713      -0.37352726      -0.51646454
O       -1.10718176      -0.87246882      -1.68486340
C       -0.78994284       1.05990329       0.01752310
H        0.48291436      -0.56005162      -1.79061907
H        1.73362386       0.89397343      -0.85539382
H        1.99208079      -0.72272251      -0.20279436
H        0.77181941       0.81044011       1.67704073
H       -1.25788037      -1.02934952       1.57056412
H        0.08785298      -1.87847399       0.78534149
H       -1.65966339       1.40846069       0.57301457
H       -0.52242604       1.81584038      -0.72369392
14
Frame=14 idx=002000 GeodesicLength=1.3531659795452935 rxn_smarts="[C:1]([C:2]1([H:10])[C:3]([H:11])([H:12])[C:4](=[O:5])[C:6]1([H:13])[H:14])([H:7])([H:8])[H:9]>>[C:1]1([H:8])([H:9])[C:2]2([H:10])[C:3]([H:11])([H:12])[C:4]1([O:5][H:7])[C:6]2([H:13])[H:14]"
C        1.22527405       0.01059351      -0.46058113
C        0.37249289       0.36811762       0.76571597
C       -0.46099824      -0.93599006       0.84038824
C       -0.89480264      -0.37531322      -0.50629198
O       -1.11611544      -0.87223636      -1.67755000
C       -0.79345797       1.06006623       0.01816449
H        0.50777816      -0.55786077      -1.81772706
H        1.74184561       0.89452455      -0.84492379
H        1.99812548      -0.71591494      -0.19523877
H        0.76647405       0.80890449       1.67382994
H       -1.24939094      -1.03794384       1.58480768
H        0.08358323      -1.87983691       0.77662134
H       -1.65536539       1.42554493       0.57475660
H       -0.52544285       1.80734478      -0.73197153
14
Frame=15 idx=002000 GeodesicLength=1.4498493215154709 rxn_smarts="[C:1]([C:2]1([H:10])[C:3]([H:11])([H:12])[C:4](=[O:5])[C:6]1([H:13])[H:14])([H:7])([H:8])[H:9]>>[C:1]1([H:8])([H:9])[C:2]2([H:10])[C:3]([H:11])([H:12])[C:4]1([O:5][H:7])[C:6]2([H:13])[H:14]"
C        1.22606575       0.00860258      -0.46414198
C        0.37088236       0.36572594       0.76112366
C       -0.46429036      -0.93716919       0.84351618
C       -0.91931812      -0.37701979      -0.49527872
O       -1.12445540      -0.87178721      -1.66970075
C       -0.79720448       1.06020572       0.01886473
H        0.53471999      -0.55522595      -1.84594111
H        1.74977569       0.89480782      -0.83437127
H        2.00374807      -0.70913686      -0.18782517
H        0.76114904       0.80728423       1.67033330
H       -1.24044905      -1.04666297       1.59947576
H        0.07892495      -1.88116949       0.76780430
H       -1.65073847       1.44304842       0.57649610
H       -0.52880997       1.79849675      -0.74035503
14
Frame=16 idx=002000 GeodesicLength=1.5464384892956433 rxn_smarts="[C:1]([C:2]1([H:10])[C:3]([H:11])([H:12])[C:4](=[O:5])[C:6]1([H:13])[H:14])([H:7])([H:8])[H:9]>>[C:1]1([H:8])([H:9])[C:2]2([H:10])[C:3]([H:11])([H:12])[C:4]1([O:5][H:7])[C:6]2([H:13])[H:14]"
C        1.22657504       0.00644589      -0.46793375
C        0.36905561       0.36320329       0.75634794
C       -0.46780841      -0.93837355       0.84681891
C       -0.94498450      -0.37863501      -0.48337176
O       -1.13222612      -0.87109493      -1.66121979
C       -0.80120228       1.06030931       0.01962350
H        0.56394757      -0.55209232      -1.87528107
H        1.75739149       0.89481113      -0.82375599
H        2.00891992      -0.70241457      -0.18058503
H        0.75584396       0.80557289       1.66653027
H       -1.23103078      -1.05550888       1.61456638
H        0.07384416      -1.88246650       0.75888922
H       -1.64576476       1.46097194       0.57821562
H       -0.53256090       1.78927130      -0.74884444
