17
Frame=0 idx=009546 GeodesicLength=0.0 rxn_smarts="[C:1]([O:2][C@@:3]1([H:11])[C@@:4]2([H:12])[C:5]([H:13])([H:14])[C:6]([H:15])([H:16])[C@@:7]12[H:17])([H:8])([H:9])[H:10]>>[C:1]([C@@:7]1([H:17])[C@@:3]2([H:11])[O:2][C@@:4]2([H:12])[C:5]([H:13])([H:14])[C:6]1([H:15])[H:16])([H:8])([H:9])[H:10]"
C        2.03296097       0.32959764       0.16204186
O        0.87575961      -0.84730381       1.03065148
C        0.16140540      -1.19387662      -0.12611647
C       -1.17165506      -1.17932341       0.40411092
C       -1.66705694       0.21508504       0.55398055
C       -0.77297347       1.03455601      -0.39320922
C        0.26690827       0.05667099      -0.90039857
H        2.53114509       0.23410653       1.12743838
H        1.86105221       1.39088804      -0.01369604
H        2.65926789      -0.11674358      -0.60582714
H        0.50705238      -2.11246748      -0.61011051
H       -1.78406142      -2.05146458       0.60356140
H       -2.71583171       0.27871199       0.24807498
H       -1.63026439       0.55469408       1.59378191
H       -1.37565624       1.41862213      -1.21885576
H       -0.32610043       1.90525177       0.09496540
H        0.54804784       0.08299521      -1.95039311
17
Frame=1 idx=009546 GeodesicLength=0.05929378339820308 rxn_smarts="[C:1]([O:2][C@@:3]1([H:11])[C@@:4]2([H:12])[C:5]([H:13])([H:14])[C:6]([H:15])([H:16])[C@@:7]12[H:17])([H:8])([H:9])[H:10]>>[C:1]([C@@:7]1([H:17])[C@@:3]2([H:11])[O:2][C@@:4]2([H:12])[C:5]([H:13])([H:14])[C:6]1([H:15])[H:16])([H:8])([H:9])[H:10]"
C        2.03035451       0.32700654       0.15671716
O        0.85897602      -0.83998228       1.04246046
C        0.17190605      -1.19780643      -0.12648168
C       -1.16274344      -1.17393719       0.39634609
C       -1.67134592       0.21541350       0.55340399
C       -0.77257374       1.03994722      -0.38401453
C        0.25523596       0.05419079      -0.90024245
H        2.52090548       0.25836728       1.12834273
H        1.88039805       1.38649295      -0.04960114
H        2.66545680      -0.13795269      -0.59349864
H        0.52419127      -2.11620734      -0.60394703
H       -1.77312347      -2.04948626       0.58814038
H       -2.71745310       0.27312442       0.23791920
H       -1.64356291       0.54923882       1.59511244
H       -1.36972015       1.44200223      -1.20489738
H       -0.31796221       1.89810916       0.11857162
H        0.52106078       0.07147928      -1.95433122
17
Frame=2 idx=009546 GeodesicLength=0.11859252285926938 rxn_smarts="[C:1]([O:2][C@@:3]1([H:11])[C@@:4]2([H:12])[C:5]([H:13])([H:14])[C:6]([H:15])([H:16])[C@@:7]12[H:17])([H:8])([H:9])[H:10]>>[C:1]([C@@:7]1([H:17])[C@@:3]2([H:11])[O:2][C@@:4]2([H:12])[C:5]([H:13])([H:14])[C:6]1([H:15])[H:16])([H:8])([H:9])[H:10]"
C        2.02768462       0.32456937       0.15150534
O        0.84247519      -0.83336882       1.05356476
C        0.18238786      -1.20151929      -0.12687324
C       -1.15376285      -1.16842483       0.38880394
C       -1.67547269       0.21580350       0.55285450
C       -0.77205868       1.04523121      -0.37488690
C        0.24359557       0.05167900      -0.90008464
H        2.51020808       0.28324339       1.12873308
H        1.89916554       1.38089449      -0.08520519
H        2.67188505      -0.15845636      -0.58015681
H        0.54092942      -2.11960779      -0.59819870
H       -1.76217910      -2.04726654       0.57286084
H       -2.71879551       0.26778653       0.22786974
H       -1.65649733       0.54385113       1.59634782
H       -1.36350732       1.46496209      -1.19081453
H       -0.30983234       1.89067090       0.14170516
H        0.49377448       0.05995203      -1.95802519
17
Frame=3 idx=009546 GeodesicLength=0.17786500491838753 rxn_smarts="[C:1]([O:2][C@@:3]1([H:11])[C@@:4]2([H:12])[C:5]([H:13])([H:14])[C:6]([H:15])([H:16])[C@@:7]12[H:17])([H:8])([H:9])[H:10]>>[C:1]([C@@:7]1([H:17])[C@@:3]2([H:11])[O:2][C@@:4]2([H:12])[C:5]([H:13])([H:14])[C:6]1([H:15])[H:16])([H:8])([H:9])[H:10]"
C        2.02498552       0.32228043       0.14640378
O        0.82624487      -0.82745831       1.06401575
C        0.19282708      -1.20501415      -0.12730518
C       -1.14474741      -1.16280570       0.38147022
C       -1.67944313       0.21625107       0.55233474
C       -0.77144049       1.05040429      -0.36585093
C        0.23200321       0.04915190      -0.89992714
H        2.49911800       0.30864992       1.12856131
H        1.91737260       1.37414957      -0.12040563
H        2.67855611      -0.17821730      -0.56582435
H        0.55726469      -2.12267491      -0.59288122
H       -1.75125435      -2.04482805       0.55775588
H       -2.71988259       0.26270070       0.21795488
H       -1.66905017       0.53853675       1.59749941
H       -1.35704487       1.48746404      -1.17666214
H       -0.30173895       1.88297379       0.16432846
H        0.46622989       0.04843596      -1.96146782
17
Frame=4 idx=009546 GeodesicLength=0.23709770183003404 rxn_smarts="[C:1]([O:2][C@@:3]1([H:11])[C@@:4]2([H:12])[C:5]([H:13])([H:14])[C:6]([H:15])([H:16])[C@@:7]12[H:17])([H:8])([H:9])[H:10]>>[C:1]([C@@:7]1([H:17])[C@@:3]2([H:11])[O:2][C@@:4]2([H:12])[C:5]([H:13])([H:14])[C:6]1([H:15])[H:16])([H:8])([H:9])[H:10]"
C        2.02227419       0.32012489       0.14140748
O        0.81026873      -0.82224042       1.07385072
C        0.20320891      -1.20828433      -0.12779214
C       -1.13571575      -1.15708756       0.37432480
C       -1.68325551       0.21675654       0.55184509
C       -0.77073304       1.05546067      -0.35692434
C        0.22047453       0.04662334      -0.89976520
H        2.48767242       0.33448874       1.12778056
H        1.93503587       1.36630986      -0.15510519
H        2.68545428      -0.19720497      -0.55052824
H        0.57320814      -2.12540665      -0.58800504
H       -1.74035209      -2.04217676       0.54285247
H       -2.72072460       0.25787418       0.20820335
H       -1.68120316       0.53330404       1.59856847
H       -1.35036204       1.50946400      -1.16248263
H       -0.29371870       1.87504969       0.18640648
H        0.43846781       0.03694475      -1.96463664
17
Frame=5 idx=009546 GeodesicLength=0.29633614115240925 rxn_smarts="[C:1]([O:2][C@@:3]1([H:11])[C@@:4]2([H:12])[C:5]([H:13])([H:14])[C:6]([H:15])([H:16])[C@@:7]12[H:17])([H:8])([H:9])[H:10]>>[C:1]([C@@:7]1([H:17])[C@@:3]2([H:11])[O:2][C@@:4]2([H:12])[C:5]([H:13])([H:14])[C:6]1([H:15])[H:16])([H:8])([H:9])[H:10]"
C        2.01957936       0.31808490       0.13647479
O        0.79453391      -0.81771430       1.08315612
C        0.21354275      -1.21136511      -0.12833477
C       -1.12667700      -1.15132235       0.36737189
C       -1.68694006       0.21731745       0.55140582
C       -0.76993210       1.06045025      -0.34807575
C        0.20902178       0.04410954      -0.89962023
H        2.47578518       0.36087567       1.12639546
H        1.95226083       1.35740761      -0.18947857
H        2.69262485      -0.21553915      -0.53422880
H        0.58883068      -2.12787653      -0.58356314
H       -1.72948230      -2.03940086       0.52808724
H       -2.72135014       0.25331306       0.19860217
H       -1.69303756       0.52813648       1.59962529
H       -1.34344062       1.53108675      -1.14826766
H       -0.28578469       1.86696257       0.20803855
H        0.41046513       0.02547401      -1.96758841
17
Frame=6 idx=009546 GeodesicLength=0.35561997235499637 rxn_smarts="[C:1]([O:2][C@@:3]1([H:11])[C@@:4]2([H:12])[C:5]([H:13])([H:14])[C:6]([H:15])([H:16])[C@@:7]12[H:17])([H:8])([H:9])[H:10]>>[C:1]([C@@:7]1([H:17])[C@@:3]2([H:11])[O:2][C@@:4]2([H:12])[C:5]([H:13])([H:14])[C:6]1([H:15])[H:16])([H:8])([H:9])[H:10]"
C        2.01692902       0.31616291       0.13155913
O        0.77904152      -0.81371264       1.09186681
C        0.22378192      -1.21411999      -0.12890995
C       -1.11765148      -1.14542944       0.36057795
C       -1.69047700       0.21787414       0.55095501
C       -0.76900387       1.06525555      -0.33922143
C        0.19760836       0.04161625      -0.89938852
H        2.46347134       0.38789424       1.12423878
H        1.96914221       1.34732720      -0.22362445
H        2.70000464      -0.23323279      -0.51682141
H        0.60407504      -2.12985591      -0.57946431
H       -1.71869073      -2.03635357       0.51330603
H       -2.72173226       0.24892900       0.18907786
H       -1.70453321       0.52293554       1.60050908
H       -1.33623341       1.55219951      -1.13385068
H       -0.27785721       1.85851094       0.22928906
H        0.38212513       0.01399906      -1.97009896
17
Frame=7 idx=009546 GeodesicLength=0.41492822413091673 rxn_smarts="[C:1]([O:2][C@@:3]1([H:11])[C@@:4]2([H:12])[C:5]([H:13])([H:14])[C:6]([H:15])([H:16])[C@@:7]12[H:17])([H:8])([H:9])[H:10]>>[C:1]([C@@:7]1([H:17])[C@@:3]2([H:11])[O:2][C@@:4]2([H:12])[C:5]([H:13])([H:14])[C:6]1([H:15])[H:16])([H:8])([H:9])[H:10]"
C        2.01434428       0.31432898       0.12666542
O        0.76377722      -0.81038237       1.10017660
C        0.23398379      -1.21672795      -0.12954246
C       -1.10863369      -1.13955668       0.35398655
C       -1.69392786       0.21849333       0.55057568
C       -0.76799651       1.07004981      -0.33042264
C        0.18628995       0.03916295      -0.89920446
H        2.45070262       0.41546699       1.12142015
H        1.98567826       1.33624119      -0.25752987
H        2.70766279      -0.25034855      -0.49839918
H        0.61909642      -2.13166312      -0.57579179
H       -1.70793368      -2.03329027       0.49861202
H       -2.72194293       0.24483326       0.17968156
H       -1.71581001       0.51780357       1.60146258
H       -1.32879292       1.57305569      -1.11942189
H       -0.27005876       1.84998760       0.25018139
H        0.35356104       0.00254555      -1.97244966
17
Frame=8 idx=009546 GeodesicLength=0.4742868055908763 rxn_smarts="[C:1]([O:2][C@@:3]1([H:11])[C@@:4]2([H:12])[C:5]([H:13])([H:14])[C:6]([H:15])([H:16])[C@@:7]12[H:17])([H:8])([H:9])[H:10]>>[C:1]([C@@:7]1([H:17])[C@@:3]2([H:11])[O:2][C@@:4]2([H:12])[C:5]([H:13])([H:14])[C:6]1([H:15])[H:16])([H:8])([H:9])[H:10]"
C        2.01183553       0.31257889       0.12176550
O        0.74871141      -0.80754367       1.10793597
C        0.24405497      -1.21898501      -0.13021427
C       -1.09967748      -1.13355662       0.34751647
C       -1.69723082       0.21908736       0.55016515
C       -0.76685585       1.07463737      -0.32163068
C        0.17503445       0.03675036      -0.89890932
H        2.43756148       0.44355565       1.11764789
H        2.00193696       1.32398476      -0.29106964
H        2.71549681      -0.26669958      -0.47887536
H        0.63374660      -2.13294748      -0.57243030
H       -1.69728961      -2.02994472       0.48392631
H       -2.72192224       0.24087992       0.17038519
H       -1.72673539       0.51262417       1.60220212
H       -1.32107477       1.59334164      -1.10481418
H       -0.26228441       1.84111657       0.27067788
H        0.32469234      -0.00887960      -1.97427871
17
Frame=9 idx=009546 GeodesicLength=0.5336860922066775 rxn_smarts="[C:1]([O:2][C@@:3]1([H:11])[C@@:4]2([H:12])[C:5]([H:13])([H:14])[C:6]([H:15])([H:16])[C@@:7]12[H:17])([H:8])([H:9])[H:10]>>[C:1]([C@@:7]1([H:17])[C@@:3]2([H:11])[O:2][C@@:4]2([H:12])[C:5]([H:13])([H:14])[C:6]1([H:15])[H:16])([H:8])([H:9])[H:10]"
C        2.00941277       0.31089748       0.11685067
O        0.73385368      -0.80528383       1.11531569
C        0.25406478      -1.22104503      -0.13094734
C       -1.09074999      -1.12756409       0.34122417
C       -1.70044746       0.21971532       0.54980769
C       -0.76562530       1.07917608      -0.31285427
C        0.16387701       0.03439454      -0.89862596
H        2.42393809       0.47218542       1.11305802
H        2.01795996       1.31068554      -0.32439696
H        2.72353222      -0.28245051      -0.45828400
H        0.64818841      -2.13398066      -0.56946359
H       -1.68669149      -2.02655237       0.46926993
H       -2.72173219       0.23718188       0.16119452
H       -1.73745601       0.50747120       1.60296777
H       -1.31310513       1.61333362      -1.09014276
H       -0.25462627       1.83212212       0.29086988
H        0.29560693      -0.02028668      -1.97584344
17
Frame=10 idx=009546 GeodesicLength=0.5931470238274075 rxn_smarts="[C:1]([O:2][C@@:3]1([H:11])[C@@:4]2([H:12])[C:5]([H:13])([H:14])[C:6]([H:15])([H:16])[C@@:7]12[H:17])([H:8])([H:9])[H:10]>>[C:1]([C@@:7]1([H:17])[C@@:3]2([H:11])[O:2][C@@:4]2([H:12])[C:5]([H:13])([H:14])[C:6]1([H:15])[H:16])([H:8])([H:9])[H:10]"
C        2.00708674       0.30927127       0.11192801
O        0.71918749      -0.80356290       1.12228782
C        0.26397733      -1.22285514      -0.13173992
C       -1.08187736      -1.12154142       0.33506759
C       -1.70354680       0.22035674       0.54947619
C       -0.76429705       1.08359999      -0.30410094
C        0.15280416       0.03209847      -0.89831144
H        2.40991272       0.50130927       1.10753018
H        2.03373798       1.29628588      -0.35741798
H        2.73173912      -0.29749070      -0.43657855
H        0.66237277      -2.13466433      -0.56685423
H       -1.67618036      -2.02303126       0.45459475
H       -2.72135941       0.23370553       0.15213939
H       -1.74788187       0.50232054       1.60368092
H       -1.30489896       1.63290584      -1.07539341
H       -0.24707079       1.82294015       0.31071899
H        0.26629428      -0.03164793      -1.97702739
17
Frame=11 idx=009546 GeodesicLength=0.6526810401025902 rxn_smarts="[C:1]([O:2][C@@:3]1([H:11])[C@@:4]2([H:12])[C:5]([H:13])([H:14])[C:6]([H:15])([H:16])[C@@:7]12[H:17])([H:8])([H:9])[H:10]>>[C:1]([C@@:7]1([H:17])[C@@:3]2([H:11])[O:2][C@@:4]2([H:12])[C:5]([H:13])([H:14])[C:6]1([H:15])[H:16])([H:8])([H:9])[H:10]"
C        2.00487214       0.30769779       0.10696625
O        0.70470371      -0.80238484       1.12892686
C        0.27379728      -1.22444321      -0.13259431
C       -1.07307243      -1.11552240       0.32905600
C       -1.70655327       0.22100930       0.54917952
C       -0.76286348       1.08794657      -0.29534376
C        0.14182860       0.02987064      -0.89798307
H        2.39541633       0.53099484       1.10097802
H        2.04937964       1.28076643      -0.39021650
H        2.74009989      -0.31182366      -0.41371522
H        0.67634999      -2.13506679      -0.56459881
H       -1.66576226      -2.01945003       0.43987310
H       -2.72082080       0.23045415       0.14318909
H       -1.75808668       0.49715636       1.60438117
H       -1.29643321       1.65215986      -1.06053535
H       -0.23960909       1.81360663       0.33029612
H        0.23675365      -0.04297163      -1.97785911
17
Frame=12 idx=009546 GeodesicLength=0.7123409508439823 rxn_smarts="[C:1]([O:2][C@@:3]1([H:11])[C@@:4]2([H:12])[C:5]([H:13])([H:14])[C:6]([H:15])([H:16])[C@@:7]12[H:17])([H:8])([H:9])[H:10]>>[C:1]([C@@:7]1([H:17])[C@@:3]2([H:11])[O:2][C@@:4]2([H:12])[C:5]([H:13])([H:14])[C:6]1([H:15])[H:16])([H:8])([H:9])[H:10]"
C        2.00278821       0.30615206       0.10195549
O        0.69039681      -0.80164433       1.13513831
C        0.28352335      -1.22574685      -0.13350125
C       -1.06432995      -1.10947786       0.32317124
C       -1.70947019       0.22164379       0.54889640
C       -0.76131628       1.09216414      -0.28653135
C        0.13094464       0.02772645      -0.89759152
H        2.38044308       0.56126389       1.09332989
H        2.06490805       1.26405011      -0.42290972
H        2.74855791      -0.32551720      -0.38961535
H        0.69012580      -2.13503905      -0.56265901
H       -1.65542899      -2.01572645       0.42505208
H       -2.72011752       0.22738870       0.13432914
H       -1.76809671       0.49192405       1.60499993
H       -1.28769071       1.67104484      -1.04549007
H       -0.23223166       1.80403802       0.34965280
H        0.20699419      -0.05424433      -1.97822702
17
Frame=13 idx=009546 GeodesicLength=0.7721007641049776 rxn_smarts="[C:1]([O:2][C@@:3]1([H:11])[C@@:4]2([H:12])[C:5]([H:13])([H:14])[C:6]([H:15])([H:16])[C@@:7]12[H:17])([H:8])([H:9])[H:10]>>[C:1]([C@@:7]1([H:17])[C@@:3]2([H:11])[O:2][C@@:4]2([H:12])[C:5]([H:13])([H:14])[C:6]1([H:15])[H:16])([H:8])([H:9])[H:10]"
C        2.00082612       0.30463730       0.09690479
O        0.67624944      -0.80140367       1.14102462
C        0.29314627      -1.22681363      -0.13447565
C       -1.05567050      -1.10343940       0.31740542
C       -1.71229593       0.22227909       0.54864306
C       -0.75966708       1.09628354      -0.27770323
C        0.12016139       0.02566480      -0.89717430
H        2.36503286       0.59202445       1.08450572
H        2.08034316       1.24615619      -0.45534180
H        2.75708396      -0.33841734      -0.36431983
H        0.70371414      -2.13468753      -0.56106342
H       -1.64519102      -2.01192570       0.41017316
H       -2.71926189       0.22454195       0.12558391
H       -1.77788660       0.48666114       1.60559195
H       -1.27869649       1.68958089      -1.03032959
H       -0.22496039       1.79430593       0.36875769
H        0.17707256      -0.06544802      -1.97818249
17
Frame=14 idx=009546 GeodesicLength=0.8319383838555755 rxn_smarts="[C:1]([O:2][C@@:3]1([H:11])[C@@:4]2([H:12])[C:5]([H:13])([H:14])[C:6]([H:15])([H:16])[C@@:7]12[H:17])([H:8])([H:9])[H:10]>>[C:1]([C@@:7]1([H:17])[C@@:3]2([H:11])[O:2][C@@:4]2([H:12])[C:5]([H:13])([H:14])[C:6]1([H:15])[H:16])([H:8])([H:9])[H:10]"
C        1.99898780       0.30313961       0.09183312
O        0.66224658      -0.80165410       1.14659500
C        0.30266423      -1.22764929      -0.13552094
C       -1.04710390      -1.09741075       0.31174578
C       -1.71503274       0.22291960       0.54842358
C       -0.75793311       1.10030121      -0.26888137
C        0.10948889       0.02368823      -0.89673478
H        2.34926034       0.62314392       1.07446149
H        2.09567807       1.22711492      -0.48740501
H        2.76561003      -0.35044453      -0.33788847
H        0.71712819      -2.13401400      -0.55980814
H       -1.63504937      -2.00804525       0.39526428
H       -2.71827186       0.22192018       0.11698552
H       -1.78744230       0.48138163       1.60616275
H       -1.26948645       1.70773782      -1.01509736
H       -0.21782024       1.78443181       0.38758069
H        0.14707584      -0.07656101      -1.97771615
17
Frame=15 idx=009546 GeodesicLength=0.8918412873198132 rxn_smarts="[C:1]([O:2][C@@:3]1([H:11])[C@@:4]2([H:12])[C:5]([H:13])([H:14])[C:6]([H:15])([H:16])[C@@:7]12[H:17])([H:8])([H:9])[H:10]>>[C:1]([C@@:7]1([H:17])[C@@:3]2([H:11])[O:2][C@@:4]2([H:12])[C:5]([H:13])([H:14])[C:6]1([H:15])[H:16])([H:8])([H:9])[H:10]"
C        1.99726642       0.30166301       0.08675914
O        0.64836753      -0.80235644       1.15184038
C        0.31205514      -1.22823408      -0.13663063
C       -1.03864547      -1.09138130       0.30617540
C       -1.71766773       0.22355491       0.54822440
C       -0.75611380       1.10418673      -0.26008059
C        0.09892600       0.02179329      -0.89625326
H        2.33323179       0.65447957       1.06313996
H        2.11090371       1.20696912      -0.51895390
H        2.77402813      -0.36148848      -0.31041580
H        0.73034139      -2.13298177      -0.55886535
H       -1.62502054      -2.00405862       0.38033508
H       -2.71714641       0.21950283       0.10854850
H       -1.79672719       0.47608545       1.60667663
H       -1.26006776       1.72544408      -0.99981528
H       -0.21080365       1.77440110       0.40608855
H        0.11707244      -0.08757940      -1.97677325
17
Frame=16 idx=009546 GeodesicLength=0.9518012322332996 rxn_smarts="[C:1]([O:2][C@@:3]1([H:11])[C@@:4]2([H:12])[C:5]([H:13])([H:14])[C:6]([H:15])([H:16])[C@@:7]12[H:17])([H:8])([H:9])[H:10]>>[C:1]([C@@:7]1([H:17])[C@@:3]2([H:11])[O:2][C@@:4]2([H:12])[C:5]([H:13])([H:14])[C:6]1([H:15])[H:16])([H:8])([H:9])[H:10]"
C        1.99566985       0.30019309       0.08169172
O        0.63460243      -0.80352196       1.15680357
C        0.32133518      -1.22859884      -0.13780223
C       -1.03029749      -1.08537290       0.30069564
C       -1.72022376       0.22419636       0.54806014
C       -0.75423090       1.10796822      -0.25130583
C        0.08848260       0.01998498      -0.89575019
H        2.31699037       0.68597154       1.05051547
H        2.12604194       1.18572727      -0.54997326
H        2.78230682      -0.37152646      -0.28194514
H        0.74340382      -2.13163880      -0.55823101
H       -1.61509610      -2.00000019       0.36539156
H       -2.71591528       0.21730588       0.10028095
H       -1.80578001       0.47078647       1.60717550
H       -1.25047341       1.74274987      -0.98451217
H       -0.20394533       1.76425721       0.42430249
H        0.08712927      -0.09848175      -1.97539719
