16
Frame=0 idx=003534 GeodesicLength=0.0 rxn_smarts="[C:1]([C:2]([C@@:3]1([H:12])[C:4]([H:13])([H:14])[C@:5]1([O:6][H:16])[H:15])([H:10])[H:11])([H:7])([H:8])[H:9]>>[C:1]1([H:7])([H:8])[C:2]([H:10])([H:11])[C@:3]2([H:12])[C:4]([H:13])([H:14])[C@:5]12[H:15].[O:6]([H:9])[H:16]"
C       -1.39904842       0.44215902      -0.04445303
C       -1.06802313      -1.00604624       0.30030947
C        0.36419859      -0.90385196       0.75954248
C        1.41880502      -0.80899997      -0.32417530
C        0.92673256       0.40598258       0.31549293
O        0.56470089       1.75508233      -1.17036021
H       -1.63261246       1.01186087       0.85839088
H       -2.21715527       0.57376288      -0.76150889
H       -0.35670683       1.22101018      -0.76198070
H       -1.71922537      -1.43887736       1.06716278
H       -1.14831075      -1.65631236      -0.57488776
H        0.66244697      -1.27515186       1.73588124
H        2.44326258      -1.09524815      -0.11515807
H        1.09658689      -1.00902838      -1.33916898
H        1.49373815       1.13032988       0.87309759
H        0.57061055       2.65332857      -0.81818446
16
Frame=1 idx=003534 GeodesicLength=0.08483303807773497 rxn_smarts="[C:1]([C:2]([C@@:3]1([H:12])[C:4]([H:13])([H:14])[C@:5]1([O:6][H:16])[H:15])([H:10])[H:11])([H:7])([H:8])[H:9]>>[C:1]1([H:7])([H:8])[C:2]([H:10])([H:11])[C@:3]2([H:12])[C:4]([H:13])([H:14])[C@:5]12[H:15].[O:6]([H:9])[H:16]"
C       -1.38956258       0.44784790      -0.03723780
C       -1.06564062      -1.00553610       0.29566206
C        0.36539156      -0.90586364       0.75955704
C        1.42194954      -0.81159664      -0.32031437
C        0.92116496       0.40692544       0.31101787
O        0.57679973       1.76233881      -1.16663464
H       -1.60606612       1.03075899       0.86117036
H       -2.23126161       0.57866748      -0.72637475
H       -0.37909463       1.19954673      -0.83169154
H       -1.71865894      -1.44345163       1.05741150
H       -1.14510279      -1.64795099      -0.58537922
H        0.65756187      -1.27175603       1.73946630
H        2.44537244      -1.09491151      -0.10299320
H        1.10714834      -1.01843790      -1.33631006
H        1.49176294       1.12053823       0.88037428
H        0.54823588       2.65288086      -0.79772384
16
Frame=2 idx=003534 GeodesicLength=0.1697348125147842 rxn_smarts="[C:1]([C:2]([C@@:3]1([H:12])[C:4]([H:13])([H:14])[C@:5]1([O:6][H:16])[H:15])([H:10])[H:11])([H:7])([H:8])[H:9]>>[C:1]1([H:7])([H:8])[C:2]([H:10])([H:11])[C@:3]2([H:12])[C:4]([H:13])([H:14])[C@:5]12[H:15].[O:6]([H:9])[H:16]"
C       -1.37906622       0.45401649      -0.03108825
C       -1.06301631      -1.00453860       0.29066935
C        0.36670895      -0.90781213       0.75967933
C        1.42526377      -0.81407898      -0.31633304
C        0.91659912       0.40775274       0.30749329
O        0.58377776       1.76778002      -1.16231174
H       -1.58034872       1.04902399       0.86275247
H       -2.24313096       0.58386269      -0.69196447
H       -0.40197260       1.18004972      -0.89642056
H       -1.71826360      -1.44715438       1.04710064
H       -1.14151273      -1.63916004      -0.59608186
H        0.65251087      -1.26899071       1.74290803
H        2.44741317      -1.09523303      -0.09092112
H        1.11773137      -1.02713421      -1.33330987
H        1.49093345       1.11109510       0.88738594
H        0.52637269       2.65052133      -0.77955813
16
Frame=3 idx=003534 GeodesicLength=0.2547115122266079 rxn_smarts="[C:1]([C:2]([C@@:3]1([H:12])[C:4]([H:13])([H:14])[C@:5]1([O:6][H:16])[H:15])([H:10])[H:11])([H:7])([H:8])[H:9]>>[C:1]1([H:7])([H:8])[C:2]([H:10])([H:11])[C@:3]2([H:12])[C:4]([H:13])([H:14])[C@:5]12[H:15].[O:6]([H:9])[H:16]"
C       -1.36795155       0.46039848      -0.02572766
C       -1.06018323      -1.00325546       0.28537172
C        0.36809633      -0.90969089       0.75992315
C        1.42866253      -0.81640655      -0.31223184
C        0.91278521       0.40852675       0.30480737
O        0.58679563       1.77145150      -1.15806914
H       -1.55550032       1.06653098       0.86351380
H       -2.25300338       0.58918412      -0.65826410
H       -0.42587409       1.16293903      -0.95627440
H       -1.71795563      -1.45038450       1.03625613
H       -1.13752034      -1.63007218      -0.60700994
H        0.64730578      -1.26673080       1.74625175
H        2.44934991      -1.09600066      -0.07892681
H        1.12826519      -1.03519016      -1.33016415
H        1.49091130       1.10206760       0.89418411
H        0.50581667       2.64663277      -0.76363998
16
Frame=4 idx=003534 GeodesicLength=0.3397405047542502 rxn_smarts="[C:1]([C:2]([C@@:3]1([H:12])[C:4]([H:13])([H:14])[C@:5]1([O:6][H:16])[H:15])([H:10])[H:11])([H:7])([H:8])[H:9]>>[C:1]1([H:7])([H:8])[C:2]([H:10])([H:11])[C@:3]2([H:12])[C:4]([H:13])([H:14])[C@:5]12[H:15].[O:6]([H:9])[H:16]"
C       -1.35646632       0.46684167      -0.02096968
C       -1.05717260      -1.00180605       0.27981040
C        0.36952149      -0.91150170       0.76028933
C        1.43210856      -0.81857747      -0.30800981
C        0.90955281       0.40928488       0.30284737
O        0.58684722       1.77352009      -1.15424558
H       -1.53143927       1.08330621       0.86367606
H       -2.26115451       0.59451474      -0.62516708
H       -0.45115014       1.14820419      -1.01180912
H       -1.71768840      -1.45336544       1.02492501
H       -1.13313800      -1.62077706      -0.61814576
H        0.64195506      -1.26487881       1.74952740
H        2.45118393      -1.09708181      -0.06698389
H        1.13873305      -1.04268439      -1.32687217
H        1.49146519       1.09345198       0.90084082
H        0.48684192       2.64154897      -0.74971331
16
Frame=5 idx=003534 GeodesicLength=0.42482567684376843 rxn_smarts="[C:1]([C:2]([C@@:3]1([H:12])[C:4]([H:13])([H:14])[C@:5]1([O:6][H:16])[H:15])([H:10])[H:11])([H:7])([H:8])[H:9]>>[C:1]1([H:7])([H:8])[C:2]([H:10])([H:11])[C@:3]2([H:12])[C:4]([H:13])([H:14])[C@:5]12[H:15].[O:6]([H:9])[H:16]"
C       -1.34475206       0.47326225      -0.01669493
C       -1.05400046      -1.00025336       0.27401549
C        0.37096447      -0.91324680       0.76077310
C        1.43558253      -0.82060349      -0.30366245
C        0.90678573       0.41004406       0.30151799
O        0.58468948       1.77416548      -1.15099089
H       -1.50804584       1.09941930       0.86336527
H       -2.26781087       0.59977086      -0.59255089
H       -0.47805033       1.13568307      -1.06362864
H       -1.71742373      -1.45621338       1.01314674
H       -1.12837750      -1.61131920      -0.62946913
H        0.63645987      -1.26336044       1.75275508
H        2.45291657      -1.09839489      -0.05505858
H        1.14913862      -1.04968209      -1.32343289
H        1.49243520       1.08520678       0.90742563
H        0.46948834       2.63552186      -0.73751091
16
Frame=6 idx=003534 GeodesicLength=0.509932448259502 rxn_smarts="[C:1]([C:2]([C@@:3]1([H:12])[C:4]([H:13])([H:14])[C@:5]1([O:6][H:16])[H:15])([H:10])[H:11])([H:7])([H:8])[H:9]>>[C:1]1([H:7])([H:8])[C:2]([H:10])([H:11])[C@:3]2([H:12])[C:4]([H:13])([H:14])[C@:5]12[H:15].[O:6]([H:9])[H:16]"
C       -1.33289998       0.47961964      -0.01282067
C       -1.05068180      -0.99863494       0.26800083
C        0.37241233      -0.91493002       0.76136647
C        1.43909003      -0.82250360      -0.29918097
C        0.90441078       0.41081685       0.30074225
O        0.58087623       1.77353265      -1.14837634
H       -1.48521257       1.11494619       0.86266616
H       -2.27316497       0.60490754      -0.56028832
H       -0.50675704       1.12520720      -1.11223686
H       -1.71714566      -1.45900205       1.00093812
H       -1.12325069      -1.60172217      -0.64097614
H        0.63081169      -1.26211925       1.75594846
H        2.45456896      -1.09989095      -0.04310985
H        1.15951546      -1.05624586      -1.31984292
H        1.49371914       1.07729622       0.91399456
H        0.45370810       2.62872255      -0.72682477
16
Frame=7 idx=003534 GeodesicLength=0.5950638270311487 rxn_smarts="[C:1]([C:2]([C@@:3]1([H:12])[C:4]([H:13])([H:14])[C@:5]1([O:6][H:16])[H:15])([H:10])[H:11])([H:7])([H:8])[H:9]>>[C:1]1([H:7])([H:8])[C:2]([H:10])([H:11])[C@:3]2([H:12])[C:4]([H:13])([H:14])[C@:5]12[H:15].[O:6]([H:9])[H:16]"
C       -1.32096033       0.48589382      -0.00929564
C       -1.04722076      -0.99696844       0.26177090
C        0.37385657      -0.91655382       0.76206106
C        1.44263810      -0.82429862      -0.29455359
C        0.90237676       0.41160632       0.30045635
O        0.57582114       1.77174443      -1.14642430
H       -1.46284016       1.12995493       0.86162689
H       -2.27735776       0.60989061      -0.52827124
H       -0.53742932       1.11661943      -1.15803145
H       -1.71683529      -1.46176972       0.98830400
H       -1.11776042      -1.59198965      -0.65266809
H        0.62499969      -1.26110943       1.75911753
H        2.45615405      -1.10154176      -0.03109358
H        1.16989677      -1.06243026      -1.31609539
H        1.49524317       1.06967676       0.92059253
H        0.43941779       2.62127541      -0.71749598
16
Frame=8 idx=003534 GeodesicLength=0.6802146674952916 rxn_smarts="[C:1]([C:2]([C@@:3]1([H:12])[C:4]([H:13])([H:14])[C@:5]1([O:6][H:16])[H:15])([H:10])[H:11])([H:7])([H:8])[H:9]>>[C:1]1([H:7])([H:8])[C:2]([H:10])([H:11])[C@:3]2([H:12])[C:4]([H:13])([H:14])[C@:5]12[H:15].[O:6]([H:9])[H:16]"
C       -1.30896469       0.49207774      -0.00608667
C       -1.04361894      -0.99526308       0.25532138
C        0.37529099      -0.91812043       0.76284805
C        1.44624094      -0.82601061      -0.28976610
C        0.90064960       0.41241293       0.30060609
O        0.56983564       1.76889690      -1.14514130
H       -1.44084527       1.14450473       0.86027864
H       -2.28049879       0.61469890      -0.49640406
H       -0.57020840       1.10979656      -1.20130328
H       -1.71647980      -1.46454087       0.97523649
H       -1.11190506      -1.58211711      -0.66455504
H        0.61900887      -1.26029225       1.76226934
H        2.45768845      -1.10333209      -0.01896296
H        1.18032394      -1.06828842      -1.31218020
H        1.49695559       1.06231079       0.92725316
H        0.42652691       2.61326632      -0.70941355
16
Frame=9 idx=003534 GeodesicLength=0.7653882621643031 rxn_smarts="[C:1]([C:2]([C@@:3]1([H:12])[C:4]([H:13])([H:14])[C@:5]1([O:6][H:16])[H:15])([H:10])[H:11])([H:7])([H:8])[H:9]>>[C:1]1([H:7])([H:8])[C:2]([H:10])([H:11])[C@:3]2([H:12])[C:4]([H:13])([H:14])[C@:5]12[H:15].[O:6]([H:9])[H:16]"
C       -1.29693163       0.49817199      -0.00317378
C       -1.03987525      -0.99352187       0.24864284
C        0.37671011      -0.91963033       0.76371852
C        1.44991497      -0.82766103      -0.28480406
C        0.89920545       0.41323696       0.30114312
O        0.56316288       1.76506233      -1.14451953
H       -1.41915671       1.15864551       0.85863726
H       -2.28266975       0.61931533      -0.46460355
H       -0.60522746       1.10464413      -1.24226349
H       -1.71606885      -1.46732982       0.96171978
H       -1.10567825      -1.57209384      -0.67665134
H        0.61282130      -1.25963245       1.76540950
H        2.45918806      -1.10525424      -0.00667171
H        1.19084044      -1.07387170      -1.30808613
H        1.49881720       1.05516689       0.93400075
H        0.41494748       2.60475213      -0.70249819
16
Frame=10 idx=003534 GeodesicLength=0.8505785148437028 rxn_smarts="[C:1]([C:2]([C@@:3]1([H:12])[C:4]([H:13])([H:14])[C@:5]1([O:6][H:16])[H:15])([H:10])[H:11])([H:7])([H:8])[H:9]>>[C:1]1([H:7])([H:8])[C:2]([H:10])([H:11])[C@:3]2([H:12])[C:4]([H:13])([H:14])[C@:5]12[H:15].[O:6]([H:9])[H:16]"
C       -1.28487277       0.50418084      -0.00054430
C       -1.03598570      -0.99174551       0.24171731
C        0.37810900      -0.92108421       0.76466361
C        1.45367991      -0.82927205      -0.27964829
C        0.89802761       0.41407523       0.30202420
O        0.55599193       1.76029633      -1.14456108
H       -1.39771083       1.17242096       0.85671590
H       -2.28393204       0.62373206      -0.43279209
H       -0.64262126       1.10109562      -1.28103808
H       -1.71559291      -1.47014987       0.94772401
H       -1.09906718      -1.56190166      -0.68898261
H        0.60641463      -1.25909787       1.76854170
H        2.46066862      -1.10730619       0.00583421
H        1.20149602      -1.07923212      -1.30379609
H        1.50079681       1.04821671       0.94085212
H        0.40459816       2.59577172      -0.69671052
16
Frame=11 idx=003534 GeodesicLength=0.93578804649122 rxn_smarts="[C:1]([C:2]([C@@:3]1([H:12])[C:4]([H:13])([H:14])[C@:5]1([O:6][H:16])[H:15])([H:10])[H:11])([H:7])([H:8])[H:9]>>[C:1]1([H:7])([H:8])[C:2]([H:10])([H:11])[C@:3]2([H:12])[C:4]([H:13])([H:14])[C@:5]12[H:15].[O:6]([H:9])[H:16]"
C       -1.27279387       0.51011141       0.00180654
C       -1.03194460      -0.98993182       0.23452323
C        0.37948235      -0.92248119       0.76567431
C        1.45755586      -0.83086526      -0.27427930
C        0.89710425       0.41492509       0.30320829
O        0.54847904       1.75463940      -1.14526414
H       -1.37645147       1.18586906       0.85451714
H       -2.28432866       0.62793982      -0.40089981
H       -0.68252613       1.09910413      -1.31769704
H       -1.71504337      -1.47300990       0.93321331
H       -1.09205504      -1.55151864      -0.70157730
H        0.59976376      -1.25865688       1.77166864
H        2.46214419      -1.10948919       0.01860913
H        1.21234123      -1.08442205      -1.29929127
H        1.50286831       1.04143704       0.94781779
H        0.39540415       2.58634899      -0.69202953
16
Frame=12 idx=003534 GeodesicLength=1.0210169990897264 rxn_smarts="[C:1]([C:2]([C@@:3]1([H:12])[C:4]([H:13])([H:14])[C@:5]1([O:6][H:16])[H:15])([H:10])[H:11])([H:7])([H:8])[H:9]>>[C:1]1([H:7])([H:8])[C:2]([H:10])([H:11])[C@:3]2([H:12])[C:4]([H:13])([H:14])[C@:5]12[H:15].[O:6]([H:9])[H:16]"
C       -1.26069731       0.51597246       0.00387697
C       -1.02774488      -0.98807717       0.22703475
C        0.38082440      -0.92381954       0.76674128
C        1.46156368      -0.83246206      -0.26867615
C        0.89642705       0.41578350       0.30465595
O        0.54075444       1.74812064      -1.14663012
H       -1.35532734       1.19902419       0.85203683
H       -2.28388758       0.63193059      -0.36886296
H       -0.72507986       1.09863858      -1.35225644
H       -1.71441207      -1.47591679       0.91814498
H       -1.08462118      -1.54091999      -0.71446816
H        0.59284050      -1.25827805       1.77479175
H        2.46362743      -1.11180656       0.03170987
H        1.22342873      -1.08949514      -1.29455009
H        1.50500861       1.03480865       0.95490326
H        0.38729537       2.57649668      -0.68845173
16
Frame=13 idx=003534 GeodesicLength=1.1062677272796362 rxn_smarts="[C:1]([C:2]([C@@:3]1([H:12])[C:4]([H:13])([H:14])[C@:5]1([O:6][H:16])[H:15])([H:10])[H:11])([H:7])([H:8])[H:9]>>[C:1]1([H:7])([H:8])[C:2]([H:10])([H:11])[C@:3]2([H:12])[C:4]([H:13])([H:14])[C@:5]12[H:15].[O:6]([H:9])[H:16]"
C       -1.24858293       0.52177363       0.00565855
C       -1.02337817      -0.98617668       0.21922219
C        0.38212872      -0.92509678       0.76785485
C        1.46572423      -0.83408381      -0.26281658
C        0.89599019       0.41664687       0.30632863
O        0.53293141       1.74076135      -1.14866364
H       -1.33429149       1.21191848       0.84926300
H       -2.28262346       0.63569486      -0.33662346
H       -0.77042431       1.09967903      -1.38468405
H       -1.71369067      -1.47887530       0.90247049
H       -1.07674140      -1.53007853      -0.72769099
H        0.58561395      -1.25792985       1.77791098
H        2.46512921      -1.11426308       0.04519552
H        1.23481218      -1.09450651      -1.28954796
H        1.50719611       1.02831534       0.96210990
H        0.38020643       2.56622099      -0.68598743
16
Frame=14 idx=003534 GeodesicLength=1.1915422223600953 rxn_smarts="[C:1]([C:2]([C@@:3]1([H:12])[C:4]([H:13])([H:14])[C@:5]1([O:6][H:16])[H:15])([H:10])[H:11])([H:7])([H:8])[H:9]>>[C:1]1([H:7])([H:8])[C:2]([H:10])([H:11])[C@:3]2([H:12])[C:4]([H:13])([H:14])[C@:5]12[H:15].[O:6]([H:9])[H:16]"
C       -1.23644866       0.52752542       0.00713657
C       -1.01883504      -0.98422435       0.21105241
C        0.38338783      -0.92630935       0.76900460
C        1.47005802      -0.83575136      -0.25667746
C        0.89578946       0.41751191       0.30818815
O        0.52511082       1.73257541      -1.15137127
H       -1.31329987       1.22458263       0.84617601
H       -2.28053865       0.63922267      -0.30412806
H       -0.81870320       1.10221083      -1.41490541
H       -1.71287085      -1.48188804       0.88613592
H       -1.06838812      -1.51896521      -0.74128422
H        0.57805003      -1.25757995       1.78102457
H        2.46665816      -1.11686410       0.05912688
H        1.24654612      -1.09951244      -1.28425783
H        1.50940967       1.02194440       0.96943566
H        0.37407427       2.55552152      -0.68465653
16
Frame=15 idx=003534 GeodesicLength=1.2768449302974558 rxn_smarts="[C:1]([C:2]([C@@:3]1([H:12])[C:4]([H:13])([H:14])[C@:5]1([O:6][H:16])[H:15])([H:10])[H:11])([H:7])([H:8])[H:9]>>[C:1]1([H:7])([H:8])[C:2]([H:10])([H:11])[C@:3]2([H:12])[C:4]([H:13])([H:14])[C@:5]12[H:15].[O:6]([H:9])[H:16]"
C       -1.22429075       0.53323906       0.00828956
C       -1.01410497      -0.98221311       0.20248863
C        0.38459291      -0.92745267       0.77017932
C        1.47458472      -0.83748508      -0.25023443
C        0.89582187       0.41837548       0.31019664
O        0.51738659       1.72357162      -1.15476213
H       -1.29231096       1.23704701       0.84274748
H       -2.27762383       0.64250162      -0.27132749
H       -0.87006466       1.10622076      -1.44280498
H       -1.71194394      -1.48495556       0.86908167
H       -1.05953037      -1.50754915      -0.75528862
H        0.57011128      -1.25719528       1.78412869
H        2.46822007      -1.11961510       0.07356687
H        1.25868532      -1.10456986      -1.27864969
H        1.51162791       1.01568599       0.97687579
H        0.36883880       2.54439428      -0.68448729
16
Frame=16 idx=003534 GeodesicLength=1.3621797054160565 rxn_smarts="[C:1]([C:2]([C@@:3]1([H:12])[C:4]([H:13])([H:14])[C@:5]1([O:6][H:16])[H:15])([H:10])[H:11])([H:7])([H:8])[H:9]>>[C:1]1([H:7])([H:8])[C:2]([H:10])([H:11])[C@:3]2([H:12])[C:4]([H:13])([H:14])[C@:5]12[H:15].[O:6]([H:9])[H:16]"
C       -1.21210430       0.53892684       0.00908900
C       -1.00917659      -0.98013460       0.19348924
C        0.38573349      -0.92852106       0.77136679
C        1.47932379      -0.83930487      -0.24346148
C        0.89608562       0.41923471       0.31231645
O        0.50984781       1.71375381      -1.15884909
H       -1.27128409       1.24934214       0.83894062
H       -2.27385903       0.64551847      -0.23817274
H       -0.92466179       1.11169259      -1.46822662
H       -1.71090157      -1.48807675       0.85124054
H       -1.05013349      -1.49579672      -0.76974905
H        0.56175551      -1.25674169       1.78721761
H        2.46981826      -1.12252202       0.08858217
H        1.27128631      -1.10973632      -1.27269047
H        1.51382897       1.00953318       0.98442372
H        0.36444110       2.53283230      -0.68551670
