19
Frame=0 idx=010194 GeodesicLength=0.0 rxn_smarts="[C:1]([C:2]([C@@:3]1([C:4]([H:13])([H:14])[H:15])[C:5]([H:16])([H:17])[C@:6]1([O:7][H:19])[H:18])([H:11])[H:12])([H:8])([H:9])[H:10]>>[C:1]([C:2]([C:3](=[C:4]([H:13])[H:14])[C:5]([C:6][O:7][H:19])([H:16])[H:17])([H:11])[H:12])([H:8])([H:9])[H:10].[H:15][H:18]"
C        1.99977328       0.44571195      -0.59080266
C        1.20103223      -0.13488219       0.56999884
C       -0.22195793      -0.50961141       0.19884681
C       -0.47282827      -1.41097323      -0.81549362
C       -1.40147593      -0.31203116       1.23319837
C       -1.24337078       0.81624172       0.35115808
O       -0.83463502       1.93046830       0.98541141
H        1.50591089       1.32760059      -1.00453913
H        2.11405790      -0.27374142      -1.40322679
H        3.00026023       0.73696877      -0.26671485
H        1.16735265       0.59127745       1.38522980
H        1.70787359      -1.01923105       0.96537761
H        0.33406656      -1.74810862      -1.45656134
H       -1.37301447      -2.00612988      -0.84336988
H       -1.75339859      -0.18933354      -1.74791917
H       -1.16991380      -0.19942495       2.29160318
H       -2.18544522      -1.02404808       1.01187093
H       -1.85189471       0.42746483      -1.18631923
H       -0.52239253       2.55178186       0.32225172
19
Frame=1 idx=010194 GeodesicLength=0.08487295954560399 rxn_smarts="[C:1]([C:2]([C@@:3]1([C:4]([H:13])([H:14])[H:15])[C:5]([H:16])([H:17])[C@:6]1([O:7][H:19])[H:18])([H:11])[H:12])([H:8])([H:9])[H:10]>>[C:1]([C:2]([C:3](=[C:4]([H:13])[H:14])[C:5]([C:6][O:7][H:19])([H:16])[H:17])([H:11])[H:12])([H:8])([H:9])[H:10].[H:15][H:18]"
C        1.99759675       0.45224629      -0.58298010
C        1.20372301      -0.15162990       0.56933777
C       -0.22114283      -0.51698935       0.19887765
C       -0.47843659      -1.41641419      -0.81912671
C       -1.39231668      -0.30324425       1.23145720
C       -1.24594269       0.82475764       0.34151833
O       -0.84590174       1.94238531       0.97660461
H        1.50623092       1.34590015      -0.97366141
H        2.10508795      -0.24786101      -1.41300419
H        3.00139595       0.73180471      -0.25867860
H        1.17831543       0.55932567       1.39835121
H        1.71094607      -1.04527956       0.94268287
H        0.32583897      -1.75301706      -1.46402733
H       -1.36506241      -2.03295929      -0.82363012
H       -1.74324077      -0.20428101      -1.75353587
H       -1.15532542      -0.18171367       2.28751700
H       -2.18836305      -1.00592489       1.02184713
H       -1.84950467       0.43406433      -1.19312135
H       -0.54389819       2.56883007       0.31357190
19
Frame=2 idx=010194 GeodesicLength=0.16977348590392483 rxn_smarts="[C:1]([C:2]([C@@:3]1([C:4]([H:13])([H:14])[H:15])[C:5]([H:16])([H:17])[C@:6]1([O:7][H:19])[H:18])([H:11])[H:12])([H:8])([H:9])[H:10]>>[C:1]([C:2]([C:3](=[C:4]([H:13])[H:14])[C:5]([C:6][O:7][H:19])([H:16])[H:17])([H:11])[H:12])([H:8])([H:9])[H:10].[H:15][H:18]"
C        1.99541900       0.45870666      -0.57477867
C        1.20645839      -0.16864673       0.56842555
C       -0.22031469      -0.52439142       0.19882904
C       -0.48428033      -1.42205260      -0.82261385
C       -1.38296278      -0.29420482       1.22954189
C       -1.24845011       0.83338937       0.33169714
O       -0.85768954       1.95459551       0.96749984
H        1.50687192       1.36395967      -0.94141156
H        2.09552718      -0.22119097      -1.42230568
H        3.00267295       0.72607033      -0.25075479
H        1.18959727       0.52630590       1.41129484
H        1.71392197      -1.07128365       0.91913067
H        0.31727828      -1.75789159      -1.47157236
H       -1.35610480      -2.05985322      -0.80340375
H       -1.73337131      -0.21950470      -1.75919581
H       -1.14036949      -0.16362085       2.28309758
H       -2.19081552      -0.98744634       1.03199636
H       -1.84707483       0.44094326      -1.20004044
H       -0.56631357       2.58611619       0.30456401
19
Frame=3 idx=010194 GeodesicLength=0.25470356084692697 rxn_smarts="[C:1]([C:2]([C@@:3]1([C:4]([H:13])([H:14])[H:15])[C:5]([H:16])([H:17])[C@:6]1([O:7][H:19])[H:18])([H:11])[H:12])([H:8])([H:9])[H:10]>>[C:1]([C:2]([C:3](=[C:4]([H:13])[H:14])[C:5]([C:6][O:7][H:19])([H:16])[H:17])([H:11])[H:12])([H:8])([H:9])[H:10].[H:15][H:18]"
C        1.99322533       0.46509937      -0.56617941
C        1.20923409      -0.18594002       0.56725565
C       -0.21947767      -0.53182013       0.19870660
C       -0.49037393      -1.42790859      -0.82593235
C       -1.37340048      -0.28489709       1.22745575
C       -1.25089678       0.84214305       0.32168524
O       -0.87004484       1.96711086       0.95807845
H        1.50781436       1.38172385      -0.90773532
H        2.08535307      -0.19369272      -1.43107059
H        3.00406433       0.71979850      -0.24297048
H        1.20119723       0.49216275       1.42403785
H        1.71679830      -1.09722386       0.89469268
H        0.30836679      -1.76274807      -1.47917721
H       -1.34611906      -2.08677675      -0.78271931
H       -1.72375328      -0.23502000      -1.76493499
H       -1.12501049      -0.14511504       2.27833570
H       -2.19278192      -0.96860102       1.04233862
H       -1.84461620       0.44811011      -1.20708154
H       -0.58957883       2.60359480       0.29521467
19
Frame=4 idx=010194 GeodesicLength=0.3397415884678495 rxn_smarts="[C:1]([C:2]([C@@:3]1([C:4]([H:13])([H:14])[H:15])[C:5]([H:16])([H:17])[C@:6]1([O:7][H:19])[H:18])([H:11])[H:12])([H:8])([H:9])[H:10]>>[C:1]([C:2]([C:3](=[C:4]([H:13])[H:14])[C:5]([C:6][O:7][H:19])([H:16])[H:17])([H:11])[H:12])([H:8])([H:9])[H:10].[H:15][H:18]"
C        1.99102005       0.47142224      -0.55717674
C        1.21206413      -0.20353207       0.56582972
C       -0.21863106      -0.53928369       0.19852484
C       -0.49671361      -1.43401199      -0.82906285
C       -1.36363278      -0.27529823       1.22523024
C       -1.25331533       0.85103904       0.31147788
O       -0.88305877       1.97995978       0.94833266
H        1.50904008       1.39913986      -0.87258945
H        2.07456282      -0.16532944      -1.43926944
H        3.00557428       0.71300127      -0.23536993
H        1.21311866       0.45682490       1.43657631
H        1.71961258      -1.12310420       0.86935167
H        0.29912271      -1.76762367      -1.48683655
H       -1.33508399      -2.11368651      -0.76161932
H       -1.71435618      -0.25082683      -1.77082636
H       -1.10922937      -0.12615954       2.27326660
H       -2.19425852      -0.94936766       1.05292654
H       -1.84215846       0.45559344      -1.21426920
H       -0.61367722       2.62124330       0.28550341
19
Frame=5 idx=010194 GeodesicLength=0.42461914838213666 rxn_smarts="[C:1]([C:2]([C@@:3]1([C:4]([H:13])([H:14])[H:15])[C:5]([H:16])([H:17])[C@:6]1([O:7][H:19])[H:18])([H:11])[H:12])([H:8])([H:9])[H:10]>>[C:1]([C:2]([C:3](=[C:4]([H:13])[H:14])[C:5]([C:6][O:7][H:19])([H:16])[H:17])([H:11])[H:12])([H:8])([H:9])[H:10].[H:15][H:18]"
C        1.98873066       0.47771269      -0.54769141
C        1.21489144      -0.22137829       0.56410512
C       -0.21779419      -0.54676533       0.19826165
C       -0.50337368      -1.44033614      -0.83195542
C       -1.35358287      -0.26541560       1.22277130
C       -1.25562163       0.86001907       0.30105103
O       -0.89664218       1.99306120       0.93818848
H        1.51050932       1.41610283      -0.83588161
H        2.06308732      -0.13604705      -1.44668722
H        3.00707406       0.70581464      -0.22790686
H        1.22533764       0.42027840       1.44878591
H        1.72224293      -1.14879870       0.84303102
H        0.28941504      -1.77246064      -1.49445234
H       -1.32303083      -2.14051179      -0.74012760
H       -1.70511457      -0.26700518      -1.77678039
H       -1.09291160      -0.10673408       2.26770665
H       -2.19516185      -0.92975718       1.06368813
H       -1.83969024       0.46332385      -1.22151297
H       -0.63836477       2.63889731       0.27540654
19
Frame=6 idx=010194 GeodesicLength=0.5097514963154756 rxn_smarts="[C:1]([C:2]([C@@:3]1([C:4]([H:13])([H:14])[H:15])[C:5]([H:16])([H:17])[C@:6]1([O:7][H:19])[H:18])([H:11])[H:12])([H:8])([H:9])[H:10]>>[C:1]([C:2]([C:3](=[C:4]([H:13])[H:14])[C:5]([C:6][O:7][H:19])([H:16])[H:17])([H:11])[H:12])([H:8])([H:9])[H:10].[H:15][H:18]"
C        1.98643794       0.48390799      -0.53781083
C        1.21778531      -0.23953199       0.56212611
C       -0.21695056      -0.55429303       0.19795965
C       -0.51028030      -1.44692870      -0.83465797
C       -1.34331799      -0.25523194       1.22024304
C       -1.25796843       0.86917481       0.29046305
O       -0.91105457       2.00653217       0.92775836
H        1.51211238       1.43245180      -0.79790299
H        2.05122931      -0.10606444      -1.45335352
H        3.00861580       0.69834511      -0.22062625
H        1.23785673       0.38248526       1.46072606
H        1.72484622      -1.17438612       0.81585611
H        0.27939032      -1.77734788      -1.50214688
H       -1.30994258      -2.16717671      -0.71839813
H       -1.69601245      -0.28345334      -1.78300082
H       -1.07610526      -0.08683864       2.26190670
H       -2.19554590      -0.90976157       1.07479804
H       -1.83736074       0.47146407      -1.22889714
H       -0.66373522       2.65665314       0.26495738
19
Frame=7 idx=010194 GeodesicLength=0.594530687785971 rxn_smarts="[C:1]([C:2]([C@@:3]1([C:4]([H:13])([H:14])[H:15])[C:5]([H:16])([H:17])[C@:6]1([O:7][H:19])[H:18])([H:11])[H:12])([H:8])([H:9])[H:10]>>[C:1]([C:2]([C:3](=[C:4]([H:13])[H:14])[C:5]([C:6][O:7][H:19])([H:16])[H:17])([H:11])[H:12])([H:8])([H:9])[H:10].[H:15][H:18]"
C        1.98397036       0.49013143      -0.52733346
C        1.22063994      -0.25792393       0.55981182
C       -0.21612877      -0.56184287       0.19758053
C       -0.51755943      -1.45379369      -0.83703493
C       -1.33269510      -0.24471780       1.21740824
C       -1.26014598       0.87838692       0.27959517
O       -0.92605226       2.02020922       0.91684366
H        1.51394214       1.44828012      -0.75802082
H        2.03839090      -0.07490393      -1.45905985
H        3.01005688       0.69052258      -0.21353930
H        1.25065453       0.34336314       1.47221766
H        1.72721739      -1.19965951       0.78755961
H        0.26882792      -1.78229312      -1.50962706
H       -1.29586380      -2.19367750      -0.69635299
H       -1.68705131      -0.30042003      -1.78928991
H       -1.05862324      -0.06637350       2.25546661
H       -2.19526065      -0.88933998       1.08604946
H       -1.83490675       0.47979616      -1.23635320
H       -0.68941277       2.67425630       0.25407877
19
Frame=8 idx=010194 GeodesicLength=0.6794786769416086 rxn_smarts="[C:1]([C:2]([C@@:3]1([C:4]([H:13])([H:14])[H:15])[C:5]([H:16])([H:17])[C@:6]1([O:7][H:19])[H:18])([H:11])[H:12])([H:8])([H:9])[H:10]>>[C:1]([C:2]([C:3](=[C:4]([H:13])[H:14])[C:5]([C:6][O:7][H:19])([H:16])[H:17])([H:11])[H:12])([H:8])([H:9])[H:10].[H:15][H:18]"
C        1.98145681       0.49631540      -0.51634375
C        1.22354556      -0.27664742       0.55720406
C       -0.21531112      -0.56944161       0.19715383
C       -0.52513189      -1.46096324      -0.83915613
C       -1.32179398      -0.23384967       1.21445524
C       -1.26233284       0.88776993       0.26850173
O       -0.94191592       2.03423244       0.90552812
H        1.51591791       1.46344291      -0.71652397
H        2.02498293      -0.04276769      -1.46385616
H        3.01150135       0.68243890      -0.20664289
H        1.26372250       0.30281239       1.48334175
H        1.72953645      -1.22476640       0.75825020
H        0.25788733      -1.78732761      -1.51709323
H       -1.28073062      -2.21998715      -0.67409556
H       -1.67828488      -0.31784102      -1.79581680
H       -1.04052044      -0.04532946       2.24866165
H       -2.19439000      -0.86846124       1.09767265
H       -1.83258961       0.48851672      -1.24397346
H       -0.71554955       2.69185380       0.24273272
19
Frame=9 idx=010194 GeodesicLength=0.7644888672106137 rxn_smarts="[C:1]([C:2]([C@@:3]1([C:4]([H:13])([H:14])[H:15])[C:5]([H:16])([H:17])[C@:6]1([O:7][H:19])[H:18])([H:11])[H:12])([H:8])([H:9])[H:10]>>[C:1]([C:2]([C:3](=[C:4]([H:13])[H:14])[C:5]([C:6][O:7][H:19])([H:16])[H:17])([H:11])[H:12])([H:8])([H:9])[H:10].[H:15][H:18]"
C        1.97883433       0.50249941      -0.50476068
C        1.22646684      -0.29568169       0.55427226
C       -0.21450565      -0.57709184       0.19667198
C       -0.53303754      -1.46845536      -0.84097495
C       -1.31054472      -0.22261404       1.21132572
C       -1.26446972       0.89729056       0.25715498
O       -0.95859494       2.04854803       0.89375447
H        1.51800614       1.47786771      -0.67326736
H        2.01088742      -0.00955613      -1.46757656
H        3.01285450       0.67418449      -0.19990906
H        1.27703046       0.26079407       1.49399421
H        1.73173771      -1.24961012       0.72784873
H        0.24649160      -1.79247381      -1.52446002
H       -1.26460803      -2.24604136      -0.65168737
H       -1.66968781      -0.33582894      -1.80255498
H       -1.02167948      -0.02365770       2.24136512
H       -2.19284940      -0.84710967       1.10963924
H       -1.83036850       0.49758335      -1.25172157
H       -0.74196323       2.70935304       0.23088583
19
Frame=10 idx=010194 GeodesicLength=0.8495437529621508 rxn_smarts="[C:1]([C:2]([C@@:3]1([C:4]([H:13])([H:14])[H:15])[C:5]([H:16])([H:17])[C@:6]1([O:7][H:19])[H:18])([H:11])[H:12])([H:8])([H:9])[H:10]>>[C:1]([C:2]([C:3](=[C:4]([H:13])[H:14])[C:5]([C:6][O:7][H:19])([H:16])[H:17])([H:11])[H:12])([H:8])([H:9])[H:10].[H:15][H:18]"
C        1.97608690       0.50869923      -0.49253029
C        1.22940153      -0.31502998       0.55099696
C       -0.21371532      -0.58479979       0.19613275
C       -0.54129190      -1.47628247      -0.84247201
C       -1.29891179      -0.21099247       1.20800688
C       -1.26655391       0.90694799       0.24554083
O       -0.97610746       2.06313390       0.88149200
H        1.52014487       1.49145022      -0.62819924
H        1.99611574       0.02476211      -1.47008539
H        3.01407474       0.66586757      -0.19329791
H        1.29055216       0.21725025       1.50410041
H        1.73382347      -1.27413625       0.69630530
H        0.23461955      -1.79775506      -1.53169704
H       -1.24753125      -2.27179195      -0.62919652
H       -1.66131036      -0.35446936      -1.80949252
H       -1.00201637      -0.00131795       2.23352335
H       -2.19059418      -0.82525680       1.12197302
H       -1.82825801       0.50701176      -1.25960549
H       -0.76852840       2.72670905       0.21850491
19
Frame=11 idx=010194 GeodesicLength=0.9346581747341018 rxn_smarts="[C:1]([C:2]([C@@:3]1([C:4]([H:13])([H:14])[H:15])[C:5]([H:16])([H:17])[C@:6]1([O:7][H:19])[H:18])([H:11])[H:12])([H:8])([H:9])[H:10]>>[C:1]([C:2]([C:3](=[C:4]([H:13])[H:14])[C:5]([C:6][O:7][H:19])([H:16])[H:17])([H:11])[H:12])([H:8])([H:9])[H:10].[H:15][H:18]"
C        1.97319938       0.51493136      -0.47959678
C        1.23234600      -0.33469493       0.54735607
C       -0.21294254      -0.59257310       0.19553275
C       -0.54990659      -1.48445974      -0.84362948
C       -1.28685822      -0.19896690       1.20448691
C       -1.26858340       0.91674351       0.23364511
O       -0.99446638       2.07796700       0.86871117
H        1.52227325       1.50408575      -0.58126940
H        1.98068080       0.06022217      -1.47124599
H        3.01511935       0.65759735      -0.18676162
H        1.30425170       0.17212717       1.51357831
H        1.73579345      -1.29828683       0.66356943
H        0.22225544      -1.80320287      -1.53877547
H       -1.22954194      -2.29719548      -0.60669077
H       -1.65320845      -0.37386314      -1.81661828
H       -0.98144351       0.02172864       2.22508094
H       -2.18757552      -0.80287218       1.13470164
H       -1.82627667       0.51682435      -1.26763396
H       -0.79511616       2.74388786       0.20555942
19
Frame=12 idx=010194 GeodesicLength=1.0198538814266724 rxn_smarts="[C:1]([C:2]([C@@:3]1([C:4]([H:13])([H:14])[H:15])[C:5]([H:16])([H:17])[C@:6]1([O:7][H:19])[H:18])([H:11])[H:12])([H:8])([H:9])[H:10]>>[C:1]([C:2]([C:3](=[C:4]([H:13])[H:14])[C:5]([C:6][O:7][H:19])([H:16])[H:17])([H:11])[H:12])([H:8])([H:9])[H:10].[H:15][H:18]"
C        1.97015733       0.52121188      -0.46590021
C        1.23529704      -0.35467563       0.54332432
C       -0.21218931      -0.60041999       0.19486640
C       -0.55889154      -1.49300264      -0.84443133
C       -1.27434455      -0.18652009       1.20075022
C       -1.27055647       0.92667889       0.22145369
O       -1.01367424       2.09301927       0.85538482
H        1.52431828       1.51566165      -0.53244117
H        1.96460878       0.09684725      -1.47091236
H        3.01594460       0.64949637      -0.18023269
H        1.31808651       0.12538055       1.52233561
H        1.73764893      -1.32199434       0.62959087
H        0.20938446      -1.80885057      -1.54566892
H       -1.21068975      -2.32221203      -0.58424063
H       -1.64546104      -0.39412650      -1.82391169
H       -0.95986724       0.04551861       2.21597370
H       -2.18373980      -0.77992315       1.14785100
H       -1.82444158       0.52704914      -1.27581906
H       -0.82159039       2.76086134       0.19202742
19
Frame=13 idx=010194 GeodesicLength=1.1051579253488002 rxn_smarts="[C:1]([C:2]([C@@:3]1([C:4]([H:13])([H:14])[H:15])[C:5]([H:16])([H:17])[C@:6]1([O:7][H:19])[H:18])([H:11])[H:12])([H:8])([H:9])[H:10]>>[C:1]([C:2]([C:3](=[C:4]([H:13])[H:14])[C:5]([C:6][O:7][H:19])([H:16])[H:17])([H:11])[H:12])([H:8])([H:9])[H:10].[H:15][H:18]"
C        1.96694722       0.52755632      -0.45137647
C        1.23825110      -0.37496621       0.53887222
C       -0.21145753      -0.60834839       0.19412513
C       -0.56825552      -1.50192642      -0.84486258
C       -1.26132932      -0.17363641       1.19677540
C       -1.27247104       0.93675588       0.20895177
O       -1.03371972       2.10825631       0.84148820
H        1.52619656       1.52605888      -0.48169172
H        1.94793944       0.13464900      -1.46893009
H        3.01650655       0.64169832      -0.17362202
H        1.33200602       0.07697793       1.53026817
H        1.73939067      -1.34517983       0.59431898
H        0.19599132      -1.81473105      -1.55235322
H       -1.19102881      -2.34680743      -0.56191496
H       -1.63817420      -0.41539402      -1.83133782
H       -0.93718934       0.07008452       2.20612554
H       -2.17902885      -0.75637501       1.16144263
H       -1.82276590       0.53772055      -1.28417735
H       -0.84780864       2.77760706       0.17789818
19
Frame=14 idx=010194 GeodesicLength=1.1906067070902282 rxn_smarts="[C:1]([C:2]([C@@:3]1([C:4]([H:13])([H:14])[H:15])[C:5]([H:16])([H:17])[C@:6]1([O:7][H:19])[H:18])([H:11])[H:12])([H:8])([H:9])[H:10]>>[C:1]([C:2]([C:3](=[C:4]([H:13])[H:14])[C:5]([C:6][O:7][H:19])([H:16])[H:17])([H:11])[H:12])([H:8])([H:9])[H:10].[H:15][H:18]"
C        1.96355654       0.53397909      -0.43595800
C        1.24120514      -0.39555550       0.53396662
C       -0.21074854      -0.61636625       0.19329814
C       -0.57800437      -1.51124842      -0.84490835
C       -1.24777039      -0.16030155       1.19253547
C       -1.27432581       0.94697720       0.19612330
O       -1.05457832       2.12363932       0.82700022
H        1.52781586       1.53515519      -0.42900865
H        1.93071970       0.17363005      -1.46514076
H        3.01676357       0.63434172      -0.16682162
H        1.34595282       0.02690074       1.53726173
H        1.74102105      -1.36775275       0.55770352
H        0.18206242      -1.82087975      -1.55880664
H       -1.17061673      -2.37095499      -0.53978012
H       -1.63148447      -0.43781968      -1.83884856
H       -0.91330923       0.09545434       2.19544959
H       -2.17338057      -0.73219070       1.17549300
H       -1.82125239       0.54888104      -1.29273375
H       -0.87362625       2.79411089       0.16317485
19
Frame=15 idx=010194 GeodesicLength=1.2762452117963143 rxn_smarts="[C:1]([C:2]([C@@:3]1([C:4]([H:13])([H:14])[H:15])[C:5]([H:16])([H:17])[C@:6]1([O:7][H:19])[H:18])([H:11])[H:12])([H:8])([H:9])[H:10]>>[C:1]([C:2]([C:3](=[C:4]([H:13])[H:14])[C:5]([C:6][O:7][H:19])([H:16])[H:17])([H:11])[H:12])([H:8])([H:9])[H:10].[H:15][H:18]"
C        1.95997434       0.54049262      -0.41957469
C        1.24415580      -0.41642501       0.52856977
C       -0.21006356      -0.62448024       0.19237133
C       -0.58814164      -1.52098688      -0.84455354
C       -1.23362590      -0.14650378       1.18799574
C       -1.27611992       0.95734597       0.18295122
O       -1.07620913       2.13912386       0.81190480
H        1.52907445       1.54282500      -0.37439581
H        1.91300807       0.21377965      -1.45938274
H        3.01667644       0.62756957      -0.15970064
H        1.35986162      -0.02485168       1.54319070
H        1.74254205      -1.38960859       0.51969538
H        0.16758377      -1.82733051      -1.56501066
H       -1.14950944      -2.39463649      -0.51789578
H       -1.62556322      -0.46157861      -1.84637703
H       -0.88812670       0.12164858       2.18384524
H       -2.16672941      -0.70733175       1.19001038
H       -1.81989078       0.56058258      -1.30152177
H       -0.89889683       2.81036571       0.14787812
19
Frame=16 idx=010194 GeodesicLength=1.362130182866359 rxn_smarts="[C:1]([C:2]([C@@:3]1([C:4]([H:13])([H:14])[H:15])[C:5]([H:16])([H:17])[C@:6]1([O:7][H:19])[H:18])([H:11])[H:12])([H:8])([H:9])[H:10]>>[C:1]([C:2]([C:3](=[C:4]([H:13])[H:14])[C:5]([C:6][O:7][H:19])([H:16])[H:17])([H:11])[H:12])([H:8])([H:9])[H:10].[H:15][H:18]"
C        1.95619093       0.54710647      -0.40215573
C        1.24709977      -0.43754746       0.52263969
C       -0.20940354      -0.63269560       0.19132785
C       -0.59866774      -1.53116222      -0.84378167
C       -1.21885597      -0.13223481       1.18311355
C       -1.27785359       0.96786611       0.16941768
O       -1.09855466       2.15466100       0.79619359
H        1.52986132       1.54894126      -0.31787500
H        1.89487217       0.25507253      -1.45149501
H        3.01620933       0.62152478      -0.15210748
H        1.37366043      -0.07825843       1.54791949
H        1.74395595      -1.41062773       0.48024817
H        0.15254143      -1.83411681      -1.57094948
H       -1.12775861      -2.41784306      -0.49631405
H       -1.62061807      -0.48686721      -1.85383561
H       -0.86154541       0.14867798       2.17119865
H       -2.15900778      -0.68175892       1.20499282
H       -1.81864969       0.57288944      -1.31058752
H       -0.92347626       2.82637269       0.13205004
