15
Frame=0 idx=009282 GeodesicLength=0.0 rxn_smarts="[C:1]([C:2]([C:3]([H:12])([H:13])[H:14])([C:4](=[O:5])[C:6]#[C:7][H:15])[H:11])([H:8])([H:9])[H:10]>>[C:1]([C@:2]1([H:11])[C:3]([H:12])([H:13])[C@:6]([C:7][H:15])([H:14])[C:4]1=[O:5])([H:8])([H:9])[H:10]"
C       -1.57054371       0.72837036      -0.88459439
C       -0.19255394       0.08505156      -0.86843440
C       -0.03038060      -1.11795911       0.03537491
C        0.86616761       0.93276739      -0.13928295
O        1.37426513       1.96113561      -0.45785370
C        1.12483859       0.00670685       1.01082484
C        2.14822625      -0.21825497       1.85643815
H       -1.92083398       0.93264140       0.13093052
H       -2.30188727       0.08194496      -1.37208791
H       -1.53586432       1.67704910      -1.42045088
H        0.15628180      -0.11805593      -1.88299777
H       -0.93019350      -1.52077726       0.50111291
H        0.63390683      -1.90922801      -0.29111839
H        0.10886374      -0.34186445       1.40369152
H        2.06970737      -1.17952750       2.37844755
15
Frame=1 idx=009282 GeodesicLength=0.08376318722395985 rxn_smarts="[C:1]([C:2]([C:3]([H:12])([H:13])[H:14])([C:4](=[O:5])[C:6]#[C:7][H:15])[H:11])([H:8])([H:9])[H:10]>>[C:1]([C@:2]1([H:11])[C:3]([H:12])([H:13])[C@:6]([C:7][H:15])([H:14])[C:4]1=[O:5])([H:8])([H:9])[H:10]"
C       -1.56683939       0.72689232      -0.91613181
C       -0.18973363       0.08576732      -0.85232565
C       -0.05370515      -1.10992469       0.06733472
C        0.85012497       0.94291575      -0.11203924
O        1.32343793       1.99621903      -0.40098646
C        1.12815831       0.01095836       1.03124503
C        2.18192930      -0.22331052       1.83088880
H       -1.94315922       0.94853248       0.08619147
H       -2.28392361       0.07112836      -1.41236626
H       -1.52157972       1.66554974      -1.46861355
H        0.18752090      -0.12976368      -1.85438360
H       -0.96693411      -1.48843581       0.52742466
H        0.58173111      -1.92312929      -0.26380394
H        0.10549133      -0.35855941       1.43948469
H        2.16748097      -1.21483996       2.29808113
15
Frame=2 idx=009282 GeodesicLength=0.16738045863913414 rxn_smarts="[C:1]([C:2]([C:3]([H:12])([H:13])[H:14])([C:4](=[O:5])[C:6]#[C:7][H:15])[H:11])([H:8])([H:9])[H:10]>>[C:1]([C@:2]1([H:11])[C:3]([H:12])([H:13])[C@:6]([C:7][H:15])([H:14])[C:4]1=[O:5])([H:8])([H:9])[H:10]"
C       -1.56153640       0.72463701      -0.94807742
C       -0.18676216       0.08646286      -0.83490783
C       -0.07790724      -1.10133672       0.10047342
C        0.83299151       0.95333292      -0.08276007
O        1.27060854       2.02958029      -0.34136133
C        1.13171735       0.01465814       1.05242427
C        2.21487386      -0.22877644       1.80349161
H       -1.96497411       0.96339606       0.03948501
H       -2.26339883       0.05925497      -1.45324877
H       -1.50424744       1.65298470      -1.51660967
H        0.21978584      -0.14144356      -1.82297008
H       -1.00429981      -1.45383002       0.55500037
H        0.52679604      -1.93633010      -0.23513690
H        0.10267584      -0.37664873       1.47661372
H        2.26367702      -1.24594138       2.20758367
15
Frame=3 idx=009282 GeodesicLength=0.2509827250947951 rxn_smarts="[C:1]([C:2]([C:3]([H:12])([H:13])[H:14])([C:4](=[O:5])[C:6]#[C:7][H:15])[H:11])([H:8])([H:9])[H:10]>>[C:1]([C@:2]1([H:11])[C:3]([H:12])([H:13])[C@:6]([C:7][H:15])([H:14])[C:4]1=[O:5])([H:8])([H:9])[H:10]"
C       -1.55460004       0.72179998      -0.97995426
C       -0.18380717       0.08706752      -0.81658722
C       -0.10287230      -1.09261827       0.13393684
C        0.81504797       0.96351451      -0.05195359
O        1.21589083       2.06081784      -0.27934587
C        1.13606023       0.01693654       1.07345159
C        2.24750421      -0.23447662       1.77350651
H       -1.98566329       0.97714640      -0.00851200
H       -2.24062087       0.04679833      -1.49413088
H       -1.48387561       1.63983145      -1.56354115
H        0.25234705      -0.15288175      -1.78935790
H       -1.04196231      -1.41732212       0.58325675
H        0.46887833      -1.94907673      -0.20652882
H        0.10107970      -0.39717272       1.51432426
H        2.35659327      -1.27036435       2.11143575
15
Frame=4 idx=009282 GeodesicLength=0.3346437741862121 rxn_smarts="[C:1]([C:2]([C:3]([H:12])([H:13])[H:14])([C:4](=[O:5])[C:6]#[C:7][H:15])[H:11])([H:8])([H:9])[H:10]>>[C:1]([C@:2]1([H:11])[C:3]([H:12])([H:13])[C@:6]([C:7][H:15])([H:14])[C:4]1=[O:5])([H:8])([H:9])[H:10]"
C       -1.54576543       0.71822357      -1.01190914
C       -0.18074124       0.08747948      -0.79716896
C       -0.12860390      -1.08357181       0.16822750
C        0.79620223       0.97352602      -0.01945681
O        1.15911863       2.08993622      -0.21473898
C        1.14083949       0.01837258       1.09480796
C        2.27922158      -0.24031008       1.74128098
H       -2.00513638       0.98974524      -0.05815957
H       -2.21515734       0.03345007      -1.53509971
H       -1.46006908       1.62584153      -1.60963030
H        0.28546446      -0.16442033      -1.75313472
H       -1.07987922      -1.37850522       0.61262255
H        0.40808603      -1.96101314      -0.17711988
H        0.10038323      -0.41981188       1.55283905
H        2.44603696      -1.28894226       2.00664003
15
Frame=5 idx=009282 GeodesicLength=0.41841860903863204 rxn_smarts="[C:1]([C:2]([C:3]([H:12])([H:13])[H:14])([C:4](=[O:5])[C:6]#[C:7][H:15])[H:11])([H:8])([H:9])[H:10]>>[C:1]([C@:2]1([H:11])[C:3]([H:12])([H:13])[C@:6]([C:7][H:15])([H:14])[C:4]1=[O:5])([H:8])([H:9])[H:10]"
C       -1.53506522       0.71424819      -1.04324212
C       -0.17777843       0.08754079      -0.77724020
C       -0.15494353      -1.07469338       0.20222790
C        0.77694230       0.98255652       0.01384475
O        1.10072728       2.11600167      -0.14842550
C        1.14637531       0.01796913       1.11533056
C        2.30988270      -0.24539254       1.70673572
H       -2.02259058       1.00133863      -0.10839231
H       -2.18759644       0.02001104      -1.57520489
H       -1.43297390       1.61161182      -1.65371237
H        0.31813058      -0.17599905      -1.71524693
H       -1.11761303      -1.33785211       0.64225525
H        0.34426143      -1.97234398      -0.14861003
H        0.10098668      -0.44567908       1.59098010
H        2.53125485      -1.29931765       1.89870008
15
Frame=6 idx=009282 GeodesicLength=0.5024019503803272 rxn_smarts="[C:1]([C:2]([C:3]([H:12])([H:13])[H:14])([C:4](=[O:5])[C:6]#[C:7][H:15])[H:11])([H:8])([H:9])[H:10]>>[C:1]([C@:2]1([H:11])[C:3]([H:12])([H:13])[C@:6]([C:7][H:15])([H:14])[C:4]1=[O:5])([H:8])([H:9])[H:10]"
C       -1.52236283       0.70972438      -1.07399217
C       -0.17475748       0.08716801      -0.75673835
C       -0.18164963      -1.06583195       0.23634136
C        0.75744625       0.99076381       0.04781747
O        1.04085016       2.13911670      -0.08056418
C        1.15234377       0.01658952       1.13559396
C        2.33898154      -0.24988028       1.67041975
H       -2.03790188       1.01178848      -0.15928416
H       -2.15775303       0.00615697      -1.61441895
H       -1.40253868       1.59701997      -1.69584915
H        0.35044782      -0.18795305      -1.67557011
H       -1.15481610      -1.29526923       0.67241787
H        0.27796246      -1.98266780      -0.12023442
H        0.10249358      -0.47422222       1.62883656
H        2.61125407      -1.30250331       1.78522454
15
Frame=7 idx=009282 GeodesicLength=0.586745540676086 rxn_smarts="[C:1]([C:2]([C:3]([H:12])([H:13])[H:14])([C:4](=[O:5])[C:6]#[C:7][H:15])[H:11])([H:8])([H:9])[H:10]>>[C:1]([C@:2]1([H:11])[C:3]([H:12])([H:13])[C@:6]([C:7][H:15])([H:14])[C:4]1=[O:5])([H:8])([H:9])[H:10]"
C       -1.50763390       0.70476751      -1.10386149
C       -0.17167809       0.08621472      -0.73591573
C       -0.20859443      -1.05715088       0.27025578
C        0.73811756       0.99780245       0.08193523
O        0.97979699       2.15882002      -0.01166639
C        1.15866565       0.01411792       1.15537565
C        2.36610260      -0.25342653       1.63295194
H       -2.05064821       1.02121905      -0.21034167
H       -2.12588465      -0.00784166      -1.65229581
H       -1.36884147       1.58225065      -1.73562145
H        0.38201224      -0.20051887      -1.63453965
H       -1.19117796      -1.25089830       0.70284706
H        0.20923945      -1.99193140      -0.09238962
H        0.10474423      -0.50563976       1.66587412
H        2.68577999      -1.29778492       1.66739203
15
Frame=8 idx=009282 GeodesicLength=0.6715354329810549 rxn_smarts="[C:1]([C:2]([C:3]([H:12])([H:13])[H:14])([C:4](=[O:5])[C:6]#[C:7][H:15])[H:11])([H:8])([H:9])[H:10]>>[C:1]([C@:2]1([H:11])[C:3]([H:12])([H:13])[C@:6]([C:7][H:15])([H:14])[C:4]1=[O:5])([H:8])([H:9])[H:10]"
C       -1.49102145       0.69948653      -1.13253220
C       -0.16855088       0.08460497      -0.71506989
C       -0.23549368      -1.04877734       0.30363135
C        0.71938361       1.00352067       0.11557642
O        0.91801647       2.17481957       0.05754061
C        1.16538285       0.01064555       1.17442442
C        2.39116840      -0.25594390       1.59455906
H       -2.06056209       1.02970339      -0.26096014
H       -2.09241979      -0.02177935      -1.68838815
H       -1.33228086       1.56751191      -1.77262551
H        0.41238737      -0.21383908      -1.59271961
H       -1.22618141      -1.20504774       0.73326584
H        0.13849911      -1.99996785      -0.06549906
H        0.10768119      -0.53992742       1.70152681
H        2.75399115      -1.28500991       1.54727005
15
Frame=9 idx=009282 GeodesicLength=0.756743074802005 rxn_smarts="[C:1]([C:2]([C:3]([H:12])([H:13])[H:14])([C:4](=[O:5])[C:6]#[C:7][H:15])[H:11])([H:8])([H:9])[H:10]>>[C:1]([C@:2]1([H:11])[C:3]([H:12])([H:13])[C@:6]([C:7][H:15])([H:14])[C:4]1=[O:5])([H:8])([H:9])[H:10]"
C       -1.47292791       0.69418517      -1.15948630
C       -0.16553019       0.08225829      -0.69474083
C       -0.26207543      -1.04097903       0.33569911
C        0.70178342       1.00754754       0.14780034
O        0.85638708       2.18650820       0.12572173
C        1.17258680       0.00584371       1.19197871
C        2.41409384      -0.25691827       1.55574384
H       -2.06736451       1.03755916      -0.31009584
H       -2.05831271      -0.03506494      -1.72196672
H       -1.29363435       1.55320445      -1.80625090
H        0.44078456      -0.22799314      -1.55115232
H       -1.25927668      -1.15826649       0.76309100
H        0.06604902      -2.00671266      -0.04053062
H        0.11124663      -0.57733653       1.73478098
H        2.81619042      -1.26383545       1.42940783
15
Frame=10 idx=009282 GeodesicLength=0.8423872711492428 rxn_smarts="[C:1]([C:2]([C:3]([H:12])([H:13])[H:14])([C:4](=[O:5])[C:6]#[C:7][H:15])[H:11])([H:8])([H:9])[H:10]>>[C:1]([C@:2]1([H:11])[C:3]([H:12])([H:13])[C@:6]([C:7][H:15])([H:14])[C:4]1=[O:5])([H:8])([H:9])[H:10]"
C       -1.45345975       0.68877805      -1.18479196
C       -0.16248218       0.07918090      -0.67491161
C       -0.28813353      -1.03366868       0.36668103
C        0.68547641       1.01017426       0.17851589
O        0.79525178       2.19411778       0.19258829
C        1.18010804       0.00029026       1.20849515
C        2.43476117      -0.25672911       1.51708851
H       -2.07121320       1.04472006      -0.35769906
H       -2.02364375      -0.04791378      -1.75316130
H       -1.25322544       1.53925018      -1.83668877
H        0.46735946      -0.24311269      -1.50990382
H       -1.29016267      -1.11072423       0.79239748
H       -0.00759289      -2.01188199      -0.01707153
H        0.11504460      -0.61730804       1.76569401
H        2.87191194      -1.23517297       1.31276769
15
Frame=11 idx=009282 GeodesicLength=0.9284834699600341 rxn_smarts="[C:1]([C:2]([C:3]([H:12])([H:13])[H:14])([C:4](=[O:5])[C:6]#[C:7][H:15])[H:11])([H:8])([H:9])[H:10]>>[C:1]([C@:2]1([H:11])[C:3]([H:12])([H:13])[C@:6]([C:7][H:15])([H:14])[C:4]1=[O:5])([H:8])([H:9])[H:10]"
C       -1.43284906       0.68333846      -1.20837397
C       -0.15941629       0.07534869      -0.65572362
C       -0.31360621      -1.02688835       0.39644542
C        0.67063798       1.01140878       0.20747108
O        0.73511943       2.19757328       0.25757550
C        1.18790282      -0.00602151       1.22388956
C        2.45317886      -0.25546482       1.47912335
H       -2.07218787       1.05135878      -0.40346646
H       -1.98881772      -0.06020934      -1.78187071
H       -1.21147855       1.52568233      -1.86397952
H        0.49197893      -0.25929125      -1.46931984
H       -1.31863621      -1.06261425       0.82108791
H       -0.08235295      -2.01533786       0.00477511
H        0.11882775      -0.65973395       1.79397364
H        2.92169911      -1.19914898       1.19839255
15
Frame=12 idx=009282 GeodesicLength=1.0149672950405446 rxn_smarts="[C:1]([C:2]([C:3]([H:12])([H:13])[H:14])([C:4](=[O:5])[C:6]#[C:7][H:15])[H:11])([H:8])([H:9])[H:10]>>[C:1]([C@:2]1([H:11])[C:3]([H:12])([H:13])[C@:6]([C:7][H:15])([H:14])[C:4]1=[O:5])([H:8])([H:9])[H:10]"
C       -1.41138654       0.67791268      -1.23019634
C       -0.15635304       0.07079522      -0.63729442
C       -0.33838532      -1.02065068       0.42489142
C        0.65735453       1.01137795       0.23448341
O        0.67648136       2.19700380       0.32014090
C        1.19598633      -0.01299365       1.23809376
C        2.46952250      -0.25329416       1.44206492
H       -2.07048411       1.05759107      -0.44713912
H       -1.95424570      -0.07190841      -1.80805825
H       -1.16891445       1.51251777      -1.88823047
H        0.51456664      -0.27650736      -1.42970956
H       -1.34446642      -1.01421308       0.84908095
H       -0.15795183      -2.01689437       0.02496353
H        0.12241359      -0.70441230       1.81939796
H        2.96586248      -1.15632449       1.08751131
15
Frame=13 idx=009282 GeodesicLength=1.1017455487545478 rxn_smarts="[C:1]([C:2]([C:3]([H:12])([H:13])[H:14])([C:4](=[O:5])[C:6]#[C:7][H:15])[H:11])([H:8])([H:9])[H:10]>>[C:1]([C@:2]1([H:11])[C:3]([H:12])([H:13])[C@:6]([C:7][H:15])([H:14])[C:4]1=[O:5])([H:8])([H:9])[H:10]"
C       -1.38939645       0.67256476      -1.25024836
C       -0.15335434       0.06555527      -0.61973994
C       -0.36242617      -1.01498247       0.45191247
C        0.64565571       1.01017343       0.25941168
O        0.61985975       2.19258942       0.37975020
C        1.20437751      -0.02062576       1.25097548
C        2.48399935      -0.25032537       1.40612327
H       -2.06634063       1.06356990      -0.48848547
H       -1.92038943      -0.08293513      -1.83170913
H       -1.12605561       1.49977084      -1.90960242
H        0.53502996      -0.29471452      -1.39137651
H       -1.36750733      -0.96579649       0.87630322
H       -0.23420996      -2.01640071       0.04344854
H        0.12562472      -0.75120791       1.84175694
H        3.00513291      -1.10723527       0.98148001
15
Frame=14 idx=009282 GeodesicLength=1.188742321397729 rxn_smarts="[C:1]([C:2]([C:3]([H:12])([H:13])[H:14])([C:4](=[O:5])[C:6]#[C:7][H:15])[H:11])([H:8])([H:9])[H:10]>>[C:1]([C@:2]1([H:11])[C:3]([H:12])([H:13])[C@:6]([C:7][H:15])([H:14])[C:4]1=[O:5])([H:8])([H:9])[H:10]"
C       -1.36707290       0.66725099      -1.26862771
C       -0.15039731       0.05971032      -0.60302999
C       -0.38565920      -1.00982438       0.47758957
C        0.63543721       1.00802863       0.28235086
O        0.56548282       2.18472715       0.43623589
C        1.21307820      -0.02870467       1.26264961
C        2.49682676      -0.24682991       1.37121813
H       -2.06004608       1.06930231      -0.52751701
H       -1.88739179      -0.09341388      -1.85297566
H       -1.08323702       1.48733769      -1.92836998
H        0.55352886      -0.31378955      -1.35434544
H       -1.38765123      -0.91757020       0.90279597
H       -0.31081944      -2.01364944       0.06042687
H        0.12828958      -0.79985755       1.86106702
H        3.03963153      -1.05271752       0.88053187
15
Frame=15 idx=009282 GeodesicLength=1.2758853371156202 rxn_smarts="[C:1]([C:2]([C:3]([H:12])([H:13])[H:14])([C:4](=[O:5])[C:6]#[C:7][H:15])[H:11])([H:8])([H:9])[H:10]>>[C:1]([C@:2]1([H:11])[C:3]([H:12])([H:13])[C@:6]([C:7][H:15])([H:14])[C:4]1=[O:5])([H:8])([H:9])[H:10]"
C       -1.34462856       0.66196310      -1.28541644
C       -0.14750555       0.05331933      -0.58716149
C       -0.40807275      -1.00515774       0.50195837
C        0.62659566       1.00508527       0.30336819
O        0.51362709       2.17378681       0.48939477
C        1.22209491      -0.03714900       1.27313399
C        2.50820682      -0.24296584       1.33732220
H       -2.05186644       1.07484726      -0.56421693
H       -1.85546760      -0.10339517      -1.87197153
H       -1.04077831       1.47514307      -1.94479258
H        0.57014595      -0.33362309      -1.31868154
H       -1.40486207      -0.86974564       0.92857853
H       -0.38758854      -2.00849204       0.07603175
H        0.13023843      -0.85019830       1.87730884
H        3.06986095      -0.99341803       0.78514387
15
Frame=16 idx=009282 GeodesicLength=1.3630685188543317 rxn_smarts="[C:1]([C:2]([C:3]([H:12])([H:13])[H:14])([C:4](=[O:5])[C:6]#[C:7][H:15])[H:11])([H:8])([H:9])[H:10]>>[C:1]([C@:2]1([H:11])[C:3]([H:12])([H:13])[C@:6]([C:7][H:15])([H:14])[C:4]1=[O:5])([H:8])([H:9])[H:10]"
C       -1.32228537       0.65669492      -1.30069473
C       -0.14470981       0.04646306      -0.57213650
C       -0.42963154      -1.00095574       0.52504309
C        0.61901393       1.00149683       0.32252309
O        0.46447410       2.16019582       0.53907888
C        1.23145436      -0.04584186       1.28242238
C        2.51835211      -0.23881410       1.30429560
H       -2.04208333       1.08024456      -0.59857383
H       -1.82482780      -0.11292736      -1.88880694
H       -0.99901306       1.46312762      -1.95911818
H        0.58496437      -0.35405644      -1.28445006
H       -1.41912095      -0.82257547       0.95364219
H       -0.46419182      -2.00080412       0.09041739
H        0.13132354      -0.90203148       1.89047236
H        3.09628127      -0.93021622       0.69588524
