13
Frame=0 idx=008529 GeodesicLength=0.0 rxn_smarts="[O:1]=[C:2]1[C:3]([H:8])([H:9])[O:4][C@@:5]2([H:10])[C:6]([H:11])([H:12])[C@@:7]12[H:13]>>[O:1]1[C@:2]2([C:7](=[C:6]([H:11])[H:12])[H:13])[C:3]([H:8])([H:9])[O:4][C@:5]12[H:10]"
O        0.63977559       1.93828198      -0.30189858
C        0.23634822       0.76307525      -0.15973857
C        1.35059900      -0.34825591      -0.01016331
O        1.25195981      -0.77863579      -1.41774753
C        0.23946684      -0.09000713      -1.75646383
C       -1.37122536      -0.42076451       1.39102586
C       -1.08463434       0.53240187       0.51774884
H        1.18941085      -1.21398267       0.62942135
H        2.32915238       0.10062957       0.13545153
H        0.03733136      -0.11814015      -2.83928538
H       -0.65263170      -1.17602872       1.68901748
H       -2.34548440      -0.47741472       1.86073010
H       -1.82006831       1.28884090       0.26190200
13
Frame=1 idx=008529 GeodesicLength=0.11001287062663945 rxn_smarts="[O:1]=[C:2]1[C:3]([H:8])([H:9])[O:4][C@@:5]2([H:10])[C:6]([H:11])([H:12])[C@@:7]12[H:13]>>[O:1]1[C@:2]2([C:7](=[C:6]([H:11])[H:12])[H:13])[C:3]([H:8])([H:9])[O:4][C@:5]12[H:10]"
O        0.66400777       1.94696089      -0.34659584
C        0.27083790       0.77884943      -0.12293308
C        1.37720558      -0.33557497       0.00249970
O        1.22893485      -0.78428001      -1.39265788
C        0.19063134      -0.10354050      -1.69862296
C       -1.38752155      -0.45909378       1.31565336
C       -1.06263657       0.55675421       0.52238055
H        1.22979622      -1.18683285       0.66457355
H        2.36324198       0.10782839       0.11190936
H       -0.05496298      -0.14309956      -2.77081488
H       -0.66014260      -1.18155486       1.66854616
H       -2.37129994      -0.52373405       1.76417086
H       -1.78809200       1.32731766       0.28189112
13
Frame=2 idx=008529 GeodesicLength=0.220664992334296 rxn_smarts="[O:1]=[C:2]1[C:3]([H:8])([H:9])[O:4][C@@:5]2([H:10])[C:6]([H:11])([H:12])[C@@:7]12[H:13]>>[O:1]1[C@:2]2([C:7](=[C:6]([H:11])[H:12])[H:13])[C:3]([H:8])([H:9])[O:4][C@:5]12[H:10]"
O        0.68343694       1.95080196      -0.39013338
C        0.30230902       0.79346751      -0.08903143
C        1.40080416      -0.32419221       0.01353677
O        1.20684805      -0.78915280      -1.36824952
C        0.14624004      -0.11364719      -1.64244995
C       -1.39636449      -0.48856897       1.24822789
C       -1.04183273       0.57688064       0.52690599
H        1.26632037      -1.16145078       0.69605929
H        2.39302523       0.11291593       0.08983766
H       -0.13994099      -0.16408952      -2.70280121
H       -0.66948049      -1.18636537       1.64890020
H       -2.39187825      -0.56527522       1.66825004
H       -1.75948687       1.35867602       0.30094765
13
Frame=3 idx=008529 GeodesicLength=0.3316087858989112 rxn_smarts="[O:1]=[C:2]1[C:3]([H:8])([H:9])[O:4][C@@:5]2([H:10])[C:6]([H:11])([H:12])[C@@:7]12[H:13]>>[O:1]1[C@:2]2([C:7](=[C:6]([H:11])[H:12])[H:13])[C:3]([H:8])([H:9])[O:4][C@:5]12[H:10]"
O        0.69852484       1.95049346      -0.43148727
C        0.33070440       0.80680523      -0.05808281
C        1.42156331      -0.31395813       0.02316506
O        1.18615751      -0.79337578      -1.34471084
C        0.10630700      -0.12083258      -1.58882263
C       -1.40041715      -0.51198562       1.18768152
C       -1.02294800       0.59311441       0.53012508
H        1.29939427      -1.13792934       0.72411924
H        2.41884698       0.11637880       0.06956922
H       -0.21670338      -0.18084962      -2.63674998
H       -0.67978321      -1.19164836       1.62919834
H       -2.40701120      -0.59998576       1.57824444
H       -1.73463537       1.38377330       0.31775063
13
Frame=4 idx=008529 GeodesicLength=0.44271375524383005 rxn_smarts="[O:1]=[C:2]1[C:3]([H:8])([H:9])[O:4][C@@:5]2([H:10])[C:6]([H:11])([H:12])[C@@:7]12[H:13]>>[O:1]1[C@:2]2([C:7](=[C:6]([H:11])[H:12])[H:13])[C:3]([H:8])([H:9])[O:4][C@:5]12[H:10]"
O        0.71023408       1.94676798      -0.47032608
C        0.35634991       0.81898217      -0.02988502
C        1.43978041      -0.30472285       0.03157140
O        1.16670528      -0.79716526      -1.32208081
C        0.07020212      -0.12563637      -1.53794036
C       -1.40116806      -0.53104692       1.13309151
C       -1.00581756       0.60639986       0.53205703
H        1.32949507      -1.11608737       0.74921111
H        2.44126459       0.11845456       0.05094349
H       -0.28604039      -0.19382512      -2.57323419
H       -0.69010265      -1.19690519       1.61015266
H       -2.41782879      -0.62915776       1.49424429
H       -1.71307401       1.40394227       0.33219495
13
Frame=5 idx=008529 GeodesicLength=0.5538961167486591 rxn_smarts="[O:1]=[C:2]1[C:3]([H:8])([H:9])[O:4][C@@:5]2([H:10])[C:6]([H:11])([H:12])[C@@:7]12[H:13]>>[O:1]1[C@:2]2([C:7](=[C:6]([H:11])[H:12])[H:13])[C:3]([H:8])([H:9])[O:4][C@:5]12[H:10]"
O        0.71932150       1.94029548      -0.50661324
C        0.37956117       0.83012139      -0.00420157
C        1.45577961      -0.29634210       0.03893882
O        1.14836107      -0.80068480      -1.30032979
C        0.03736131      -0.12850552      -1.48982249
C       -1.39964736      -0.54702291       1.08349675
C       -0.99023125       0.61742706       0.53286371
H        1.35707143      -1.09571927       0.77178569
H        2.46080426       0.11938966       0.03379709
H       -0.34878240      -0.20346796      -2.51255485
H       -0.70007176      -1.20187429       1.59210195
H       -2.42517257      -0.65382323       1.41614251
H       -1.69435500       1.42020648       0.34439542
13
Frame=6 idx=008529 GeodesicLength=0.6651338108565995 rxn_smarts="[O:1]=[C:2]1[C:3]([H:8])([H:9])[O:4][C@@:5]2([H:10])[C:6]([H:11])([H:12])[C@@:7]12[H:13]>>[O:1]1[C@:2]2([C:7](=[C:6]([H:11])[H:12])[H:13])[C:3]([H:8])([H:9])[O:4][C@:5]12[H:10]"
O        0.72635187       1.93161469      -0.54048683
C        0.40062606       0.84032971       0.01921325
C        1.46986984      -0.28867236       0.04543035
O        1.13102356      -0.80405337      -1.27936483
C        0.00731476      -0.12979399      -1.44435492
C       -1.39655436      -0.56076197       1.03809631
C       -0.97598518       0.62670691       0.53273160
H        1.38251922      -1.07657826       0.79224583
H        2.47792033       0.11940667       0.01795684
H       -0.40570223      -0.21023326      -2.45478962
H       -0.70959888      -1.20654658       1.57501355
H       -2.42971948      -0.67477406       1.34372564
H       -1.67806551       1.43335587       0.35458282
13
Frame=7 idx=008529 GeodesicLength=0.7763961029704165 rxn_smarts="[O:1]=[C:2]1[C:3]([H:8])([H:9])[O:4][C@@:5]2([H:10])[C:6]([H:11])([H:12])[C@@:7]12[H:13]>>[O:1]1[C@:2]2([C:7](=[C:6]([H:11])[H:12])[H:13])[C:3]([H:8])([H:9])[O:4][C@:5]12[H:10]"
O        0.73175461       1.92116443      -0.57215414
C        0.41980831       0.84971378       0.04059935
C        1.48231550      -0.28159890       0.05118258
O        1.11458906      -0.80736459      -1.25909675
C       -0.02034009      -0.12978812      -1.40137696
C       -1.39234835      -0.57283837       0.99626692
C       -0.96288361       0.63462311       0.53185155
H        1.40616066      -1.05845324       0.81092963
H        2.49298146       0.11868279       0.00326100
H       -0.45751130      -0.21452396      -2.39990699
H       -0.71866623      -1.21091718       1.55884525
H       -2.43203648      -0.69271962       1.27655644
H       -1.66382353       1.44401986       0.36304213
13
Frame=8 idx=008529 GeodesicLength=0.8876679736858548 rxn_smarts="[O:1]=[C:2]1[C:3]([H:8])([H:9])[O:4][C@@:5]2([H:10])[C:6]([H:11])([H:12])[C@@:7]12[H:13]>>[O:1]1[C@:2]2([C:7](=[C:6]([H:11])[H:12])[H:13])[C:3]([H:8])([H:9])[O:4][C@:5]12[H:10]"
O        0.73585927       1.90929687      -0.60184636
C        0.43735022       0.85837627       0.06017874
C        1.49335168      -0.27502725       0.05630608
O        1.09896326      -0.81068662      -1.23943614
C       -0.04594697      -0.12871219      -1.36069578
C       -1.38733977      -0.58363740       0.95753250
C       -0.95075186       0.64147748       0.53040588
H        1.42827158      -1.04116153       0.82811371
H        2.50630519       0.11735511      -0.01044529
H       -0.50487592      -0.21671708      -2.34777945
H       -0.72728468      -1.21500243       1.54354347
H       -2.43260570      -0.70826971       1.21404751
H       -1.65129630       1.45270849       0.37007514
13
Frame=9 idx=008529 GeodesicLength=0.9989319406714561 rxn_smarts="[O:1]=[C:2]1[C:3]([H:8])([H:9])[O:4][C@@:5]2([H:10])[C:6]([H:11])([H:12])[C@@:7]12[H:13]>>[O:1]1[C@:2]2([C:7](=[C:6]([H:11])[H:12])[H:13])[C:3]([H:8])([H:9])[O:4][C@:5]12[H:10]"
O        0.73890793       1.89628722      -0.62977576
C        0.45345856       0.86640310       0.07814940
C        1.50317030      -0.26888131       0.06089221
O        1.08406862      -0.81405807      -1.22030634
C       -0.06978122      -0.12674302      -1.32212253
C       -1.38174947      -0.59343864       0.92149453
C       -0.93944594       0.64749367       0.52853936
H        1.44906643      -1.02455630       0.84401418
H        2.51814152       0.11553057      -0.02328711
H       -0.54836055      -0.21713453      -2.29825048
H       -0.73547760      -1.21882835       1.52903789
H       -2.43179163      -0.72188737       1.15566910
H       -1.64020695       1.45981303       0.37594556
13
Frame=10 idx=008529 GeodesicLength=1.1101918913714452 rxn_smarts="[O:1]=[C:2]1[C:3]([H:8])([H:9])[O:4][C@@:5]2([H:10])[C:6]([H:11])([H:12])[C@@:7]12[H:13]>>[O:1]1[C@:2]2([C:7](=[C:6]([H:11])[H:12])[H:13])[C:3]([H:8])([H:9])[O:4][C@:5]12[H:10]"
O        0.74108588       1.88234290      -0.65614478
C        0.46830069       0.87386573       0.09468127
C        1.51193594      -0.26309978       0.06502455
O        1.06985424      -0.81750085      -1.20163660
C       -0.09207297      -0.12401301      -1.28549398
C       -1.37575533      -0.60245920       0.88780333
C       -0.92885902       0.65282358       0.52634526
H        1.46872734      -1.00851722       0.85881886
H        2.52870251       0.11330088      -0.03534366
H       -0.58841403      -0.21600920      -2.25118582
H       -0.74329216      -1.22247326       1.51518212
H       -2.42986713      -0.73387357       1.10111307
H       -1.63034596       1.46561300       0.38083640
13
Frame=11 idx=008529 GeodesicLength=1.221434585372362 rxn_smarts="[O:1]=[C:2]1[C:3]([H:8])([H:9])[O:4][C@@:5]2([H:10])[C:6]([H:11])([H:12])[C@@:7]12[H:13]>>[O:1]1[C@:2]2([C:7](=[C:6]([H:11])[H:12])[H:13])[C:3]([H:8])([H:9])[O:4][C@:5]12[H:10]"
O        0.74253447       1.86763211      -0.68112516
C        0.48202550       0.88082747       0.10992488
C        1.51978421      -0.25763384       0.06876704
O        1.05627116      -0.82102695      -1.18337142
C       -0.11301069      -0.12063540      -1.25065060
C       -1.36948088      -0.61085670       0.85617379
C       -0.91889790       0.65759477       0.52391102
H        1.48739698      -0.99295048       0.87266858
H        2.53815963       0.11073379      -0.04669463
H       -0.62543199      -0.21355432      -2.20643162
H       -0.75075579      -1.22597288       1.50189191
H       -2.42706104      -0.74449910       1.05001064
H       -1.62153366       1.47034154       0.38492556
13
Frame=12 idx=008529 GeodesicLength=1.3326556048608638 rxn_smarts="[O:1]=[C:2]1[C:3]([H:8])([H:9])[O:4][C@@:5]2([H:10])[C:6]([H:11])([H:12])[C@@:7]12[H:13]>>[O:1]1[C@:2]2([C:7](=[C:6]([H:11])[H:12])[H:13])[C:3]([H:8])([H:9])[O:4][C@:5]12[H:10]"
O        0.74336514       1.85228636      -0.70486931
C        0.49476108       0.88734368       0.12401100
C        1.52683109      -0.25244273       0.07217420
O        1.04327806      -0.82464025      -1.16546222
C       -0.13275463      -0.11669953      -1.21744642
C       -1.36301885      -0.61874971       0.82636251
C       -0.90948365       0.66190667       0.52130726
H        1.50519654      -0.97777743       0.88568139
H        2.54665768       0.10788510      -0.05740434
H       -0.65976064      -0.20995532      -2.16383365
H       -0.75789600      -1.22936422       1.48908170
H       -2.42355648      -0.75397626       1.00203407
H       -1.61361933       1.47418363       0.38836381
13
Frame=13 idx=008529 GeodesicLength=1.44385066564491 rxn_smarts="[O:1]=[C:2]1[C:3]([H:8])([H:9])[O:4][C@@:5]2([H:10])[C:6]([H:11])([H:12])[C@@:7]12[H:13]>>[O:1]1[C@:2]2([C:7](=[C:6]([H:11])[H:12])[H:13])[C:3]([H:8])([H:9])[O:4][C@:5]12[H:10]"
O        0.74366597       1.83640843      -0.72750876
C        0.50661717       0.89346236       0.13705306
C        1.53317470      -0.24749293       0.07529151
O        1.03084059      -0.82833869      -1.14786872
C       -0.15143993      -0.11227903      -1.18574938
C       -1.35643961      -0.62622906       0.79815943
C       -0.90055045       0.66583767       0.51859084
H        1.52222698      -0.96293433       0.89795359
H        2.55431802       0.10480078      -0.06752514
H       -0.69169743      -0.20537049      -2.12324330
H       -0.76473753      -1.23267852       1.47667189
H       -2.41950013      -0.76247270       0.95689863
H       -1.60647836       1.47728651       0.39127635
13
Frame=14 idx=008529 GeodesicLength=1.5550178871808145 rxn_smarts="[O:1]=[C:2]1[C:3]([H:8])([H:9])[O:4][C@@:5]2([H:10])[C:6]([H:11])([H:12])[C@@:7]12[H:13]>>[O:1]1[C@:2]2([C:7](=[C:6]([H:11])[H:12])[H:13])[C:3]([H:8])([H:9])[O:4][C@:5]12[H:10]"
O        0.74350681       1.82008035      -0.74915902
C        0.51768957       0.89922560       0.14915013
C        1.53889924      -0.24275622       0.07815715
O        1.01892672      -0.83211940      -1.13055518
C       -0.16918246      -0.10743550      -1.15543787
C       -1.34979528      -0.63336430       0.77138485
C       -0.89204149       0.66945242       0.51581052
H        1.53857460      -0.94836673       0.90956637
H        2.56124367       0.10151805      -0.07710554
H       -0.72150343      -0.19993766      -2.08451684
H       -0.77130154      -1.23594087       1.46459770
H       -2.41501160      -0.77012726       0.91433394
H       -1.60000480       1.47977152       0.39377381
13
Frame=15 idx=008529 GeodesicLength=1.6661550616358878 rxn_smarts="[O:1]=[C:2]1[C:3]([H:8])([H:9])[O:4][C@@:5]2([H:10])[C:6]([H:11])([H:12])[C@@:7]12[H:13]>>[O:1]1[C@:2]2([C:7](=[C:6]([H:11])[H:12])[H:13])[C:3]([H:8])([H:9])[O:4][C@:5]12[H:10]"
O        0.74294337       1.80336629      -0.76991925
C        0.52806086       0.90466977       0.16038827
C        1.54407660      -0.23820912       0.08080328
O        1.00750940      -0.83597669      -1.11349184
C       -0.18608115      -0.10222133      -1.12640224
C       -1.34312573      -0.64020972       0.74588144
C       -0.88390902       0.67280294       0.51300555
H        1.55431237      -0.93403050       0.92058652
H        2.56752194       0.09806837      -0.08618565
H       -0.74940426      -0.19377483      -2.04751940
H       -0.77760696      -1.23917117       1.45280022
H       -2.41018702      -0.77705081       0.87410507
H       -1.59411040       1.48173681       0.39594803
13
Frame=16 idx=008529 GeodesicLength=1.7772604951388393 rxn_smarts="[O:1]=[C:2]1[C:3]([H:8])([H:9])[O:4][C@@:5]2([H:10])[C:6]([H:11])([H:12])[C@@:7]12[H:13]>>[O:1]1[C@:2]2([C:7](=[C:6]([H:11])[H:12])[H:13])[C:3]([H:8])([H:9])[O:4][C@:5]12[H:10]"
O        0.74202041       1.78631710      -0.78987523
C        0.53780301       0.90982638       0.17084278
C        1.54876877      -0.23383198       0.08325709
O        0.99656447      -0.83990415      -1.09665326
C       -0.20222150      -0.09668143      -1.09854276
C       -1.33646074      -0.64680776       0.72151199
C       -0.87611219       0.67593226       0.51020867
H        1.56950292      -0.91988909       0.93106991
H        2.57322748       0.09447821      -0.09480063
H       -0.77559739      -0.18698391      -2.01212434
H       -0.78367044      -1.24238423       1.44122965
H       -2.40510423      -0.78333458       0.83599934
H       -1.58872056       1.48326320       0.39787678
