10
Frame=0 idx=002795 GeodesicLength=0.0 rxn_smarts="[O:1]1[C@@:2]2([H:7])[C@:3]1([H:8])[C@@:4]1([H:9])[O:5][C@@:6]21[H:10]>>[O+:1]1=[C-:2][C@@:6]2([H:10])[C@@:4]([H:9])([C:3]1([H:7])[H:8])[O:5]2"
O        1.11086812      -0.61783211       1.01406063
C        1.25203310       0.50988193       0.17975830
C        0.37484300      -0.97580158      -0.10729182
C       -0.90305276      -0.10119182      -0.12200321
O       -1.07169548       0.50753431       1.12500515
C       -0.20265152       1.12605315       0.17991120
H        1.10419121      -0.32030058      -0.92327409
H        0.50917671      -1.99756830      -0.44636317
H       -1.75618006      -0.26659266      -0.76591334
H       -0.41753231       2.13581765      -0.13388965
10
Frame=1 idx=002795 GeodesicLength=0.05027198644804753 rxn_smarts="[O:1]1[C@@:2]2([H:7])[C@:3]1([H:8])[C@@:4]1([H:9])[O:5][C@@:6]21[H:10]>>[O+:1]1=[C-:2][C@@:6]2([H:10])[C@@:4]([H:9])([C:3]1([H:7])[H:8])[O:5]2"
O        1.11615391      -0.61558292       1.00983340
C        1.24884310       0.51368470       0.18310050
C        0.37547522      -0.97456404      -0.11250015
C       -0.90256336      -0.10200306      -0.12357232
O       -1.07238408       0.50433066       1.12524489
C       -0.20449225       1.12699626       0.18241246
H        1.12188918      -0.32184902      -0.93329005
H        0.49563566      -2.00323226      -0.43441959
H       -1.75627924      -0.26467688      -0.76741297
H       -0.42227814       2.13689658      -0.12939618
10
Frame=2 idx=002795 GeodesicLength=0.10054590312541163 rxn_smarts="[O:1]1[C@@:2]2([H:7])[C@:3]1([H:8])[C@@:4]1([H:9])[O:5][C@@:6]21[H:10]>>[O+:1]1=[C-:2][C@@:6]2([H:10])[C@@:4]([H:9])([C:3]1([H:7])[H:8])[O:5]2"
O        1.12142913      -0.61333836       1.00547788
C        1.24561450       0.51742607       0.18632506
C        0.37609916      -0.97334657      -0.11786771
C       -0.90210264      -0.10283009      -0.12515463
O       -1.07305907       0.50104262       1.12550145
C       -0.20636837       1.12790035       0.18494298
H        1.13996118      -0.32347775      -0.94327650
H        0.48192199      -2.00856164      -0.42220826
H       -1.75642058      -0.26274622      -0.76890388
H       -0.42707531       2.13793158      -0.12483639
10
Frame=3 idx=002795 GeodesicLength=0.15084360030989316 rxn_smarts="[O:1]1[C@@:2]2([H:7])[C@:3]1([H:8])[C@@:4]1([H:9])[O:5][C@@:6]21[H:10]>>[O+:1]1=[C-:2][C@@:6]2([H:10])[C@@:4]([H:9])([C:3]1([H:7])[H:8])[O:5]2"
O        1.12668350      -0.61110497       1.00100301
C        1.24234627       0.52110414       0.18943708
C        0.37670743      -0.97215953      -0.12339177
C       -0.90167551      -0.10367537      -0.12674297
O       -1.07372412       0.49768059       1.12578505
C       -0.20827993       1.12877047       0.18750149
H        1.15841436      -0.32519581      -0.95322965
H        0.46805702      -2.01353848      -0.40976148
H       -1.75661245      -0.26081092      -0.77037371
H       -0.43191657       2.13892989      -0.12022705
10
Frame=4 idx=002795 GeodesicLength=0.20109520082539484 rxn_smarts="[O:1]1[C@@:2]2([H:7])[C@:3]1([H:8])[C@@:4]1([H:9])[O:5][C@@:6]21[H:10]>>[O+:1]1=[C-:2][C@@:6]2([H:10])[C@@:4]([H:9])([C:3]1([H:7])[H:8])[O:5]2"
O        1.13192454      -0.60887400       0.99639079
C        1.23903637       0.52470311       0.19242763
C        0.37729465      -0.97098794      -0.12907035
C       -0.90128389      -0.10453250      -0.12834144
O       -1.07436941       0.49423467       1.12607267
C       -0.21022729       1.12958567       0.19008541
H        1.17724766      -0.32701492      -0.96312912
H        0.45404470      -2.01811989      -0.39706129
H       -1.75685996      -0.25885147      -0.77182043
H       -0.43680737       2.13985727      -0.11555386
10
Frame=5 idx=002795 GeodesicLength=0.25139551685503136 rxn_smarts="[O:1]1[C@@:2]2([H:7])[C@:3]1([H:8])[C@@:4]1([H:9])[O:5][C@@:6]21[H:10]>>[O+:1]1=[C-:2][C@@:6]2([H:10])[C@@:4]([H:9])([C:3]1([H:7])[H:8])[O:5]2"
O        1.13713913      -0.60665321       0.99166323
C        1.23568460       0.52823622       0.19529665
C        0.37785177      -0.96985780      -0.13489977
C       -0.90093437      -0.10540925      -0.12994285
O       -1.07500688       0.49072048       1.12639581
C       -0.21221117       1.13037001       0.19269704
H        1.19647489      -0.32895304      -0.97298932
H        0.43991290      -2.02232260      -0.38414932
H       -1.75716905      -0.25688774      -0.77324266
H       -0.44174182       2.14075695      -0.11082881
10
Frame=6 idx=002795 GeodesicLength=0.3016770573056728 rxn_smarts="[O:1]1[C@@:2]2([H:7])[C@:3]1([H:8])[C@@:4]1([H:9])[O:5][C@@:6]21[H:10]>>[O+:1]1=[C-:2][C@@:6]2([H:10])[C@@:4]([H:9])([C:3]1([H:7])[H:8])[O:5]2"
O        1.14232496      -0.60444221       0.98681244
C        1.23228745       0.53168136       0.19804481
C        0.37836766      -0.96876283      -0.14086772
C       -0.90063212      -0.10629966      -0.13153984
O       -1.07563021       0.48714362       1.12673787
C       -0.21423121       1.13110529       0.19532995
H        1.21609415      -0.33102595      -0.98277963
H        0.42568751      -2.02608351      -0.37105357
H       -1.75754947      -0.25490932      -0.77462011
H       -0.44671874       2.14159321      -0.10606419
10
Frame=7 idx=002795 GeodesicLength=0.3519514722118783 rxn_smarts="[O:1]1[C@@:2]2([H:7])[C@:3]1([H:8])[C@@:4]1([H:9])[O:5][C@@:6]21[H:10]>>[O+:1]1=[C-:2][C@@:6]2([H:10])[C@@:4]([H:9])([C:3]1([H:7])[H:8])[O:5]2"
O        1.14747831      -0.60223398       0.98183545
C        1.22884421       0.53504205       0.20066310
C        0.37883542      -0.96770027      -0.14697380
C       -0.90038168      -0.10720204      -0.13313318
O       -1.07624432       0.48350463       1.12709904
C       -0.21628910       1.13179259       0.19798477
H        1.23611483      -0.33325230      -0.99249872
H        0.41138489      -2.02940795      -0.35777865
H       -1.75800628      -0.25291484      -0.77595138
H       -0.45173629       2.14237211      -0.10124664
10
Frame=8 idx=002795 GeodesicLength=0.40223900202012963 rxn_smarts="[O:1]1[C@@:2]2([H:7])[C@:3]1([H:8])[C@@:4]1([H:9])[O:5][C@@:6]21[H:10]>>[O+:1]1=[C-:2][C@@:6]2([H:10])[C@@:4]([H:9])([C:3]1([H:7])[H:8])[O:5]2"
O        1.15259247      -0.60003424       0.97674928
C        1.22535104       0.53831555       0.20315583
C        0.37924196      -0.96668427      -0.15320375
C       -0.90018942      -0.10811872      -0.13471376
O       -1.07684642       0.47981805       1.12749395
C       -0.21838428       1.13243969       0.20065917
H        1.25653401      -0.33564770      -1.00213749
H        0.39703992      -2.03228083      -0.34437698
H       -1.75854818      -0.25091157      -0.77722871
H       -0.45679110       2.14310404      -0.09639753
10
Frame=9 idx=002795 GeodesicLength=0.452535646724061 rxn_smarts="[O:1]1[C@@:2]2([H:7])[C@:3]1([H:8])[C@@:4]1([H:9])[O:5][C@@:6]21[H:10]>>[O+:1]1=[C-:2][C@@:6]2([H:10])[C@@:4]([H:9])([C:3]1([H:7])[H:8])[O:5]2"
O        1.15766068      -0.59784042       0.97155631
C        1.22180687       0.54149715       0.20552088
C        0.37957514      -0.96571601      -0.15954646
C       -0.90006345      -0.10904725      -0.13627385
O       -1.07744087       0.47609488       1.12792361
C       -0.22051749       1.13304592       0.20335080
H        1.27735708      -0.33823524      -1.01168181
H        0.38268715      -2.03468641      -0.33088736
H       -1.75918564      -0.24889842      -0.77843837
H       -0.46187947       2.14378579      -0.09152375
10
Frame=10 idx=002795 GeodesicLength=0.5028352984414738 rxn_smarts="[O:1]1[C@@:2]2([H:7])[C@:3]1([H:8])[C@@:4]1([H:9])[O:5][C@@:6]21[H:10]>>[O+:1]1=[C-:2][C@@:6]2([H:10])[C@@:4]([H:9])([C:3]1([H:7])[H:8])[O:5]2"
O        1.16267817      -0.59565064       0.96626051
C        1.21820873       0.54458263       0.20775666
C        0.37982361      -0.96479675      -0.16599024
C       -0.90000993      -0.10998515      -0.13780656
O       -1.07802757       0.47234503       1.12839000
C       -0.22268956       1.13361113       0.20605696
H        1.29858686      -0.34103520      -1.02111660
H        0.36835673      -2.03661098      -0.31734871
H       -1.75992705      -0.24687494      -0.77956884
H       -0.46699998       2.14441486      -0.08663318
10
Frame=11 idx=002795 GeodesicLength=0.5531329366712884 rxn_smarts="[O:1]1[C@@:2]2([H:7])[C@:3]1([H:8])[C@@:4]1([H:9])[O:5][C@@:6]21[H:10]>>[O+:1]1=[C-:2][C@@:6]2([H:10])[C@@:4]([H:9])([C:3]1([H:7])[H:8])[O:5]2"
O        1.16763597      -0.59346326       0.96086971
C        1.21455393       0.54756877       0.20986535
C        0.37997365      -0.96392643      -0.17252085
C       -0.90003744      -0.11092989      -0.13930149
O       -1.07860904       0.46858382       1.12889792
C       -0.22490114       1.13413749       0.20877486
H        1.32022223      -0.34406688      -1.03042682
H        0.35409106      -2.03805272      -0.30381372
H       -1.76078329      -0.24484221      -0.78060446
H       -0.47214592       2.14499131      -0.08174050
10
Frame=12 idx=002795 GeodesicLength=0.6034601600917603 rxn_smarts="[O:1]1[C@@:2]2([H:7])[C@:3]1([H:8])[C@@:4]1([H:9])[O:5][C@@:6]21[H:10]>>[O+:1]1=[C-:2][C@@:6]2([H:10])[C@@:4]([H:9])([C:3]1([H:7])[H:8])[O:5]2"
O        1.17252854      -0.59127538       0.95539395
C        1.21084182       0.55046311       0.21184574
C        0.38001438      -0.96311162      -0.17912941
C       -0.90015325      -0.11188257      -0.14075239
O       -1.07918973       0.46482274       1.12946079
C       -0.22715286       1.13463567       0.21150453
H        1.34227211      -0.34735069      -1.03960771
H        0.33991703      -2.03902471      -0.29032453
H       -1.76176348      -0.24280821      -0.78153920
H       -0.47731455       2.14553164      -0.07685177
10
Frame=13 idx=002795 GeodesicLength=0.6537299866610348 rxn_smarts="[O:1]1[C@@:2]2([H:7])[C@:3]1([H:8])[C@@:4]1([H:9])[O:5][C@@:6]21[H:10]>>[O+:1]1=[C-:2][C@@:6]2([H:10])[C@@:4]([H:9])([C:3]1([H:7])[H:8])[O:5]2"
O        1.17735605      -0.58908626       0.94982424
C        1.20706453       0.55324366       0.21369705
C        0.37993419      -0.96233653      -0.18579761
C       -0.90036254      -0.11283095      -0.14214935
O       -1.07975872       0.46107120       1.13005870
C       -0.22944797       1.13508809       0.21423767
H        1.36472818      -0.35091043      -1.04861789
H        0.32587540      -2.03948590      -0.27692480
H       -1.76287716      -0.24075325      -0.78234806
H       -0.48251196       2.14600036      -0.07197995
10
Frame=14 idx=002795 GeodesicLength=0.7040348892531287 rxn_smarts="[O:1]1[C@@:2]2([H:7])[C@:3]1([H:8])[C@@:4]1([H:9])[O:5][C@@:6]21[H:10]>>[O+:1]1=[C-:2][C@@:6]2([H:10])[C@@:4]([H:9])([C:3]1([H:7])[H:8])[O:5]2"
O        1.18211607      -0.58688289       0.94416938
C        1.20322540       0.55593882       0.21540706
C        0.37972770      -0.96161348      -0.19252736
C       -0.90067112      -0.11378297      -0.14349378
O       -1.08032948       0.45733284       1.13071810
C       -0.23178783       1.13551847       0.21697974
H        1.38761572      -0.35476562      -1.05747537
H        0.31196762      -2.03949491      -0.26362704
H       -1.76412642      -0.23869193      -0.78304536
H       -0.48773766       2.14644167      -0.06710537
10
Frame=15 idx=002795 GeodesicLength=0.754338051848702 rxn_smarts="[O:1]1[C@@:2]2([H:7])[C@:3]1([H:8])[C@@:4]1([H:9])[O:5][C@@:6]21[H:10]>>[O+:1]1=[C-:2][C@@:6]2([H:10])[C@@:4]([H:9])([C:3]1([H:7])[H:8])[O:5]2"
O        1.18680167      -0.58466658       0.93843292
C        1.19932009       0.55853947       0.21698289
C        0.37938121      -0.96093378      -0.19930423
C       -0.90108705      -0.11473120      -0.14477329
O       -1.08089732       0.45362338       1.13143686
C       -0.23417340       1.13592316       0.21972624
H        1.41093204      -0.35893501      -1.06615139
H        0.29823744      -2.03903909      -0.25049210
H       -1.76552582      -0.23662163      -0.78360560
H       -0.49298886       2.14684128      -0.06225229
10
Frame=16 idx=002795 GeodesicLength=0.8046375106904953 rxn_smarts="[O:1]1[C@@:2]2([H:7])[C@:3]1([H:8])[C@@:4]1([H:9])[O:5][C@@:6]21[H:10]>>[O+:1]1=[C-:2][C@@:6]2([H:10])[C@@:4]([H:9])([C:3]1([H:7])[H:8])[O:5]2"
O        1.19141597      -0.58243207       0.93260620
C        1.19534556       0.56105168       0.21841498
C        0.37889232      -0.96029304      -0.20612801
C       -0.90161218      -0.11567275      -0.14598615
O       -1.08146034       0.44994161       1.13221752
C       -0.23660854       1.13630574       0.22247844
H        1.43469240      -0.36343662      -1.07463397
H        0.28468900      -2.03813452      -0.23752851
H       -1.76707586      -0.23453328      -0.78402712
H       -0.49827833       2.14720323      -0.05741338
