13
Frame=0 idx=009297 GeodesicLength=0.0 rxn_smarts="[C:1]([O:2][C:3](=[O:4])[C:5]([C:6](=[O:7])[H:13])([H:11])[H:12])([H:8])([H:9])[H:10]>>[C:1]([O+:2]=[C-:3][O:4][C@:6]1([H:13])[C:5]([H:11])([H:12])[O:7]1)([H:8])([H:9])[H:10]"
C       -2.43931872       0.30226908       0.18032842
O       -1.56702739      -0.68077099      -0.41831986
C       -0.27928897      -0.50442383      -0.38593700
O        0.11776538       0.56417638       0.20317212
C        1.91250507      -0.87700186      -0.20998697
C        1.67569116       0.53368992      -0.05144779
O        2.51528374       0.59306882       0.92243763
H       -2.32354211       1.26151974      -0.32168455
H       -3.44576908      -0.08269567       0.04368749
H       -2.20988253       0.41363082       1.23883758
H        2.62103006      -1.25669523      -0.93935500
H        1.65732032      -1.50220865       0.62752423
H        1.76523306       1.23544142      -0.88925635
13
Frame=1 idx=009297 GeodesicLength=0.057979607453799285 rxn_smarts="[C:1]([O:2][C:3](=[O:4])[C:5]([C:6](=[O:7])[H:13])([H:11])[H:12])([H:8])([H:9])[H:10]>>[C:1]([O+:2]=[C-:3][O:4][C@:6]1([H:13])[C:5]([H:11])([H:12])[O:7]1)([H:8])([H:9])[H:10]"
C       -2.43939977       0.29042892       0.18488088
O       -1.55753665      -0.68406870      -0.41255137
C       -0.27356267      -0.47430681      -0.41541713
O        0.11278012       0.59898695       0.16994228
C        1.89425158      -0.87416032      -0.20242471
C        1.69243155       0.54415082      -0.04618889
O        2.52841163       0.56887777       0.93151939
H       -2.35002562       1.24525167      -0.33087609
H       -3.44031001      -0.11510680       0.06849026
H       -2.19644761       0.42050713       1.23825234
H        2.59542260      -1.26371472      -0.93400960
H        1.62565644      -1.50194989       0.62945261
H        1.80832840       1.24510396      -0.88106998
13
Frame=2 idx=009297 GeodesicLength=0.11578277919627306 rxn_smarts="[C:1]([O:2][C:3](=[O:4])[C:5]([C:6](=[O:7])[H:13])([H:11])[H:12])([H:8])([H:9])[H:10]>>[C:1]([O+:2]=[C-:3][O:4][C@:6]1([H:13])[C:5]([H:11])([H:12])[O:7]1)([H:8])([H:9])[H:10]"
C       -2.43861915       0.27927171       0.18865370
O       -1.54698987      -0.68791070      -0.40503038
C       -0.26817792      -0.44659567      -0.44120030
O        0.10771673       0.63199085       0.13887644
C        1.87585977      -0.87073763      -0.19568276
C        1.70796793       0.55399661      -0.03998569
O        2.54125264       0.54447305       0.93954708
H       -2.37418768       1.22820432      -0.34158581
H       -3.43344083      -0.14588488       0.09163266
H       -2.18424895       0.42956606       1.23665240
H        2.56899240      -1.26859282      -0.93077719
H        1.59605193      -1.50187379       0.63046665
H        1.84782300       1.25409288      -0.87156680
13
Frame=3 idx=009297 GeodesicLength=0.1733880353330704 rxn_smarts="[C:1]([O:2][C:3](=[O:4])[C:5]([C:6](=[O:7])[H:13])([H:11])[H:12])([H:8])([H:9])[H:10]>>[C:1]([O+:2]=[C-:3][O:4][C@:6]1([H:13])[C:5]([H:11])([H:12])[O:7]1)([H:8])([H:9])[H:10]"
C       -2.43730605       0.26888326       0.19165330
O       -1.53573387      -0.69216125      -0.39583302
C       -0.26312752      -0.42147613      -0.46315123
O        0.10252691       0.66297735       0.11015043
C        1.85769088      -0.86681673      -0.18969068
C        1.72244448       0.56322828      -0.03293336
O        2.55419341       0.51995583       0.94629156
H       -2.39609873       1.21059071      -0.35366101
H       -3.42567294      -0.17473696       0.11295282
H       -2.17370270       0.44053960       1.23409689
H        2.54215719      -1.27137187      -0.92957526
H        1.56892031      -1.50211574       0.63070017
H        1.88370863       1.26250365      -0.86100061
13
Frame=4 idx=009297 GeodesicLength=0.23087851064591663 rxn_smarts="[C:1]([O:2][C:3](=[O:4])[C:5]([C:6](=[O:7])[H:13])([H:11])[H:12])([H:8])([H:9])[H:10]>>[C:1]([O+:2]=[C-:3][O:4][C@:6]1([H:13])[C:5]([H:11])([H:12])[O:7]1)([H:8])([H:9])[H:10]"
C       -2.43555321       0.25910762       0.19411348
O       -1.52393213      -0.69643904      -0.38567416
C       -0.25834597      -0.39847621      -0.48210795
O        0.09717907       0.69235283       0.08293016
C        1.83974725      -0.86249451      -0.18416724
C        1.73606311       0.57193828      -0.02526501
O        2.56705389       0.49544327       0.95188067
H       -2.41622366       1.19261400      -0.36636034
H       -3.41717883      -0.20189196       0.13284402
H       -2.16442062       0.45262237       1.23079681
H        2.51517040      -1.27251977      -0.92968419
H        1.54373798      -1.50255593       0.63046377
H        1.91670274       1.27029906      -0.84977002
13
Frame=5 idx=009297 GeodesicLength=0.2882022835283773 rxn_smarts="[C:1]([O:2][C:3](=[O:4])[C:5]([C:6](=[O:7])[H:13])([H:11])[H:12])([H:8])([H:9])[H:10]>>[C:1]([O+:2]=[C-:3][O:4][C@:6]1([H:13])[C:5]([H:11])([H:12])[O:7]1)([H:8])([H:9])[H:10]"
C       -2.43358126       0.24998194       0.19606992
O       -1.51186379      -0.70074423      -0.37450378
C       -0.25384461      -0.37763892      -0.49828117
O        0.09164581       0.72005622       0.05716026
C        1.82224199      -0.85782597      -0.17905809
C        1.74894773       0.58013129      -0.01697888
O        2.58009856       0.47092685       0.95627845
H       -2.43468685       1.17435339      -0.37975153
H       -3.40830482      -0.22729400       0.15142931
H       -2.15655740       0.46578585       1.22680443
H        2.48830749      -1.27203953      -0.93101252
H        1.52063993      -1.50332140       0.62976742
H        1.94695724       1.27762852      -0.83792383
13
Frame=6 idx=009297 GeodesicLength=0.3454904926062512 rxn_smarts="[C:1]([O:2][C:3](=[O:4])[C:5]([C:6](=[O:7])[H:13])([H:11])[H:12])([H:8])([H:9])[H:10]>>[C:1]([O+:2]=[C-:3][O:4][C@:6]1([H:13])[C:5]([H:11])([H:12])[O:7]1)([H:8])([H:9])[H:10]"
C       -2.43134111       0.24133092       0.19775281
O       -1.49953333      -0.70487740      -0.36273565
C       -0.24957846      -0.35839177      -0.51268272
O        0.08591885       0.74658745       0.03184104
C        1.80501967      -0.85284923      -0.17420445
C        1.76121816       0.58787774      -0.00812208
O        2.59293043       0.44630091       0.95986588
H       -2.45200954       1.15570153      -0.39353549
H       -3.39895925      -0.25141334       0.16948032
H       -2.14950622       0.47979283       1.22219406
H        2.46167396      -1.27023319      -0.93303201
H        1.49889266      -1.50433799       0.62866255
H        1.97527418       1.28451156      -0.82548426
13
Frame=7 idx=009297 GeodesicLength=0.4028410325189042 rxn_smarts="[C:1]([O:2][C:3](=[O:4])[C:5]([C:6](=[O:7])[H:13])([H:11])[H:12])([H:8])([H:9])[H:10]>>[C:1]([O+:2]=[C-:3][O:4][C@:6]1([H:13])[C:5]([H:11])([H:12])[O:7]1)([H:8])([H:9])[H:10]"
C       -2.42866471       0.23297019       0.19942970
O       -1.48695438      -0.70858156      -0.35113756
C       -0.24552089      -0.34025651      -0.52647110
O        0.07999202       0.77242190       0.00574862
C        1.78784300      -0.84758594      -0.16937259
C        1.77288851       0.59525160       0.00122136
O        2.60498195       0.42160198       0.96306196
H       -2.46860087       1.13670999      -0.40709914
H       -3.38892049      -0.27464195       0.18775087
H       -2.14244809       0.49409517       1.21713485
H        2.43537947      -1.26743329      -0.93503317
H        1.47765421      -1.50543360       0.62731122
H        2.00237026       1.29088201      -0.81254503
13
Frame=8 idx=009297 GeodesicLength=0.4601655792927499 rxn_smarts="[C:1]([O:2][C:3](=[O:4])[C:5]([C:6](=[O:7])[H:13])([H:11])[H:12])([H:8])([H:9])[H:10]>>[C:1]([O+:2]=[C-:3][O:4][C@:6]1([H:13])[C:5]([H:11])([H:12])[O:7]1)([H:8])([H:9])[H:10]"
C       -2.42576439       0.22505452       0.20095041
O       -1.47428707      -0.71208067      -0.33911939
C       -0.24167283      -0.32356291      -0.53898022
O        0.07384337       0.79715207      -0.02039648
C        1.77099127      -0.84207487      -0.16470480
C        1.78398195       0.60222481       0.01112068
O        2.61670884       0.39682489       0.96559690
H       -2.48424906       1.11737632      -0.42086659
H       -3.37851494      -0.29662352       0.20580651
H       -2.13595681       0.50907013       1.21150991
H        2.40953480      -1.26345232      -0.93744828
H        1.45757978      -1.50683499       0.62555582
H        2.02780510       1.29692655      -0.79902446
13
Frame=9 idx=009297 GeodesicLength=0.5175152395932779 rxn_smarts="[C:1]([O:2][C:3](=[O:4])[C:5]([C:6](=[O:7])[H:13])([H:11])[H:12])([H:8])([H:9])[H:10]>>[C:1]([O+:2]=[C-:3][O:4][C@:6]1([H:13])[C:5]([H:11])([H:12])[O:7]1)([H:8])([H:9])[H:10]"
C       -2.42257772       0.21751988       0.20243524
O       -1.46154106      -0.71530540      -0.32690112
C       -0.23802038      -0.30810515      -0.55074704
O        0.06747397       0.82095539      -0.04719598
C        1.75437764      -0.83633412      -0.16013810
C        1.79448716       0.60882108       0.02160334
O        2.62783856       0.37193754       0.96769945
H       -2.49918280       1.09763683      -0.43469089
H       -3.36765107      -0.31752963       0.22409849
H       -2.12965669       0.52464537       1.20533198
H        2.38423022      -1.25838812      -0.94002449
H        1.43831948      -1.50853252       0.62336185
H        2.05190271       1.30267885      -0.78483274
13
Frame=10 idx=009297 GeodesicLength=0.5749777867442554 rxn_smarts="[C:1]([O:2][C:3](=[O:4])[C:5]([C:6](=[O:7])[H:13])([H:11])[H:12])([H:8])([H:9])[H:10]>>[C:1]([O+:2]=[C-:3][O:4][C@:6]1([H:13])[C:5]([H:11])([H:12])[O:7]1)([H:8])([H:9])[H:10]"
C       -2.41892938       0.21027142       0.20404793
O       -1.44868497      -0.71814572      -0.31495174
C       -0.23454031      -0.29363365      -0.56250968
O        0.06088528       0.84407033      -0.07546643
C        1.73781554      -0.83037123      -0.15556118
C        1.80432244       0.61509337       0.03266734
O        2.63790412       0.34696849       0.96972226
H       -2.51361221       1.07749921      -0.44822195
H       -3.35608322      -0.33757893       0.24315105
H       -2.12295134       0.54056635       1.19867847
H        2.35952000      -1.25241603      -0.94238741
H        1.41934505      -1.51044534       0.62076333
H        2.07500900       1.30812172      -0.76993199
13
Frame=11 idx=009297 GeodesicLength=0.6324373743864541 rxn_smarts="[C:1]([O:2][C:3](=[O:4])[C:5]([C:6](=[O:7])[H:13])([H:11])[H:12])([H:8])([H:9])[H:10]>>[C:1]([O+:2]=[C-:3][O:4][C@:6]1([H:13])[C:5]([H:11])([H:12])[O:7]1)([H:8])([H:9])[H:10]"
C       -2.41506895       0.20348048       0.20562329
O       -1.43585153      -0.72082312      -0.30253039
C       -0.23124832      -0.28050226      -0.57350581
O        0.05407079       0.86605716      -0.10444385
C        1.72161285      -0.82424098      -0.15115382
C        1.81352287       0.62098581       0.04442115
O        2.64741882       0.32187850       0.97133957
H       -2.52735660       1.05687389      -0.46198958
H       -3.34417695      -0.35638876       0.26256169
H       -2.11649634       0.55736083       1.19135065
H        2.33552547      -1.24529440      -0.94503562
H        1.40138400      -1.51285617       0.61752590
H        2.09666389       1.31346905      -0.75416318
13
Frame=12 idx=009297 GeodesicLength=0.6898300884347929 rxn_smarts="[C:1]([O:2][C:3](=[O:4])[C:5]([C:6](=[O:7])[H:13])([H:11])[H:12])([H:8])([H:9])[H:10]>>[C:1]([O+:2]=[C-:3][O:4][C@:6]1([H:13])[C:5]([H:11])([H:12])[O:7]1)([H:8])([H:9])[H:10]"
C       -2.41111443       0.19720300       0.20711940
O       -1.42312334      -0.72338107      -0.28942227
C       -0.22813526      -0.26880216      -0.58351368
O        0.04703336       0.88675013      -0.13389304
C        1.70589982      -0.81799369      -0.14694420
C        1.82212368       0.62649608       0.05687698
O        2.65659843       0.29670526       0.97240636
H       -2.54035726       1.03579189      -0.47606954
H       -3.33213472      -0.37379669       0.28214443
H       -2.11053263       0.57508109       1.18330547
H        2.31232923      -1.23700961      -0.94807899
H        1.38468566      -1.51587326       0.61359735
H        2.11672746       1.31882902      -0.73752826
13
Frame=13 idx=009297 GeodesicLength=0.7471013986289216 rxn_smarts="[C:1]([O:2][C:3](=[O:4])[C:5]([C:6](=[O:7])[H:13])([H:11])[H:12])([H:8])([H:9])[H:10]>>[C:1]([O+:2]=[C-:3][O:4][C@:6]1([H:13])[C:5]([H:11])([H:12])[O:7]1)([H:8])([H:9])[H:10]"
C       -2.40709729       0.19142541       0.20854739
O       -1.41057050      -0.72577432      -0.27578482
C       -0.22517345      -0.25848395      -0.59258804
O        0.03978680       0.90611044      -0.16378814
C        1.69069905      -0.81166511      -0.14285313
C        1.83016545       0.63164434       0.06995457
O        2.66552974       0.27158254       0.97283807
H       -2.55257168       1.01444288      -0.49021540
H       -3.32007128      -0.38975065       0.30171205
H       -2.10505491       0.59339726       1.17464117
H        2.28994406      -1.22770283      -0.95137443
H        1.36923795      -1.51942964       0.60908244
H        2.13517606       1.32420364      -0.72017173
13
Frame=14 idx=009297 GeodesicLength=0.804288423008284 rxn_smarts="[C:1]([O:2][C:3](=[O:4])[C:5]([C:6](=[O:7])[H:13])([H:11])[H:12])([H:8])([H:9])[H:10]>>[C:1]([O+:2]=[C-:3][O:4][C@:6]1([H:13])[C:5]([H:11])([H:12])[O:7]1)([H:8])([H:9])[H:10]"
C       -2.40302261       0.18616674       0.20994215
O       -1.39815667      -0.72800212      -0.26139172
C       -0.22237357      -0.24950455      -0.60084219
O        0.03233310       0.92411800      -0.19436531
C        1.67602145      -0.80528858      -0.13895321
C        1.83761151       0.63640227       0.08378108
O        2.67411456       0.24639296       0.97275109
H       -2.56415528       0.99258268      -0.50461760
H       -3.30794675      -0.40427273       0.32160341
H       -2.09999234       0.61265027       1.16517331
H        2.26845281      -1.21728893      -0.95500396
H        1.35502802      -1.52367515       0.60375471
H        2.15208575       1.32971913      -0.70183177
13
Frame=15 idx=009297 GeodesicLength=0.8614160064698047 rxn_smarts="[C:1]([O:2][C:3](=[O:4])[C:5]([C:6](=[O:7])[H:13])([H:11])[H:12])([H:8])([H:9])[H:10]>>[C:1]([O+:2]=[C-:3][O:4][C@:6]1([H:13])[C:5]([H:11])([H:12])[O:7]1)([H:8])([H:9])[H:10]"
C       -2.39889377       0.18145509       0.21133287
O       -1.38583426      -0.73008394      -0.24603898
C       -0.21973555      -0.24185865      -0.60838048
O        0.02468842       0.94075272      -0.22583206
C        1.66188007      -0.79890966      -0.13530709
C        1.84441974       0.64074751       0.09846430
O        2.68226351       0.22106988       0.97226586
H       -2.57520856       0.97003315      -0.51944442
H       -3.29572443      -0.41736287       0.34210443
H       -2.09531616       0.63312079       1.15477528
H        2.24790866      -1.20569988      -0.95905570
H        1.34206618      -1.52875632       0.59739965
H        2.16748615       1.33549218      -0.68228366
13
Frame=16 idx=009297 GeodesicLength=0.9185244561593499 rxn_smarts="[C:1]([O:2][C:3](=[O:4])[C:5]([C:6](=[O:7])[H:13])([H:11])[H:12])([H:8])([H:9])[H:10]>>[C:1]([O+:2]=[C-:3][O:4][C@:6]1([H:13])[C:5]([H:11])([H:12])[O:7]1)([H:8])([H:9])[H:10]"
C       -2.39456708       0.17726246       0.21280420
O       -1.37357961      -0.73192232      -0.22997008
C       -0.21726624      -0.23546345      -0.61558177
O        0.01687452       0.95600632      -0.25868833
C        1.64816050      -0.79254323      -0.13187935
C        1.85045689       0.64467527       0.11407002
O        2.68968548       0.19565209       0.97156696
H       -2.58583183       0.94671385      -0.53446395
H       -3.28320202      -0.42903673       0.36356342
H       -2.09060990       0.65472877       1.14335015
H        2.22834913      -1.19296122      -0.96334875
H        1.33009867      -1.53465667       0.58993698
H        2.18143148       1.34154486      -0.66135950
