12
Frame=0 idx=007455 GeodesicLength=0.0 rxn_smarts="[O:1]([C:2]([c:3]1[n:4][o:5][c:6]([H:11])[c:7]1[H:12])([H:9])[H:10])[H:8]>>[O:1]([C:2]([C:3](=[C:7]1[N-:4][O+:5]=[C:6]1[H:11])[H:12])([H:9])[H:10])[H:8]"
O       -2.04019877       0.65980460      -0.03313814
C       -1.59454495      -0.66119496       0.15625200
C       -0.16196669      -0.96069274       0.32987915
N        0.65173728       1.39392395      -0.52103290
O        2.09660582       1.23893222      -0.71061003
C        2.16492382       0.10360320      -0.15093705
C        0.70731841       0.10453094       0.08425141
H       -1.46508117       1.11631854      -0.65834680
H       -2.17117935      -1.07738658       0.98535036
H       -1.83545747      -1.31407723      -0.70701787
H        3.06761152      -0.48636129      -0.05298920
H        0.58023154      -0.11740066       1.27833906
12
Frame=1 idx=007455 GeodesicLength=0.12296497764287674 rxn_smarts="[O:1]([C:2]([c:3]1[n:4][o:5][c:6]([H:11])[c:7]1[H:12])([H:9])[H:10])[H:8]>>[O:1]([C:2]([C:3](=[C:7]1[N-:4][O+:5]=[C:6]1[H:11])[H:12])([H:9])[H:10])[H:8]"
O       -2.05224266       0.67291171      -0.03229699
C       -1.61088631      -0.64930056       0.15178121
C       -0.17841809      -0.93759972       0.31632727
N        0.63191593       1.34516033      -0.55982487
O        2.08134200       1.24303543      -0.72383017
C        2.18926081       0.12307744      -0.13375632
C        0.74288927       0.07501612       0.10531452
H       -1.47924285       1.12310413      -0.66394299
H       -2.17752617      -1.06555030       0.98793752
H       -1.86080511      -1.30091856      -0.70920007
H        3.10667164      -0.44362704      -0.04018412
H        0.60704155      -0.18530899       1.30167503
12
Frame=2 idx=007455 GeodesicLength=0.24566698461896655 rxn_smarts="[O:1]([C:2]([c:3]1[n:4][o:5][c:6]([H:11])[c:7]1[H:12])([H:9])[H:10])[H:8]>>[O:1]([C:2]([C:3](=[C:7]1[N-:4][O+:5]=[C:6]1[H:11])[H:12])([H:9])[H:10])[H:8]"
O       -2.06492881       0.68642955      -0.03546667
C       -1.62730797      -0.63615080       0.14820081
C       -0.19455871      -0.91138877       0.30425139
N        0.61305796       1.29386903      -0.59560494
O        2.06485300       1.24871843      -0.73232461
C        2.21200803       0.14347369      -0.11738737
C        0.77791872       0.04340453       0.12322559
H       -1.49282271       1.13001112      -0.67253384
H       -2.18331961      -1.04979891       0.99294967
H       -1.88605619      -1.28964133      -0.70805121
H        3.14463773      -0.39761554      -0.02734635
H        0.63651858      -0.26131100       1.32008753
12
Frame=3 idx=007455 GeodesicLength=0.3679976909531021 rxn_smarts="[O:1]([C:2]([c:3]1[n:4][o:5][c:6]([H:11])[c:7]1[H:12])([H:9])[H:10])[H:8]>>[O:1]([C:2]([C:3](=[C:7]1[N-:4][O+:5]=[C:6]1[H:11])[H:12])([H:9])[H:10])[H:8]"
O       -2.07807368       0.70029915      -0.04352593
C       -1.64373929      -0.62167362       0.14587506
C       -0.21049275      -0.88206426       0.29537189
N        0.59537963       1.24161684      -0.62705083
O        2.04678807       1.25678924      -0.73501430
C        2.23273812       0.16437894      -0.10207133
C        0.81226196       0.00862740       0.13677471
H       -1.50520602       1.13632373      -0.68508146
H       -2.18912851      -1.02934417       1.00059412
H       -1.91055750      -1.28069974      -0.70292854
H        3.18104297      -0.34847688      -0.01501990
H        0.66898698      -0.34577663       1.33207651
12
Frame=4 idx=007455 GeodesicLength=0.48986379632142046 rxn_smarts="[O:1]([C:2]([c:3]1[n:4][o:5][c:6]([H:11])[c:7]1[H:12])([H:9])[H:10])[H:8]>>[O:1]([C:2]([C:3](=[C:7]1[N-:4][O+:5]=[C:6]1[H:11])[H:12])([H:9])[H:10])[H:8]"
O       -2.09152857       0.71447025      -0.05702090
C       -1.66006885      -0.60570411       0.14522734
C       -0.22624989      -0.84946336       0.29121267
N        0.57893161       1.18979025      -0.65356733
O        2.02676462       1.26793879      -0.73072084
C        2.25111963       0.18528817      -0.08790687
C        0.84595946      -0.03065487       0.14433282
H       -1.51609122       1.14137213      -0.70238854
H       -2.19535660      -1.00336659       1.01116298
H       -1.93371650      -1.27433752      -0.69311591
H        3.21558496      -0.29608611      -0.00293034
H        0.70465136      -0.43924703       1.33571491
12
Frame=5 idx=007455 GeodesicLength=0.6111959991557466 rxn_smarts="[O:1]([C:2]([c:3]1[n:4][o:5][c:6]([H:11])[c:7]1[H:12])([H:9])[H:10])[H:8]>>[O:1]([C:2]([C:3](=[C:7]1[N-:4][O+:5]=[C:6]1[H:11])[H:12])([H:9])[H:10])[H:8]"
O       -2.10516357       0.72874102      -0.07680409
C       -1.67603045      -0.58793463       0.14685332
C       -0.24161926      -0.81291181       0.29308810
N        0.56370525       1.13948864      -0.67532153
O        2.00434277       1.28356634      -0.71654265
C        2.26680990       0.20565853      -0.07464214
C        0.87914538      -0.07598089       0.14371933
H       -1.52539547       1.14415570      -0.72578709
H       -2.20198106      -0.97050574       1.02539418
H       -1.95495847      -1.27100894      -0.67726236
H        3.24772233      -0.24072649       0.00881248
H        0.74342266      -0.54254172       1.32849244
12
Frame=6 idx=007455 GeodesicLength=0.7316696907210326 rxn_smarts="[O:1]([C:2]([c:3]1[n:4][o:5][c:6]([H:11])[c:7]1[H:12])([H:9])[H:10])[H:8]>>[O:1]([C:2]([C:3](=[C:7]1[N-:4][O+:5]=[C:6]1[H:11])[H:12])([H:9])[H:10])[H:8]"
O       -2.11897177       0.74250750      -0.10395613
C       -1.69088009      -0.56797065       0.15147532
C       -0.25567806      -0.77077130       0.30217571
N        0.54975820       1.09208208      -0.69278416
O        1.97885779       1.30476738      -0.68885745
C        2.27906320       0.22477347      -0.06160907
C        0.91166471      -0.12865840       0.13211223
H       -1.53323616       1.14351949      -0.75662759
H       -2.20822314      -0.92914469       1.04427663
H       -1.97306594      -1.27136003      -0.65348023
H        3.27633657      -0.18331495       0.02026872
H        0.78437469      -0.65642992       1.30700601
12
Frame=7 idx=007455 GeodesicLength=0.8509842376934227 rxn_smarts="[O:1]([C:2]([c:3]1[n:4][o:5][c:6]([H:11])[c:7]1[H:12])([H:9])[H:10])[H:8]>>[O:1]([C:2]([C:3](=[C:7]1[N-:4][O+:5]=[C:6]1[H:11])[H:12])([H:9])[H:10])[H:8]"
O       -2.13443404       0.75348689      -0.14109770
C       -1.70316548      -0.54566810       0.15947608
C       -0.26689168      -0.71782511       0.32307482
N        0.53649245       1.05429281      -0.70043380
O        1.95022521       1.32942864      -0.64775260
C        2.28666461       0.24018079      -0.05015145
C        0.94240182      -0.18707190       0.10796267
H       -1.54061949       1.13785665      -0.79651294
H       -2.21404468      -0.87875040       1.06703012
H       -1.98255757      -1.27688389      -0.62053635
H        3.29913205      -0.12804109       0.03059640
H        0.82679681      -0.78100530       1.26834474
12
Frame=8 idx=007455 GeodesicLength=0.969006075935924 rxn_smarts="[O:1]([C:2]([c:3]1[n:4][o:5][c:6]([H:11])[c:7]1[H:12])([H:9])[H:10])[H:8]>>[O:1]([C:2]([C:3](=[C:7]1[N-:4][O+:5]=[C:6]1[H:11])[H:12])([H:9])[H:10])[H:8]"
O       -2.15378160       0.75678528      -0.19116502
C       -1.71011351      -0.52188223       0.17104804
C       -0.27279440      -0.64580684       0.36192769
N        0.52306800       1.03603500      -0.69167645
O        1.92164115       1.35481287      -0.59491791
C        2.28846644       0.24853398      -0.04224703
C        0.96763471      -0.24422825       0.07272901
H       -1.54881172       1.12533068      -0.84555074
H       -2.21930155      -0.82132300       1.09131030
H       -1.97420102      -1.28995121      -0.57742226
H        3.31297967      -0.08458916       0.03595085
H        0.86521383      -0.91371714       1.21001351
12
Frame=9 idx=007455 GeodesicLength=1.0863766040224168 rxn_smarts="[O:1]([C:2]([c:3]1[n:4][o:5][c:6]([H:11])[c:7]1[H:12])([H:9])[H:10])[H:8]>>[O:1]([C:2]([C:3](=[C:7]1[N-:4][O+:5]=[C:6]1[H:11])[H:12])([H:9])[H:10])[H:8]"
O       -2.17467869       0.74880577      -0.24709781
C       -1.70765901      -0.49860826       0.18636115
C       -0.26902859      -0.55748697       0.40922493
N        0.51023372       1.03890232      -0.67175456
O        1.89839436       1.37608960      -0.54011835
C        2.28335236       0.24925651      -0.03724963
C        0.98270650      -0.29282015       0.02776873
H       -1.55769193       1.10679605      -0.89643581
H       -2.21717640      -0.76211289       1.11799914
H       -1.94763046      -1.30840885      -0.52445887
H        3.31621272      -0.05496485       0.04680332
H        0.88296541      -1.04544828       1.12895777
12
Frame=10 idx=007455 GeodesicLength=1.2065484657805066 rxn_smarts="[O:1]([C:2]([c:3]1[n:4][o:5][c:6]([H:11])[c:7]1[H:12])([H:9])[H:10])[H:8]>>[O:1]([C:2]([C:3](=[C:7]1[N-:4][O+:5]=[C:6]1[H:11])[H:12])([H:9])[H:10])[H:8]"
O       -2.19136819       0.73138369      -0.29691864
C       -1.69492347      -0.47908586       0.20258177
C       -0.25554409      -0.47063117       0.44676428
N        0.49771630       1.05667155      -0.64702518
O        1.88188815       1.38930816      -0.49862685
C        2.27293730       0.24568976      -0.03316220
C        0.98879956      -0.32950949      -0.02262950
H       -1.56520572       1.08725179      -0.93836060
H       -2.20152844      -0.70870621       1.14456638
H       -1.91341365      -1.32769316      -0.46771834
H        3.30947214      -0.03699480       0.07249655
H        0.87117010      -1.15768422       1.03803233
12
Frame=11 idx=007455 GeodesicLength=1.3297079495542383 rxn_smarts="[O:1]([C:2]([c:3]1[n:4][o:5][c:6]([H:11])[c:7]1[H:12])([H:9])[H:10])[H:8]>>[O:1]([C:2]([C:3](=[C:7]1[N-:4][O+:5]=[C:6]1[H:11])[H:12])([H:9])[H:10])[H:8]"
O       -2.20329398       0.70993465      -0.33540653
C       -1.67712510      -0.46425400       0.21650473
C       -0.23569533      -0.39787112       0.46629460
N        0.48651594       1.07832809      -0.62285494
O        1.87022301       1.39727499      -0.46888586
C        2.26098743       0.23990838      -0.03039795
C        0.99127309      -0.35800054      -0.07138310
H       -1.57180360       1.07002100      -0.96925557
H       -2.17575381      -0.66449854       1.16969489
H       -1.88166848      -1.34397049      -0.41618561
H        3.29817790      -0.02590872       0.10584252
H        0.83816294      -1.24096369       0.95603282
12
Frame=12 idx=007455 GeodesicLength=1.4543061239140065 rxn_smarts="[O:1]([C:2]([c:3]1[n:4][o:5][c:6]([H:11])[c:7]1[H:12])([H:9])[H:10])[H:8]>>[O:1]([C:2]([C:3](=[C:7]1[N-:4][O+:5]=[C:6]1[H:11])[H:12])([H:9])[H:10])[H:8]"
O       -2.21169861       0.68716959      -0.36584721
C       -1.65739838      -0.45295507       0.22758697
C       -0.21348412      -0.33745523       0.47406422
N        0.47602488       1.10009604      -0.59951282
O        1.86033295       1.40265844      -0.44482654
C        2.24920343       0.23227481      -0.03145413
C        0.99256607      -0.38134461      -0.11645725
H       -1.57734495       1.05571638      -0.99195122
H       -2.14566869      -0.62726338       1.19141043
H       -1.85307045      -1.35775503      -0.37084518
H        3.28433065      -0.01918677       0.14057995
H        0.79620721      -1.30195516       0.88725279
12
Frame=13 idx=007455 GeodesicLength=1.5795078338423216 rxn_smarts="[O:1]([C:2]([c:3]1[n:4][o:5][c:6]([H:11])[c:7]1[H:12])([H:9])[H:10])[H:8]>>[O:1]([C:2]([C:3](=[C:7]1[N-:4][O+:5]=[C:6]1[H:11])[H:12])([H:9])[H:10])[H:8]"
O       -2.21762456       0.66428734      -0.39058692
C       -1.63703137      -0.44414761       0.23609578
C       -0.19058577      -0.28577133       0.47494306
N        0.46616934       1.12025013      -0.57773429
O        1.85102467       1.40672327      -0.42358702
C        2.23794764       0.22405561      -0.03494584
C        0.99352795      -0.40147709      -0.15663897
H       -1.58215866       1.04407034      -1.00884486
H       -2.11421592      -0.59570493       1.20956013
H       -1.82640665      -1.36933109      -0.33166678
H        3.26914742      -0.01565584       0.17238548
H        0.75020591      -1.34729881       0.83102024
12
Frame=14 idx=007455 GeodesicLength=1.7050275141120352 rxn_smarts="[O:1]([C:2]([c:3]1[n:4][o:5][c:6]([H:11])[c:7]1[H:12])([H:9])[H:10])[H:8]>>[O:1]([C:2]([C:3](=[C:7]1[N-:4][O+:5]=[C:6]1[H:11])[H:12])([H:9])[H:10])[H:8]"
O       -2.22159664       0.64155882      -0.41170836
C       -1.61658574      -0.43706302       0.24262007
C       -0.16773736      -0.24060872       0.47170142
N        0.45667508       1.13920558      -0.55649459
O        1.84188990       1.41009179      -0.40379371
C        2.22719084       0.21588588      -0.03975905
C        0.99444085      -0.41936721      -0.19253663
H       -1.58624446       1.03406407      -1.02214669
H       -2.08270732      -0.56785971       1.22470478
H       -1.80127545      -1.37937053      -0.29710302
H        3.25322267      -0.01448820       0.20013872
H        0.70272763      -1.38204875       0.78437706
12
Frame=15 idx=007455 GeodesicLength=1.8307329178739384 rxn_smarts="[O:1]([C:2]([c:3]1[n:4][o:5][c:6]([H:11])[c:7]1[H:12])([H:9])[H:10])[H:8]>>[O:1]([C:2]([C:3](=[C:7]1[N-:4][O+:5]=[C:6]1[H:11])[H:12])([H:9])[H:10])[H:8]"
O       -2.22398217       0.61912309      -0.43047024
C       -1.59641117      -0.43127235       0.24746696
C       -0.14534495      -0.20053471       0.46598438
N        0.44740425       1.15713622      -0.53522356
O        1.83275212       1.41306881      -0.38476929
C        2.21679646       0.20823578      -0.04467424
C        0.99546294      -0.43567543      -0.22432084
H       -1.58958342       1.02518826      -1.03304740
H       -2.05196083      -0.54278862       1.23715508
H       -1.77740103      -1.38823037      -0.26638764
H        3.23740891      -0.01520822       0.22253959
H        0.65485889      -1.40904245       0.74574719
12
Frame=16 idx=007455 GeodesicLength=1.956538185587158 rxn_smarts="[O:1]([C:2]([c:3]1[n:4][o:5][c:6]([H:11])[c:7]1[H:12])([H:9])[H:10])[H:8]>>[O:1]([C:2]([C:3](=[C:7]1[N-:4][O+:5]=[C:6]1[H:11])[H:12])([H:9])[H:10])[H:8]"
O       -2.22508051       0.59732228      -0.44715898
C       -1.57665659      -0.42649027       0.25090389
C       -0.12350918      -0.16468174       0.45856181
N        0.43824305       1.17403325      -0.51393696
O        1.82358946       1.41552364      -0.36715812
C        2.20669465       0.20110194      -0.04958306
C        0.99669367      -0.45105520      -0.25263339
H       -1.59235894       1.01747156      -1.04186655
H       -2.02214878      -0.52016170       1.24729268
H       -1.75477030      -1.39599562      -0.23915812
H        3.22192763      -0.01688858       0.24097791
H        0.60737585      -1.43017957       0.71375887
