14
Frame=0 idx=005319 GeodesicLength=0.0 rxn_smarts="[O:1]([C:2]([C:3]([C@@:4]1([H:12])[C:5]([H:13])([H:14])[O:6]1)([H:10])[H:11])([H:8])[H:9])[H:7]>>[O:1]([C:2]([C:3]([O:6][C:5]([C:4][H:12])([H:13])[H:14])([H:10])[H:11])([H:8])[H:9])[H:7]"
O        1.78670147       1.07887955       0.91467510
C        1.72620815      -0.06380453       0.10431258
C        0.41876242      -0.81309716       0.17776757
C       -1.50657548      -0.76187720      -0.59755688
C       -1.85443058       0.52327300       0.00433465
O       -0.50840575       0.59859474      -0.42640052
H        1.07167334       1.65496920       0.63265544
H        1.96725889       0.16340646      -0.94201528
H        2.49058025      -0.75692813       0.47262619
H        0.50162059      -1.75205333      -0.35920324
H        0.06048069      -0.95985224       1.19044941
H       -1.70656796      -0.74191594      -1.67536702
H       -1.99834867       0.60725913       1.08168292
H       -2.44895735       1.22314644      -0.57796088
14
Frame=1 idx=005319 GeodesicLength=0.0594553655828188 rxn_smarts="[O:1]([C:2]([C:3]([C@@:4]1([H:12])[C:5]([H:13])([H:14])[O:6]1)([H:10])[H:11])([H:8])[H:9])[H:7]>>[O:1]([C:2]([C:3]([O:6][C:5]([C:4][H:12])([H:13])[H:14])([H:10])[H:11])([H:8])[H:9])[H:7]"
O        1.81669189       1.08108371       0.88927409
C        1.72671431      -0.07183346       0.09556993
C        0.40799876      -0.79849712       0.19612697
C       -1.47926288      -0.74480564      -0.63761480
C       -1.87543860       0.50458749       0.00797920
O       -0.52246002       0.62045799      -0.39439571
H        1.10756402       1.66542878       0.60934737
H        1.95547795       0.13692885      -0.95737206
H        2.48814280      -0.76862851       0.46260408
H        0.48498479      -1.76120636      -0.29970352
H        0.06389100      -0.92515384       1.21704644
H       -1.65889402      -0.69356262      -1.71758042
H       -2.04006967       0.54051699       1.08484560
H       -2.47534033       1.21468373      -0.55612716
14
Frame=2 idx=005319 GeodesicLength=0.11788318917265153 rxn_smarts="[O:1]([C:2]([C:3]([C@@:4]1([H:12])[C:5]([H:13])([H:14])[O:6]1)([H:10])[H:11])([H:8])[H:9])[H:7]>>[O:1]([C:2]([C:3]([O:6][C:5]([C:4][H:12])([H:13])[H:14])([H:10])[H:11])([H:8])[H:9])[H:7]"
O        1.84551485       1.08262103       0.86261433
C        1.72656816      -0.08039126       0.08690287
C        0.39739063      -0.78398071       0.21493365
C       -1.45003281      -0.72507907      -0.67592638
C       -1.89566842       0.48499442       0.01091302
O       -0.53703410       0.64205835      -0.36105042
H        1.14222332       1.67467106       0.58417356
H        1.94281607       0.10964785      -0.97222790
H        2.48499044      -0.78061404       0.45313057
H        0.46655362      -1.76776777      -0.24077508
H        0.06828348      -0.89025534       1.24374531
H       -1.60934319      -0.64184868      -1.75667610
H       -2.08017637       0.47197372       1.08487725
H       -2.50208569       1.20397043      -0.53463468
14
Frame=3 idx=005319 GeodesicLength=0.17535296315633306 rxn_smarts="[O:1]([C:2]([C:3]([C@@:4]1([H:12])[C:5]([H:13])([H:14])[O:6]1)([H:10])[H:11])([H:8])[H:9])[H:7]>>[O:1]([C:2]([C:3]([O:6][C:5]([C:4][H:12])([H:13])[H:14])([H:10])[H:11])([H:8])[H:9])[H:7]"
O        1.87276713       1.08359278       0.83487032
C        1.72578322      -0.08943423       0.07848242
C        0.38700257      -0.76961770       0.23400268
C       -1.41915221      -0.70278704      -0.71209806
C       -1.91485492       0.46467732       0.01311590
O       -0.55208970       0.66318594      -0.32681122
H        1.17515319       1.68266302       0.55714176
H        1.92955691       0.08160902      -0.98636528
H        2.48112293      -0.79275792       0.44462693
H        0.44650259      -1.77179103      -0.18323158
H        0.07370909      -0.85553308       1.27030386
H       -1.55864309      -0.58715443      -1.79219950
H       -2.11786125       0.40229661       1.08181406
H       -2.52899645       1.19105074      -0.51365229
14
Frame=4 idx=005319 GeodesicLength=0.23200663018615245 rxn_smarts="[O:1]([C:2]([C:3]([C@@:4]1([H:12])[C:5]([H:13])([H:14])[O:6]1)([H:10])[H:11])([H:8])[H:9])[H:7]>>[O:1]([C:2]([C:3]([O:6][C:5]([C:4][H:12])([H:13])[H:14])([H:10])[H:11])([H:8])[H:9])[H:7]"
O        1.89813165       1.08411106       0.80620550
C        1.72442370      -0.09891372       0.07046178
C        0.37686658      -0.75545121       0.25311967
C       -1.38697745      -0.67807915      -0.74573689
C       -1.93280258       0.44386983       0.01461632
O       -0.56755672       0.68366135      -0.29208407
H        1.20599379       1.68940388       0.52823942
H        1.91609584       0.05281734      -0.99957303
H        2.47657785      -0.80490555       0.43746735
H        0.42507399      -1.77336912      -0.12787737
H        0.08007496      -0.82134463       1.29643060
H       -1.50742634      -0.52994706      -1.82374854
H       -2.15260958       0.33211972       1.07577576
H       -2.55586570       1.17602727      -0.49329649
14
Frame=5 idx=005319 GeodesicLength=0.28783515607346116 rxn_smarts="[O:1]([C:2]([C:3]([C@@:4]1([H:12])[C:5]([H:13])([H:14])[O:6]1)([H:10])[H:11])([H:8])[H:9])[H:7]>>[O:1]([C:2]([C:3]([O:6][C:5]([C:4][H:12])([H:13])[H:14])([H:10])[H:11])([H:8])[H:9])[H:7]"
O        1.92124701       1.08419443       0.77701690
C        1.72254566      -0.10871392       0.06301947
C        0.36708310      -0.74155773       0.27192902
C       -1.35401521      -0.65125382      -0.77642173
C       -1.94925513       0.42288435       0.01539854
O       -0.58331832       0.70326222      -0.25753501
H        1.23422694       1.69477242       0.49787015
H        1.90272281       0.02352942      -1.01159955
H        2.47144949      -0.81683074       0.43198296
H        0.40263996      -1.77266999      -0.07553107
H        0.08738737      -0.78818269       1.32169237
H       -1.45675227      -0.47111104      -1.85097108
H       -2.18357832       0.26259667       1.06701403
H       -2.58238308       1.15908044      -0.47386499
14
Frame=6 idx=005319 GeodesicLength=0.34302265520211356 rxn_smarts="[O:1]([C:2]([C:3]([C@@:4]1([H:12])[C:5]([H:13])([H:14])[O:6]1)([H:10])[H:11])([H:8])[H:9])[H:7]>>[O:1]([C:2]([C:3]([O:6][C:5]([C:4][H:12])([H:13])[H:14])([H:10])[H:11])([H:8])[H:9])[H:7]"
O        1.94208707       1.08396264       0.74752130
C        1.72028634      -0.11877570       0.05621902
C        0.35769003      -0.72797918       0.29024283
C       -1.32067574      -0.62258919      -0.80405100
C       -1.96422343       0.40193977       0.01551834
O       -0.59932564       0.72195737      -0.22342958
H        1.25975418       1.69887362       0.46624597
H        1.88972728      -0.00620721      -1.02240807
H        2.46592223      -0.82842689       0.42830510
H        0.37949898      -1.77003842      -0.02653194
H        0.09552284      -0.75630201       1.34591086
H       -1.40714344      -0.41118575      -1.87393107
H       -2.21067075       0.19433186       1.05587245
H       -2.60844995       1.14043907      -0.45548420
14
Frame=7 idx=005319 GeodesicLength=0.39788588137449393 rxn_smarts="[O:1]([C:2]([C:3]([C@@:4]1([H:12])[C:5]([H:13])([H:14])[O:6]1)([H:10])[H:11])([H:8])[H:9])[H:7]>>[O:1]([C:2]([C:3]([O:6][C:5]([C:4][H:12])([H:13])[H:14])([H:10])[H:11])([H:8])[H:9])[H:7]"
O        1.96072824       1.08345384       0.71767322
C        1.71770887      -0.12904170       0.05006003
C        0.34863519      -0.71465763       0.30796721
C       -1.28722378      -0.59224176      -0.82856465
C       -1.97770871       0.38114591       0.01505451
O       -0.61550855       0.73973703      -0.18979078
H        1.28267950       1.70169318       0.43333313
H        1.87727807      -0.03643228      -1.03194895
H        2.46003358      -0.83952285       0.42644730
H        0.35576310      -1.76564652       0.01910488
H        0.10425985      -0.72574499       1.36893402
H       -1.35867321      -0.35035269      -1.89264637
H       -2.23409846       0.12738058       1.04252046
H       -2.63387368       1.12022990      -0.43814402
14
Frame=8 idx=005319 GeodesicLength=0.4524950528185176 rxn_smarts="[O:1]([C:2]([C:3]([C@@:4]1([H:12])[C:5]([H:13])([H:14])[O:6]1)([H:10])[H:11])([H:8])[H:9])[H:7]>>[O:1]([C:2]([C:3]([O:6][C:5]([C:4][H:12])([H:13])[H:14])([H:10])[H:11])([H:8])[H:9])[H:7]"
O        1.97719054       1.08272167       0.68775955
C        1.71491803      -0.13944917       0.04455231
C        0.33997596      -0.70166941       0.32496621
C       -1.25397230      -0.56050211      -0.85002495
C       -1.98977856       0.36064542       0.01403272
O       -0.63183435       0.75658470      -0.15681612
H        1.30293685       1.70332154       0.39951811
H        1.86545636      -0.06697453      -1.04027888
H        2.45398806      -0.85004947       0.42635362
H        0.33173646      -1.75986884       0.06127278
H        0.11352936      -0.69675845       1.39069475
H       -1.31179642      -0.28917487      -1.90738113
H       -2.25376956       0.06251945       1.02740358
H       -2.65858044       1.09865407      -0.42205254
14
Frame=9 idx=005319 GeodesicLength=0.5070683158045524 rxn_smarts="[O:1]([C:2]([C:3]([C@@:4]1([H:12])[C:5]([H:13])([H:14])[O:6]1)([H:10])[H:11])([H:8])[H:9])[H:7]>>[O:1]([C:2]([C:3]([O:6][C:5]([C:4][H:12])([H:13])[H:14])([H:10])[H:11])([H:8])[H:9])[H:7]"
O        1.99162292       1.08183414       0.65767755
C        1.71195058      -0.15000209       0.03964773
C        0.33170768      -0.68900550       0.34129349
C       -1.22105642      -0.52748160      -0.86856719
C       -2.00050926       0.34052840       0.01250172
O       -0.64832083       0.77259164      -0.12435905
H        1.32064863       1.70385181       0.36474501
H        1.85418784      -0.09794314      -1.04749862
H        2.44788162      -0.85998051       0.42794562
H        0.30755084      -1.75297627       0.10026993
H        0.12329307      -0.66929640       1.41130805
H       -1.26639182      -0.22759300      -1.91839937
H       -2.27004782      -0.00046547       1.01065491
H       -2.68251704       1.07593800      -0.40721976
14
Frame=10 idx=005319 GeodesicLength=0.5617312409994197 rxn_smarts="[O:1]([C:2]([C:3]([C@@:4]1([H:12])[C:5]([H:13])([H:14])[O:6]1)([H:10])[H:11])([H:8])[H:9])[H:7]>>[O:1]([C:2]([C:3]([O:6][C:5]([C:4][H:12])([H:13])[H:14])([H:10])[H:11])([H:8])[H:9])[H:7]"
O        2.00417796       1.08079288       0.62742523
C        1.70886624      -0.16065899       0.03529766
C        0.32381112      -0.67665732       0.35693541
C       -1.18862215      -0.49332777      -0.88429259
C       -2.00999332       0.32081924       0.01047966
O       -0.66493695       0.78774583      -0.09235813
H        1.33592888       1.70327705       0.32916363
H        1.84345032      -0.12930340      -1.05364587
H        2.44182058      -0.86921628       0.43105648
H        0.28329828      -1.74514230       0.13628512
H        0.13344224      -0.64334805       1.43076795
H       -1.22247048      -0.16576585      -1.92586909
H       -2.28318040      -0.06140750       0.99245504
H       -2.70559233       1.05219244      -0.39370050
14
Frame=11 idx=005319 GeodesicLength=0.6166208926229271 rxn_smarts="[O:1]([C:2]([C:3]([C@@:4]1([H:12])[C:5]([H:13])([H:14])[O:6]1)([H:10])[H:11])([H:8])[H:9])[H:7]>>[O:1]([C:2]([C:3]([O:6][C:5]([C:4][H:12])([H:13])[H:14])([H:10])[H:11])([H:8])[H:9])[H:7]"
O        2.01497250       1.07961573       0.59695220
C        1.70569701      -0.17140323       0.03143065
C        0.31627151      -0.66463817       0.37193440
C       -1.15673559      -0.45817124      -0.89730944
C       -2.01831261       0.30156127       0.00798896
O       -0.68167517       0.80206918      -0.06071851
H        1.34885485       1.70163673       0.29287151
H        1.83316521      -0.16104250      -1.05881526
H        2.43589475      -0.87771672       0.43549139
H        0.25907813      -1.73656530       0.16957119
H        0.14389672      -0.61888329       1.44916261
H       -1.17990249      -0.10376873      -1.92997764
H       -2.29346979      -0.12027598       0.97295495
H       -2.72773501       1.02758224      -0.38153701
14
Frame=12 idx=005319 GeodesicLength=0.6720181483400991 rxn_smarts="[O:1]([C:2]([C:3]([C@@:4]1([H:12])[C:5]([H:13])([H:14])[O:6]1)([H:10])[H:11])([H:8])[H:9])[H:7]>>[O:1]([C:2]([C:3]([O:6][C:5]([C:4][H:12])([H:13])[H:14])([H:10])[H:11])([H:8])[H:9])[H:7]"
O        2.02409234       1.07816394       0.56611293
C        1.70246198      -0.18224202       0.02804254
C        0.30911641      -0.65288166       0.38632429
C       -1.12544510      -0.42196707      -0.90767391
C       -2.02554292       0.28273612       0.00497918
O       -0.69857974       0.81546684      -0.02927109
H        1.35945974       1.69872646       0.25578271
H        1.82316379      -0.19326240      -1.06289827
H        2.43021991      -0.88535209       0.44117763
H        0.23500731      -1.72717862       0.20037168
H        0.15473678      -0.59579764       1.46643528
H       -1.13863716      -0.04144396      -1.93066922
H       -2.30111486      -0.17710729       0.95204484
H       -2.74893848       1.00213940      -0.37075859
14
Frame=13 idx=005319 GeodesicLength=0.727854408899761 rxn_smarts="[O:1]([C:2]([C:3]([C@@:4]1([H:12])[C:5]([H:13])([H:14])[O:6]1)([H:10])[H:11])([H:8])[H:9])[H:7]>>[O:1]([C:2]([C:3]([O:6][C:5]([C:4][H:12])([H:13])[H:14])([H:10])[H:11])([H:8])[H:9])[H:7]"
O        2.03160804       1.07665539       0.53486608
C        1.69913477      -0.19319513       0.02499128
C        0.30230998      -0.64151722       0.40030137
C       -1.09470741      -0.38493275      -0.91559697
C       -2.03172050       0.26444175       0.00150831
O       -0.71565645       0.82815185       0.00210434
H        1.36778744       1.69491227       0.21801752
H        1.81327960      -0.22591347      -1.06626577
H        2.42481700      -0.89229676       0.44781554
H        0.21113532      -1.71749053       0.22908681
H        0.16588575      -0.57407823       1.48305066
H       -1.09831562       0.02119000      -1.92840882
H       -2.30642894      -0.23211165       0.92999498
H       -2.76912897       0.97618449      -0.36146533
14
Frame=14 idx=005319 GeodesicLength=0.7846272950853823 rxn_smarts="[O:1]([C:2]([C:3]([C@@:4]1([H:12])[C:5]([H:13])([H:14])[O:6]1)([H:10])[H:11])([H:8])[H:9])[H:7]>>[O:1]([C:2]([C:3]([O:6][C:5]([C:4][H:12])([H:13])[H:14])([H:10])[H:11])([H:8])[H:9])[H:7]"
O        2.03757483       1.07505919       0.50278637
C        1.69573848      -0.20428089       0.02231908
C        0.29579017      -0.63047058       0.41391311
C       -1.06440321      -0.34678231      -0.92113587
C       -2.03692311       0.24647757      -0.00244874
O       -0.73293465       0.83997102       0.03385673
H        1.37395697       1.68995369       0.17887930
H        1.80347762      -0.25939854      -1.06870268
H        2.41970995      -0.89825709       0.45562412
H        0.18730357      -1.70733356       0.25584711
H        0.17730781      -0.55366112       1.49892426
H       -1.05861680       0.08479158      -1.92292318
H       -2.30970765      -0.28561390       0.90655262
H       -2.78827400       0.94954495      -0.35349222
14
Frame=15 idx=005319 GeodesicLength=0.842286014800858 rxn_smarts="[O:1]([C:2]([C:3]([C@@:4]1([H:12])[C:5]([H:13])([H:14])[O:6]1)([H:10])[H:11])([H:8])[H:9])[H:7]>>[O:1]([C:2]([C:3]([O:6][C:5]([C:4][H:12])([H:13])[H:14])([H:10])[H:11])([H:8])[H:9])[H:7]"
O        2.04203711       1.07322772       0.47010026
C        1.69220611      -0.21543900       0.01985216
C        0.28959146      -0.61978040       0.42724852
C       -1.03464267      -0.30794465      -0.92422858
C       -2.04109943       0.22907908      -0.00693612
O       -0.75035151       0.85093431       0.06564937
H        1.37783404       1.68388540       0.13930045
H        1.79340694      -0.29317984      -1.07044814
H        2.41495775      -0.90339354       0.46387506
H        0.16376296      -1.69690804       0.28103650
H        0.18902737      -0.53440414       1.51421823
H       -1.01954581       0.14864123      -1.91437224
H       -2.31098507      -0.33725531       0.88189847
H       -2.80619924       0.92253719      -0.34719394
14
Frame=16 idx=005319 GeodesicLength=0.9011388379378475 rxn_smarts="[O:1]([C:2]([C:3]([C@@:4]1([H:12])[C:5]([H:13])([H:14])[O:6]1)([H:10])[H:11])([H:8])[H:9])[H:7]>>[O:1]([C:2]([C:3]([O:6][C:5]([C:4][H:12])([H:13])[H:14])([H:10])[H:11])([H:8])[H:9])[H:7]"
O        2.04500885       1.07118623       0.43661995
C        1.68854506      -0.22667033       0.01761115
C        0.28368365      -0.60945652       0.44034840
C       -1.00535260      -0.26833548      -0.92494381
C       -2.04427827       0.21212847      -0.01199605
O       -0.76790702       0.86094781       0.09771033
H        1.37947522       1.67664643       0.09895325
H        1.78295997      -0.32742441      -1.07140275
H        2.41059612      -0.90754870       0.47264192
H        0.14046119      -1.68623328       0.30473337
H        0.20102531      -0.51630755       1.52892284
H       -0.98097059       0.21299881      -1.90265372
H       -2.31041971      -0.38707655       0.85600221
H       -2.82282718       0.89514506      -0.34254709
