16
Frame=0 idx=011130 GeodesicLength=0.0 rxn_smarts="[C:1]([C:2]1([C:6]#[N:7])[C:3]([H:11])([H:12])[C:4]([H:13])([H:14])[C:5]1([H:15])[H:16])([H:8])([H:9])[H:10]>>[C:1]([C:2]1([C:6]#[N:7])[C:4]([H:13])([H:14])[C:5]1([H:15])[H:16])([H:8])([H:9])[H:10].[C:3]([H:11])[H:12]"
C        0.99340405       1.23347749       0.18326316
C        0.31110302      -0.04143375      -0.26137447
C       -0.72058224      -0.62077293       1.73445714
C       -1.33326088      -0.20727512      -0.16175680
C       -0.58795938       0.07349208      -1.44271472
C        1.14479987      -1.21887704      -0.26847065
N        1.83679881      -2.13309646      -0.33756845
H        1.65786657       1.57656153      -0.61224308
H        1.57983732       1.08822665       1.08827750
H        0.25031573       2.00878661       0.37261741
H        0.08243760       0.05702156       2.04795512
H       -0.24683588      -1.60524570       1.61352232
H       -1.81334535      -1.17196031      -0.13564862
H       -1.91977077       0.61740125       0.20640690
H       -0.54635842      -0.72513677      -2.17057281
H       -0.68845005       1.06883091      -1.85614988
16
Frame=1 idx=011130 GeodesicLength=0.04789707612464367 rxn_smarts="[C:1]([C:2]1([C:6]#[N:7])[C:3]([H:11])([H:12])[C:4]([H:13])([H:14])[C:5]1([H:15])[H:16])([H:8])([H:9])[H:10]>>[C:1]([C:2]1([C:6]#[N:7])[C:4]([H:13])([H:14])[C:5]1([H:15])[H:16])([H:8])([H:9])[H:10].[C:3]([H:11])[H:12]"
C        0.99619246       1.23490320       0.18097801
C        0.31326445      -0.04337921      -0.25514986
C       -0.71758783      -0.62947661       1.72445451
C       -1.34006457      -0.20237382      -0.15743172
C       -0.58915390       0.06844094      -1.43734906
C        1.15756384      -1.21426439      -0.27280114
N        1.85701787      -2.12245721      -0.34626924
H        1.66450686       1.57362621      -0.61310790
H        1.58090988       1.09560752       1.08822801
H        0.25297174       2.01178754       0.36333763
H        0.07130505       0.05158318       2.06452134
H       -0.25400873      -1.61927008       1.61142909
H       -1.83544287      -1.16010645      -0.13714336
H       -1.91912990       0.62964981       0.20772722
H       -0.55217314      -0.73453305      -2.16098178
H       -0.68617120       1.06026242      -1.86044174
16
Frame=2 idx=011130 GeodesicLength=0.0957619110492311 rxn_smarts="[C:1]([C:2]1([C:6]#[N:7])[C:3]([H:11])([H:12])[C:4]([H:13])([H:14])[C:5]1([H:15])[H:16])([H:8])([H:9])[H:10]>>[C:1]([C:2]1([C:6]#[N:7])[C:4]([H:13])([H:14])[C:5]1([H:15])[H:16])([H:8])([H:9])[H:10].[C:3]([H:11])[H:12]"
C        0.99902051       1.23635478       0.17861175
C        0.31562116      -0.04535594      -0.24895702
C       -0.71435435      -0.63832095       1.71434961
C       -1.34676928      -0.19733873      -0.15300017
C       -0.59033933       0.06324019      -1.43188170
C        1.17055767      -1.20945917      -0.27724754
N        1.87731353      -2.11162497      -0.35505992
H        1.67113691       1.57083182      -0.61400227
H        1.58192770       1.10311155       1.08812604
H        0.25563779       2.01473566       0.35390680
H        0.05940329       0.04574535       2.08113372
H       -0.26143110      -1.63345030       1.60901142
H       -1.85763685      -1.14767721      -0.13833683
H       -1.91816197       0.64202395       0.20920749
H       -0.55804036      -0.74418459      -2.15109492
H       -0.68388532       1.05136857      -1.86476646
16
Frame=3 idx=011130 GeodesicLength=0.143575697476432 rxn_smarts="[C:1]([C:2]1([C:6]#[N:7])[C:3]([H:11])([H:12])[C:4]([H:13])([H:14])[C:5]1([H:15])[H:16])([H:8])([H:9])[H:10]>>[C:1]([C:2]1([C:6]#[N:7])[C:4]([H:13])([H:14])[C:5]1([H:15])[H:16])([H:8])([H:9])[H:10].[C:3]([H:11])[H:12]"
C        1.00189370       1.23783768       0.17616032
C        0.31818421      -0.04735808      -0.24280252
C       -0.71087687      -0.64727815       1.70414271
C       -1.35336376      -0.19218255      -0.14846155
C       -0.59151466       0.05789799      -1.42630924
C        1.18377837      -1.20445816      -0.28181471
N        1.89763471      -2.10064036      -0.36392941
H        1.67774870       1.56820008      -0.61493689
H        1.58290911       1.11073667       1.08795569
H        0.25831201       2.01762306       0.34434421
H        0.04669759       0.03948977       2.09777238
H       -0.26910840      -1.64775476       1.60627708
H       -1.87986663      -1.13469582      -0.13921599
H       -1.91687537       0.65449646       0.21083770
H       -0.56394249      -0.75407099      -2.14091484
H       -0.68161020       1.04215715      -1.86910494
16
Frame=4 idx=011130 GeodesicLength=0.19132191692194478 rxn_smarts="[C:1]([C:2]1([C:6]#[N:7])[C:3]([H:11])([H:12])[C:4]([H:13])([H:14])[C:5]1([H:15])[H:16])([H:8])([H:9])[H:10]>>[C:1]([C:2]1([C:6]#[N:7])[C:4]([H:13])([H:14])[C:5]1([H:15])[H:16])([H:8])([H:9])[H:10].[C:3]([H:11])[H:12]"
C        1.00482034       1.23935775       0.17362206
C        0.32096605      -0.04937887      -0.23669226
C       -0.70714822      -0.65631553       1.69383889
C       -1.35983835      -0.18692052      -0.14381442
C       -0.59267993       0.05242398      -1.42063073
C        1.19722355      -1.19925833      -0.28650839
N        1.91793023      -2.08954785      -0.37286696
H        1.68433878       1.56575296      -0.61592056
H        1.58387473       1.11847982       1.08770510
H        0.26099442       2.02044238       0.33467209
H        0.03314462       0.03279887       2.11440358
H       -0.27704230      -1.66214611       1.60323600
H       -1.90207249      -1.12119502      -0.13976323
H       -1.91528241       0.66703730       0.21260905
H       -0.56986468      -0.76417024      -2.13044996
H       -0.67936436       1.03263941      -1.87344027
16
Frame=5 idx=011130 GeodesicLength=0.23900588295161884 rxn_smarts="[C:1]([C:2]1([C:6]#[N:7])[C:3]([H:11])([H:12])[C:4]([H:13])([H:14])[C:5]1([H:15])[H:16])([H:8])([H:9])[H:10]>>[C:1]([C:2]1([C:6]#[N:7])[C:4]([H:13])([H:14])[C:5]1([H:15])[H:16])([H:8])([H:9])[H:10].[C:3]([H:11])[H:12]"
C        1.00781558       1.24092276       0.17099795
C        0.32397983      -0.05141055      -0.23063179
C       -0.70316467      -0.66539673       1.68345303
C       -1.36619231      -0.18157146      -0.13905767
C       -0.59383893       0.04682825      -1.41485262
C        1.21089470      -1.19385607      -0.29133580
N        1.93815676      -2.07839227      -0.38186136
H        1.69091490       1.56351471      -0.61696374
H        1.58485457       1.12633944       1.08736952
H        0.26368934       2.02318780       0.32491714
H        0.01870316       0.02565257       2.13099466
H       -0.28523373      -1.67658262       1.59990634
H       -1.92420532      -1.10721751      -0.13996334
H       -1.91340784       0.67961252       0.21451441
H       -0.57579809      -0.77445977      -2.11972236
H       -0.67716795       1.02282893      -1.87776434
16
Frame=6 idx=011130 GeodesicLength=0.2865219797978483 rxn_smarts="[C:1]([C:2]1([C:6]#[N:7])[C:3]([H:11])([H:12])[C:4]([H:13])([H:14])[C:5]1([H:15])[H:16])([H:8])([H:9])[H:10]>>[C:1]([C:2]1([C:6]#[N:7])[C:4]([H:13])([H:14])[C:5]1([H:15])[H:16])([H:8])([H:9])[H:10].[C:3]([H:11])[H:12]"
C        1.01083835       1.24252698       0.16825150
C        0.32719056      -0.05345406      -0.22461104
C       -0.69899492      -0.67458115       1.67292789
C       -1.37240427      -0.17613808      -0.13421380
C       -0.59496171       0.04113777      -1.40892859
C        1.22473152      -1.18826354      -0.29627559
N        1.95822407      -2.06722093      -0.39086604
H        1.69737856       1.56148462      -0.61812078
H        1.58588702       1.13430865       1.08683499
H        0.26636665       2.02584547       0.31510606
H        0.00351634       0.01810878       2.14766172
H       -0.29369011      -1.69105611       1.59634376
H       -1.94614983      -1.09278435      -0.13994612
H       -1.91124842       0.69220739       0.21651384
H       -0.58165715      -0.78487534      -2.10869026
H       -0.67502665       1.01275390      -1.88198753
16
Frame=7 idx=011130 GeodesicLength=0.33398682287269943 rxn_smarts="[C:1]([C:2]1([C:6]#[N:7])[C:3]([H:11])([H:12])[C:4]([H:13])([H:14])[C:5]1([H:15])[H:16])([H:8])([H:9])[H:10]>>[C:1]([C:2]1([C:6]#[N:7])[C:4]([H:13])([H:14])[C:5]1([H:15])[H:16])([H:8])([H:9])[H:10].[C:3]([H:11])[H:12]"
C        1.01395386       1.24418078       0.16541728
C        0.33066308      -0.05550119      -0.21865712
C       -0.69451928      -0.68373570       1.66233654
C       -1.37847346      -0.17062879      -0.12924190
C       -0.59608734       0.03533319      -1.40290005
C        1.23879106      -1.18246722      -0.30137625
N        1.97821463      -2.05600909      -0.39993680
H        1.70385537       1.55968013      -0.61934621
H        1.58695264       1.14238144       1.08621475
H        0.26906802       2.02842704       0.30522461
H       -0.01275231       0.01003103       2.16420756
H       -0.30242356      -1.70550546       1.59248183
H       -1.96792880      -1.07791419      -0.13950369
H       -1.90880794       0.70481073       0.21864718
H       -0.58754134      -0.79547487      -2.09738195
H       -0.67296463       1.00239216      -1.88618578
16
Frame=8 idx=011130 GeodesicLength=0.3813508969471281 rxn_smarts="[C:1]([C:2]1([C:6]#[N:7])[C:3]([H:11])([H:12])[C:4]([H:13])([H:14])[C:5]1([H:15])[H:16])([H:8])([H:9])[H:10]>>[C:1]([C:2]1([C:6]#[N:7])[C:4]([H:13])([H:14])[C:5]1([H:15])[H:16])([H:8])([H:9])[H:10].[C:3]([H:11])[H:12]"
C        1.01714046       1.24590126       0.16248417
C        0.33435942      -0.05753619      -0.21272461
C       -0.68988435      -0.69296522       1.65165577
C       -1.38443067      -0.16505564      -0.12416554
C       -0.59719178       0.02942791      -1.39675310
C        1.25302982      -1.17646378      -0.30659507
N        1.99806619      -2.04478724      -0.40901120
H        1.71027613       1.55811997      -0.62068451
H        1.58813097       1.15059327       1.08543736
H        0.27178006       2.03093394       0.29531617
H       -0.02979993       0.00148257       2.18068161
H       -0.31145015      -1.71995493       1.58838719
H       -1.98955426      -1.06264547      -0.13877503
H       -1.90612537       0.71740956       0.22088831
H       -0.59338250      -0.80621632      -2.08580850
H       -0.67096404       0.99175631      -1.89033302
16
Frame=9 idx=011130 GeodesicLength=0.4285835598264546 rxn_smarts="[C:1]([C:2]1([C:6]#[N:7])[C:3]([H:11])([H:12])[C:4]([H:13])([H:14])[C:5]1([H:15])[H:16])([H:8])([H:9])[H:10]>>[C:1]([C:2]1([C:6]#[N:7])[C:4]([H:13])([H:14])[C:5]1([H:15])[H:16])([H:8])([H:9])[H:10].[C:3]([H:11])[H:12]"
C        1.02038424       1.24766150       0.15941891
C        0.33830660      -0.05956927      -0.20687267
C       -0.68493040      -0.70215138       1.64086504
C       -1.39019924      -0.15939506      -0.11895866
C       -0.59827532       0.02343305      -1.39044540
C        1.26744003      -1.17026823      -0.31197758
N        2.01779603      -2.03355753      -0.41811605
H        1.71663454       1.55676721      -0.62213800
H        1.58933290       1.15889383       1.08447333
H        0.27449227       2.03335701       0.28532653
H       -0.04795823      -0.00765911       2.19710329
H       -0.32077912      -1.73434132       1.58400561
H       -2.01085397      -1.04694068      -0.13767984
H       -1.90314223       0.73001570       0.22323896
H       -0.59919172      -0.81709461      -2.07388667
H       -0.66905637       0.98084890      -1.89435681
16
Frame=10 idx=011130 GeodesicLength=0.4758105754360077 rxn_smarts="[C:1]([C:2]1([C:6]#[N:7])[C:3]([H:11])([H:12])[C:4]([H:13])([H:14])[C:5]1([H:15])[H:16])([H:8])([H:9])[H:10]>>[C:1]([C:2]1([C:6]#[N:7])[C:4]([H:13])([H:14])[C:5]1([H:15])[H:16])([H:8])([H:9])[H:10].[C:3]([H:11])[H:12]"
C        1.02374088       1.24950473       0.15623712
C        0.34251189      -0.06158285      -0.20107749
C       -0.67974323      -0.71133478       1.63002970
C       -1.39583530      -0.15367776      -0.11361981
C       -0.59935155       0.01733938      -1.38402394
C        1.28202961      -1.16386608      -0.31752481
N        2.03742488      -2.02230665      -0.42726143
H        1.72300036       1.55567967      -0.62373581
H        1.59066348       1.16734243       1.08336039
H        0.27724877       2.03572743       0.27528756
H       -0.06716016      -0.01741526       2.21346902
H       -0.33046601      -1.74867658       1.57939726
H       -2.03191885      -1.03087549      -0.13622050
H       -1.89991159       0.74260224       0.22570835
H       -0.60499197      -0.82812615      -2.06169079
H       -0.66724122       0.96966571      -1.89833482
16
Frame=11 idx=011130 GeodesicLength=0.5228451170321591 rxn_smarts="[C:1]([C:2]1([C:6]#[N:7])[C:3]([H:11])([H:12])[C:4]([H:13])([H:14])[C:5]1([H:15])[H:16])([H:8])([H:9])[H:10]>>[C:1]([C:2]1([C:6]#[N:7])[C:4]([H:13])([H:14])[C:5]1([H:15])[H:16])([H:8])([H:9])[H:10].[C:3]([H:11])[H:12]"
C        1.02716141       1.25138703       0.15295001
C        0.34696706      -0.06358478      -0.19530312
C       -0.67431340      -0.72050016       1.61908545
C       -1.40130376      -0.14788317      -0.10813852
C       -0.60040311       0.01116315      -1.37741674
C        1.29677720      -1.15727079      -0.32320819
N        2.05693279      -2.01105948      -0.43641594
H        1.72929616       1.55479522      -0.62543256
H        1.59208431       1.17588038       1.08205519
H        0.27999841       2.03800212       0.26521481
H       -0.08740188      -0.02773409       2.22950623
H       -0.34044810      -1.76288118       1.57449301
H       -2.05266243      -1.01443748      -0.13437488
H       -1.89641225       0.75518855       0.22828380
H       -0.61074173      -0.83928050      -2.04912648
H       -0.66553067       0.95821517      -1.90217206
16
Frame=12 idx=011130 GeodesicLength=0.5698422667452016 rxn_smarts="[C:1]([C:2]1([C:6]#[N:7])[C:3]([H:11])([H:12])[C:4]([H:13])([H:14])[C:5]1([H:15])[H:16])([H:8])([H:9])[H:10]>>[C:1]([C:2]1([C:6]#[N:7])[C:4]([H:13])([H:14])[C:5]1([H:15])[H:16])([H:8])([H:9])[H:10].[C:3]([H:11])[H:12]"
C        1.03068534       1.25335340       0.14952195
C        0.35168743      -0.06555431      -0.18958492
C       -0.66863367      -0.72962135       1.60809662
C       -1.40660830      -0.14201588      -0.10250271
C       -0.60143712       0.00489290      -1.37066070
C        1.31167586      -1.15046947      -0.32905719
N        2.07636338      -1.99975754      -0.44559881
H        1.73558079       1.55415942      -0.62730209
H        1.59361946       1.18457224       1.08056257
H        0.28278886       2.04022829       0.25505604
H       -0.10875750      -0.03882899       2.24543834
H       -0.35085434      -1.77698445       1.56933646
H       -2.07308623      -0.99762845      -0.13212971
H       -1.89263816       0.76776340       0.23097512
H       -0.61646999      -0.85058271      -2.03622042
H       -0.66391581       0.94647351      -1.90593055
16
Frame=13 idx=011130 GeodesicLength=0.6168559291181405 rxn_smarts="[C:1]([C:2]1([C:6]#[N:7])[C:3]([H:11])([H:12])[C:4]([H:13])([H:14])[C:5]1([H:15])[H:16])([H:8])([H:9])[H:10]>>[C:1]([C:2]1([C:6]#[N:7])[C:4]([H:13])([H:14])[C:5]1([H:15])[H:16])([H:8])([H:9])[H:10].[C:3]([H:11])[H:12]"
C        1.03433486       1.25540542       0.14596148
C        0.35668461      -0.06749630      -0.18391329
C       -0.66269705      -0.73871749       1.59707535
C       -1.41175744      -0.13606901      -0.09669574
C       -0.60246029      -0.00148267      -1.36374442
C        1.32673490      -1.14346451      -0.33508613
N        2.09577466      -1.98837319      -0.45485913
H        1.74189315       1.55376482      -0.62933488
H        1.59529677       1.19342354       1.07889560
H        0.28563658       2.04241446       0.24481234
H       -0.13134990      -0.05069170       2.26118241
H       -0.36167729      -1.79096532       1.56392298
H       -2.09321698      -0.98045867      -0.12945965
H       -1.88859109       0.78035106       0.23379737
H       -0.62219729      -0.86206519      -2.02294465
H       -0.66240822       0.93442474      -1.90960965
16
Frame=14 idx=011130 GeodesicLength=0.6637787121216989 rxn_smarts="[C:1]([C:2]1([C:6]#[N:7])[C:3]([H:11])([H:12])[C:4]([H:13])([H:14])[C:5]1([H:15])[H:16])([H:8])([H:9])[H:10]>>[C:1]([C:2]1([C:6]#[N:7])[C:4]([H:13])([H:14])[C:5]1([H:15])[H:16])([H:8])([H:9])[H:10].[C:3]([H:11])[H:12]"
C        1.03805456       1.25751527       0.14224964
C        0.36195328      -0.06940813      -0.17826679
C       -0.65646829      -0.74775735       1.58595938
C       -1.41670281      -0.12999588      -0.09069238
C       -0.60345122      -0.00796340      -1.35659536
C        1.34193441      -1.13626082      -0.34125724
N        2.11518240      -1.97687801      -0.46416900
H        1.74815183       1.55355024      -0.63152322
H        1.59703497       1.20241193       1.07699638
H        0.28850026       2.04454563       0.23443246
H       -0.15519041      -0.06343970       2.27662383
H       -0.37292293      -1.80477598       1.55814377
H       -2.11296906      -0.96284598      -0.12634428
H       -1.88421760       0.79299685       0.23675419
H       -0.62789639      -0.87373421      -2.00917200
H       -0.66099300       0.92203953      -1.91313936
16
Frame=15 idx=011130 GeodesicLength=0.7108048618661069 rxn_smarts="[C:1]([C:2]1([C:6]#[N:7])[C:3]([H:11])([H:12])[C:4]([H:13])([H:14])[C:5]1([H:15])[H:16])([H:8])([H:9])[H:10]>>[C:1]([C:2]1([C:6]#[N:7])[C:4]([H:13])([H:14])[C:5]1([H:15])[H:16])([H:8])([H:9])[H:10].[C:3]([H:11])[H:12]"
C        1.04193597       1.25974016       0.13839224
C        0.36751396      -0.07127554      -0.17265274
C       -0.65000775      -0.75676364       1.57486257
C       -1.42150244      -0.12384384      -0.08448915
C       -0.60443265      -0.01456189      -1.34928407
C        1.35729241      -1.12884301      -0.34761368
N        2.13462080      -1.96524891      -0.47358249
H        1.75448387       1.55359921      -0.63391875
H        1.59896768       1.21161091       1.07492158
H        0.29145479       2.04666583       0.22394625
H       -0.18033854      -0.07711678       2.29184708
H       -0.38468293      -1.81842468       1.55210940
H       -2.13243354      -0.94489624      -0.12277307
H       -1.87957742       0.80565495       0.23985827
H       -0.63360821      -0.88561107      -1.99500778
H       -0.65968602       0.90931454      -1.91661569
16
Frame=16 idx=011130 GeodesicLength=0.7576824383877394 rxn_smarts="[C:1]([C:2]1([C:6]#[N:7])[C:3]([H:11])([H:12])[C:4]([H:13])([H:14])[C:5]1([H:15])[H:16])([H:8])([H:9])[H:10]>>[C:1]([C:2]1([C:6]#[N:7])[C:4]([H:13])([H:14])[C:5]1([H:15])[H:16])([H:8])([H:9])[H:10].[C:3]([H:11])[H:12]"
C        1.04588197       1.26201928       0.13436914
C        0.37335343      -0.07310412      -0.16704883
C       -0.64325008      -0.76567861       1.56368428
C       -1.42606518      -0.11756737      -0.07807648
C       -0.60536726      -0.02124896      -1.34169634
C        1.37275997      -1.12123485      -0.35411524
N        2.15403518      -1.95351425      -0.48303567
H        1.76073489       1.55382127      -0.63648693
H        1.60098327       1.22093818       1.07256943
H        0.29441724       2.04872054       0.21332981
H       -0.20682416      -0.09177587       2.30659428
H       -0.39688659      -1.83181322       1.54571987
H       -2.15142334      -0.92654361      -0.11871741
H       -1.87459527       0.81836220       0.24307335
H       -0.63926062      -0.89764004      -1.98028167
H       -0.65849345       0.89625944      -1.91988158
