13
Frame=0 idx=003550 GeodesicLength=0.0 rxn_smarts="[C:1]([C@@:2]([O:3][H:11])([C:4]([C:5]#[N:6])([H:12])[H:13])[H:10])([H:7])([H:8])[H:9]>>[C:1]([C:2](=[O:3])[H:10])([H:7])([H:8])[H:9].[C:4](=[C:5]=[N:6][H:11])([H:12])[H:13]"
C       -1.47330546      -0.51188080       0.28708553
C       -0.32997728      -0.48933714      -0.69161700
O       -0.30311785       0.39330591      -1.59621612
C        1.32478441      -0.07508691       0.75594025
C        1.41749479       1.14229153       0.17455999
N        1.20862590       2.02591738      -0.58453553
H       -2.37651905      -0.78775612      -0.26424269
H       -1.31755682      -1.23911966       1.08319106
H       -1.63568631       0.47906230       0.71258898
H        0.14850245      -1.44963170      -0.91184379
H        0.37673852       1.44035485      -1.24552773
H        2.11742638      -0.78619980       0.55793742
H        0.84259038      -0.14191986       1.72267966
13
Frame=1 idx=003550 GeodesicLength=0.15026639809800652 rxn_smarts="[C:1]([C@@:2]([O:3][H:11])([C:4]([C:5]#[N:6])([H:12])[H:13])[H:10])([H:7])([H:8])[H:9]>>[C:1]([C:2](=[O:3])[H:10])([H:7])([H:8])[H:9].[C:4](=[C:5]=[N:6][H:11])([H:12])[H:13]"
C       -1.49662371      -0.54543937       0.28963852
C       -0.34584619      -0.45262434      -0.67543426
O       -0.35957724       0.44578876      -1.56818640
C        1.32575543      -0.06370283       0.76069107
C        1.49463054       1.13012307       0.14413436
N        1.31586776       2.00756349      -0.63013782
H       -2.38252206      -0.85515815      -0.27191661
H       -1.31530465      -1.28090071       1.07292488
H       -1.70833911       0.42973386       0.72952030
H        0.14232853      -1.39861512      -0.93563908
H        0.38583880       1.46194539      -1.25577911
H        2.08952232      -0.81605154       0.60476574
H        0.85426960      -0.06266249       1.73541840
13
Frame=2 idx=003550 GeodesicLength=0.29408441857453554 rxn_smarts="[C:1]([C@@:2]([O:3][H:11])([C:4]([C:5]#[N:6])([H:12])[H:13])[H:10])([H:7])([H:8])[H:9]>>[C:1]([C:2](=[O:3])[H:10])([H:7])([H:8])[H:9].[C:4](=[C:5]=[N:6][H:11])([H:12])[H:13]"
C       -1.51874527      -0.57955916       0.29157226
C       -0.36312258      -0.41453131      -0.65741045
O       -0.41543712       0.50219855      -1.53360779
C        1.32630343      -0.05002943       0.76648600
C        1.56912770       1.11378388       0.11374965
N        1.42086695       1.98076076      -0.67914263
H       -2.38546093      -0.91953437      -0.28248035
H       -1.31196989      -1.32422348       1.05999851
H       -1.77847056       0.37599459       0.74836143
H        0.13464491      -1.34389062      -0.95882528
H        0.39685336       1.48195914      -1.26744667
H        2.05773624      -0.84146464       0.65336265
H        0.86767376       0.01853609       1.74538266
13
Frame=3 idx=003550 GeodesicLength=0.4321801303583435 rxn_smarts="[C:1]([C@@:2]([O:3][H:11])([C:4]([C:5]#[N:6])([H:12])[H:13])[H:10])([H:7])([H:8])[H:9]>>[C:1]([C:2](=[O:3])[H:10])([H:7])([H:8])[H:9].[C:4](=[C:5]=[N:6][H:11])([H:12])[H:13]"
C       -1.53951224      -0.61371210       0.29258293
C       -0.38150166      -0.37561824      -0.63737114
O       -0.46983804       0.56183734      -1.49233150
C        1.32679006      -0.03432812       0.77321187
C        1.64005131       1.09366491       0.08414465
N        1.52153406       1.94575287      -0.73022539
H       -2.38559619      -0.97961762      -0.29630712
H       -1.30783122      -1.36856060       1.04408621
H       -1.84523472       0.31857118       0.76848619
H        0.12539833      -1.28607344      -0.98080068
H        0.40908514       1.49932565      -1.28132044
H        2.02321051      -0.86176536       0.70315050
H        0.88344467       0.10052353       1.75269393
13
Frame=4 idx=003550 GeodesicLength=0.5665123666042482 rxn_smarts="[C:1]([C@@:2]([O:3][H:11])([C:4]([C:5]#[N:6])([H:12])[H:13])[H:10])([H:7])([H:8])[H:9]>>[C:1]([C:2](=[O:3])[H:10])([H:7])([H:8])[H:9].[C:4](=[C:5]=[N:6][H:11])([H:12])[H:13]"
C       -1.55898109      -0.64774761       0.29236402
C       -0.40072792      -0.33622834      -0.61520700
O       -0.52216919       0.62446867      -1.44413188
C        1.32767067      -0.01668145       0.78087487
C        1.70767327       1.06989966       0.05519630
N        1.61730801       1.90263392      -0.78310161
H       -2.38332026      -1.03494815      -0.31378772
H       -1.30309222      -1.41373396       1.02493932
H       -1.90854833       0.25769057       0.78924214
H        0.11450820      -1.22551419      -1.00134146
H        0.42089453       1.51397723      -1.29713517
H        1.98678140      -0.87686622       0.75457185
H        0.90200294       0.18304988       1.75751634
13
Frame=5 idx=003550 GeodesicLength=0.6960238287960526 rxn_smarts="[C:1]([C@@:2]([O:3][H:11])([C:4]([C:5]#[N:6])([H:12])[H:13])[H:10])([H:7])([H:8])[H:9]>>[C:1]([C:2](=[O:3])[H:10])([H:7])([H:8])[H:9].[C:4](=[C:5]=[N:6][H:11])([H:12])[H:13]"
C       -1.57685123      -0.68020005       0.29063090
C       -0.42006059      -0.29771582      -0.59074521
O       -0.57093478       0.68741301      -1.38969532
C        1.32905362       0.00178667       0.78893723
C        1.76961192       1.04359972       0.02864361
N        1.70391544       1.85474292      -0.83332513
H       -2.37883361      -1.08332893      -0.33482866
H       -1.29840139      -1.45803144       1.00240876
H       -1.96687054       0.19597277       0.80940894
H        0.10240797      -1.16407691      -1.01902005
H        0.43196423       1.52249597      -1.31724474
H        1.95056173      -0.88633578       0.80461389
H        0.92443724       0.26367788       1.76021578
13
Frame=6 idx=003550 GeodesicLength=0.823561483516466 rxn_smarts="[C:1]([C@@:2]([O:3][H:11])([C:4]([C:5]#[N:6])([H:12])[H:13])[H:10])([H:7])([H:8])[H:9]>>[C:1]([C:2](=[O:3])[H:10])([H:7])([H:8])[H:9].[C:4](=[C:5]=[N:6][H:11])([H:12])[H:13]"
C       -1.59368655      -0.71115313       0.28708524
C       -0.43913840      -0.26063781      -0.56426784
O       -0.61537283       0.74974267      -1.33037521
C        1.33189496       0.02098868       0.79737571
C        1.82770957       1.01459008       0.00309962
N        1.78248674       1.80294368      -0.88164774
H       -2.37300760      -1.12531364      -0.35958029
H       -1.29457020      -1.50107020       0.97719722
H       -2.02124707       0.13379059       0.82754545
H        0.08921259      -1.10274119      -1.03362654
H        0.43872700       1.52738006      -1.33853155
H        1.91577357      -0.89082872       0.85485112
H        0.95121821       0.34230893       1.76087482
13
Frame=7 idx=003550 GeodesicLength=0.9487909547786196 rxn_smarts="[C:1]([C@@:2]([O:3][H:11])([C:4]([C:5]#[N:6])([H:12])[H:13])[H:10])([H:7])([H:8])[H:9]>>[C:1]([C:2](=[O:3])[H:10])([H:7])([H:8])[H:9].[C:4](=[C:5]=[N:6][H:11])([H:12])[H:13]"
C       -1.60951244      -0.74030649       0.28157492
C       -0.45750214      -0.22541580      -0.53573882
O       -0.65512687       0.81030558      -1.26668332
C        1.33620351       0.04063060       0.80593699
C        1.88195403       0.98278312      -0.02166411
N        1.85313112       1.74761603      -0.92792976
H       -2.36563011      -1.16106955      -0.38792056
H       -1.29177048      -1.54215183       0.94948359
H       -2.07220688       0.07190823       0.84265800
H        0.07540480      -1.04210005      -1.04487075
H        0.43965951       1.52937767      -1.35925083
H        1.88293778      -0.89053386       0.90503435
H        0.98245819       0.41895634       1.75937030
13
Frame=8 idx=003550 GeodesicLength=1.0733690538457559 rxn_smarts="[C:1]([C@@:2]([O:3][H:11])([C:4]([C:5]#[N:6])([H:12])[H:13])[H:10])([H:7])([H:8])[H:9]>>[C:1]([C:2](=[O:3])[H:10])([H:7])([H:8])[H:9].[C:4](=[C:5]=[N:6][H:11])([H:12])[H:13]"
C       -1.62478773      -0.76769930       0.27400456
C       -0.47497189      -0.19252995      -0.50534220
O       -0.69037002       0.86801471      -1.20005456
C        1.34241511       0.06048887       0.81467413
C        1.93296459       0.94833706      -0.04587379
N        1.91665392       1.68958463      -0.97247942
H       -2.35726555      -1.19124319      -0.41970229
H       -1.29056775      -1.58116925       0.91990206
H       -2.12058590       0.01101471       0.85377607
H        0.06123727      -0.98305554      -1.05250776
H        0.43360072       1.53051341      -1.37781303
H        1.85294164      -0.88587219       0.95557539
H        1.01873560       0.49361601       1.75584084
13
Frame=9 idx=003550 GeodesicLength=1.1960111333758452 rxn_smarts="[C:1]([C@@:2]([O:3][H:11])([C:4]([C:5]#[N:6])([H:12])[H:13])[H:10])([H:7])([H:8])[H:9]>>[C:1]([C:2](=[O:3])[H:10])([H:7])([H:8])[H:9].[C:4](=[C:5]=[N:6][H:11])([H:12])[H:13]"
C       -1.63929197      -0.79301393       0.26438607
C       -0.49134545      -0.16223579      -0.47298285
O       -0.72136051       0.92198265      -1.13103127
C        1.35013769       0.08033935       0.82332645
C        1.98000989       0.91175602      -0.06904288
N        1.97306123       1.62924706      -1.01473416
H       -2.34743161      -1.21597796      -0.45442262
H       -1.29092225      -1.61760327       0.88861754
H       -2.16638198      -0.04792486       0.86032557
H        0.04718917      -0.92603795      -1.05625079
H        0.42046267       1.53064993      -1.39385505
H        1.82623981      -0.87697043       1.00559382
H        1.05963332       0.56578918       1.75007016
13
Frame=10 idx=003550 GeodesicLength=1.3184495055577439 rxn_smarts="[C:1]([C@@:2]([O:3][H:11])([C:4]([C:5]#[N:6])([H:12])[H:13])[H:10])([H:7])([H:8])[H:9]>>[C:1]([C:2](=[O:3])[H:10])([H:7])([H:8])[H:9].[C:4](=[C:5]=[N:6][H:11])([H:12])[H:13]"
C       -1.65343987      -0.81680981       0.25279434
C       -0.50668169      -0.13441036      -0.43889428
O       -0.74895855       0.97225036      -1.06022308
C        1.35960737       0.10048318       0.83205808
C        2.02431646       0.87237956      -0.09198477
N        2.02407249       1.56604406      -1.05589554
H       -2.33637046      -1.23635269      -0.49196028
H       -1.29290769      -1.65197885       0.85609956
H       -2.21084038      -0.10560564       0.86218695
H        0.03329791      -0.87081132      -1.05664213
H        0.40013330       1.53229604      -1.40596926
H        1.80253503      -0.86391716       1.05653290
H        1.10523608       0.63643262       1.74189752
13
Frame=11 idx=003550 GeodesicLength=1.4404269457358974 rxn_smarts="[C:1]([C@@:2]([O:3][H:11])([C:4]([C:5]#[N:6])([H:12])[H:13])[H:10])([H:7])([H:8])[H:9]>>[C:1]([C:2](=[O:3])[H:10])([H:7])([H:8])[H:9].[C:4](=[C:5]=[N:6][H:11])([H:12])[H:13]"
C       -1.66714039      -0.83919192       0.23926988
C       -0.52104431      -0.10901718      -0.40302308
O       -0.77376547       1.01886349      -0.98749324
C        1.37056742       0.12106485       0.84083530
C        2.06573686       0.83028534      -0.11447703
N        2.07024703       1.49964056      -1.09600245
H       -2.32386616      -1.25256675      -0.53204390
H       -1.29631010      -1.68455546       0.82220679
H       -2.25407400      -0.16202377       0.85940000
H        0.01968917      -0.81718535      -1.05383669
H        0.37303785       1.53547551      -1.41425437
H        1.78177194      -0.84655114       1.10843126
H        1.15515016       0.70576182       1.73098751
13
Frame=12 idx=003550 GeodesicLength=1.5621156293914753 rxn_smarts="[C:1]([C@@:2]([O:3][H:11])([C:4]([C:5]#[N:6])([H:12])[H:13])[H:10])([H:7])([H:8])[H:9]>>[C:1]([C:2](=[O:3])[H:10])([H:7])([H:8])[H:9].[C:4](=[C:5]=[N:6][H:11])([H:12])[H:13]"
C       -1.68037206      -0.86032722       0.22384360
C       -0.53452524      -0.08604261      -0.36540239
O       -0.79632806       1.06192713      -0.91274256
C        1.38288928       0.14228992       0.84966479
C        2.10434998       0.78544510      -0.13636074
N        2.11225087       1.42963881      -1.13516067
H       -2.30988485      -1.26478848      -0.57444649
H       -1.30095956      -1.71569961       0.78679118
H       -2.29619080      -0.21731465       0.85207349
H        0.00642384      -0.76494580      -1.04805395
H        0.33942599       1.54040914      -1.41872817
H        1.76388206      -0.82464180       1.16153989
H        1.20903854       0.77405009       1.71698202
13
Frame=13 idx=003550 GeodesicLength=1.6833159546822969 rxn_smarts="[C:1]([C@@:2]([O:3][H:11])([C:4]([C:5]#[N:6])([H:12])[H:13])[H:10])([H:7])([H:8])[H:9]>>[C:1]([C:2](=[O:3])[H:10])([H:7])([H:8])[H:9].[C:4](=[C:5]=[N:6][H:11])([H:12])[H:13]"
C       -1.69295758      -0.88023461       0.20654670
C       -0.54716053      -0.06552087      -0.32608357
O       -0.81700813       1.10141476      -0.83580988
C        1.39632916       0.16434606       0.85850766
C        2.14003732       0.73803559      -0.15723922
N        2.15055399       1.35560042      -1.17327437
H       -2.29432203      -1.27291838      -0.61887814
H       -1.30660339      -1.74559666       0.74958112
H       -2.33696516      -0.27149011       0.84041878
H       -0.00637320      -0.71387403      -1.03947321
H        0.29937245       1.54685422      -1.41961173
H        1.74875757      -0.79789219       1.21572512
H        1.26633955       0.84127581       1.69959074
13
Frame=14 idx=003550 GeodesicLength=1.804364219240223 rxn_smarts="[C:1]([C@@:2]([O:3][H:11])([C:4]([C:5]#[N:6])([H:12])[H:13])[H:10])([H:7])([H:8])[H:9]>>[C:1]([C:2](=[O:3])[H:10])([H:7])([H:8])[H:9].[C:4](=[C:5]=[N:6][H:11])([H:12])[H:13]"
C       -1.70484577      -0.89909901       0.18734963
C       -0.55904388      -0.04747539      -0.28518686
O       -0.83628251       1.13745952      -0.75645608
C        1.41084888       0.18749457       0.86729774
C        2.17302265       0.68764060      -0.17701808
N        2.18583038       1.27665251      -1.21040754
H       -2.27716049      -1.27705489      -0.66517852
H       -1.31296212      -1.77461976       0.71025697
H       -2.37642280      -0.32478773       0.82453782
H       -0.01871938      -0.66370692      -1.02838846
H        0.25275214       1.55540231      -1.41641591
H        1.73627517      -0.76584221       1.27148183
H        1.32670773       0.90793641       1.67812746
13
Frame=15 idx=003550 GeodesicLength=1.9252284333816851 rxn_smarts="[C:1]([C@@:2]([O:3][H:11])([C:4]([C:5]#[N:6])([H:12])[H:13])[H:10])([H:7])([H:8])[H:9]>>[C:1]([C:2](=[O:3])[H:10])([H:7])([H:8])[H:9].[C:4](=[C:5]=[N:6][H:11])([H:12])[H:13]"
C       -1.71582502      -0.91694963       0.16622083
C       -0.57021228      -0.03197234      -0.24284261
O       -0.85446855       1.17003397      -0.67438715
C        1.42628335       0.21197165       0.87592079
C        2.20330189       0.63411218      -0.19526465
N        2.21857164       1.19184453      -1.24637049
H       -2.25834908      -1.27702696      -0.71311954
H       -1.31965338      -1.80294937       0.66834975
H       -2.41424508      -0.37730229       0.80464860
H       -0.03055934      -0.61414311      -1.01504419
H        0.19926523       1.56613693      -1.40892962
H        1.72629066      -0.72793809       1.32882025
H        1.38959997       0.97418253       1.65199803
13
Frame=16 idx=003550 GeodesicLength=2.045937022939715 rxn_smarts="[C:1]([C@@:2]([O:3][H:11])([C:4]([C:5]#[N:6])([H:12])[H:13])[H:10])([H:7])([H:8])[H:9]>>[C:1]([C:2](=[O:3])[H:10])([H:7])([H:8])[H:9].[C:4](=[C:5]=[N:6][H:11])([H:12])[H:13]"
C       -1.72566158      -0.93381885       0.14309720
C       -0.58069555      -0.01907354      -0.19923094
O       -0.87189119       1.19909029      -0.58926467
C        1.44249716       0.23804503       0.88420491
C        2.23092893       0.57716568      -0.21148773
N        2.24930995       1.09992001      -1.28087125
H       -2.23786058      -1.27265001      -0.76249628
H       -1.32620430      -1.83073293       0.62330568
H       -2.45008838      -0.42918822       0.78097448
H       -0.04186597      -0.56479452      -0.99972162
H        0.13840471       1.57931515      -1.39672603
H        1.71861115      -0.68348299       1.38775004
H        1.45451564       1.04020490       1.62046622
