14
Frame=0 idx=001816 GeodesicLength=0.0 rxn_smarts="[O:1]([C:2]([C:3]([C:4]([C:5]#[C:6][H:14])([H:12])[H:13])([H:10])[H:11])([H:8])[H:9])[H:7]>>[H:7][H:8].[O:1]=[C:2]([C:3]([C:4]([C:5]#[C:6][H:14])([H:12])[H:13])([H:10])[H:11])[H:9]"
O       -2.50416196       0.88363574       0.40359017
C       -1.40762397       0.41530251      -0.17064268
C       -0.64003760      -0.69003739       0.52273640
C        0.66280027      -1.10301069      -0.16482371
C        1.66324661      -0.03659992      -0.18918819
C        2.46811433       0.85028459      -0.20167461
H       -1.31256968       1.63219188       0.20298829
H       -0.44230502       1.43381251      -0.15480722
H       -1.39974717       0.31130873      -1.27268559
H       -1.34010176      -1.53147193       0.52332618
H       -0.47751062      -0.41114005       1.56416178
H        1.08468651      -1.97103837       0.34591787
H        0.45813055      -1.41836105      -1.19237055
H        3.18707946       1.63512349      -0.21652817
14
Frame=1 idx=001816 GeodesicLength=0.1047561129066324 rxn_smarts="[O:1]([C:2]([C:3]([C:4]([C:5]#[C:6][H:14])([H:12])[H:13])([H:10])[H:11])([H:8])[H:9])[H:7]>>[H:7][H:8].[O:1]=[C:2]([C:3]([C:4]([C:5]#[C:6][H:14])([H:12])[H:13])([H:10])[H:11])[H:9]"
O       -2.49620635       0.88192997       0.42067197
C       -1.41083688       0.40775031      -0.16800946
C       -0.63710784      -0.69328608       0.52461991
C        0.66334851      -1.10204922      -0.16984606
C        1.66324982      -0.03510831      -0.19005151
C        2.47482063       0.84574053      -0.19164285
H       -1.31829813       1.66188401       0.19317112
H       -0.45221417       1.45572081      -0.19527054
H       -1.42816131       0.28666011      -1.26809893
H       -1.33162278      -1.53930469       0.53294843
H       -0.46927968      -0.41182792       1.56457685
H        1.08695905      -1.97326495       0.33408387
H        0.45639590      -1.41080624      -1.19894057
H        3.19895324       1.62596168      -0.18821224
14
Frame=2 idx=001816 GeodesicLength=0.20911499523810415 rxn_smarts="[O:1]([C:2]([C:3]([C:4]([C:5]#[C:6][H:14])([H:12])[H:13])([H:10])[H:11])([H:8])[H:9])[H:7]>>[H:7][H:8].[O:1]=[C:2]([C:3]([C:4]([C:5]#[C:6][H:14])([H:12])[H:13])([H:10])[H:11])[H:9]"
O       -2.48631839       0.88196797       0.43821266
C       -1.41342482       0.40009156      -0.16520686
C       -0.63419308      -0.69715208       0.52652259
C        0.66396140      -1.10146660      -0.17477234
C        1.66320261      -0.03387896      -0.19060511
C        2.48061812       0.84155041      -0.18176611
H       -1.32300869       1.69258984       0.18297691
H       -0.46283216       1.47697092      -0.23736474
H       -1.45637948       0.26197042      -1.26247213
H       -1.32337405      -1.54744596       0.54194947
H       -0.46119789      -0.41356183       1.56511580
H        1.08934873      -1.97582321       0.32226100
H        0.45477843      -1.40347655      -1.20542788
H        3.20881927       1.61766406      -0.15942327
14
Frame=3 idx=001816 GeodesicLength=0.31323362059136095 rxn_smarts="[O:1]([C:2]([C:3]([C:4]([C:5]#[C:6][H:14])([H:12])[H:13])([H:10])[H:11])([H:8])[H:9])[H:7]>>[H:7][H:8].[O:1]=[C:2]([C:3]([C:4]([C:5]#[C:6][H:14])([H:12])[H:13])([H:10])[H:11])[H:9]"
O       -2.47442590       0.88379283       0.45606450
C       -1.41537404       0.39229543      -0.16227441
C       -0.63134743      -0.70171413       0.52842605
C        0.66464912      -1.10127084      -0.17953980
C        1.66307974      -0.03288905      -0.19067670
C        2.48544540       0.83780440      -0.17181592
H       -1.32659290       1.72439851       0.17255237
H       -0.47425512       1.49753176      -0.28086659
H       -1.48428507       0.23735561      -1.25584403
H       -1.31543107      -1.55598529       0.55018278
H       -0.45340856      -0.41650216       1.56580224
H        1.09186029      -1.97871966       0.31051210
H        0.45336955      -1.39634756      -1.21178828
H        3.21671598       1.61025015      -0.13073430
14
Frame=4 idx=001816 GeodesicLength=0.41729235124135555 rxn_smarts="[O:1]([C:2]([C:3]([C:4]([C:5]#[C:6][H:14])([H:12])[H:13])([H:10])[H:11])([H:8])[H:9])[H:7]>>[H:7][H:8].[O:1]=[C:2]([C:3]([C:4]([C:5]#[C:6][H:14])([H:12])[H:13])([H:10])[H:11])[H:9]"
O       -2.46032522       0.88750446       0.47419904
C       -1.41670560       0.38429265      -0.15922139
C       -0.62852951      -0.70698745       0.53035785
C        0.66539725      -1.10150795      -0.18421134
C        1.66282950      -0.03215894      -0.19054062
C        2.48922302       0.83454445      -0.16221414
H       -1.32888121       1.75747217       0.16182893
H       -0.48662469       1.51733816      -0.32578641
H       -1.51194627       0.21278879      -1.24820616
H       -1.30777032      -1.56494628       0.55779481
H       -0.44577444      -0.42059668       1.56663514
H        1.09456040      -1.98193352       0.29882029
H        0.45205673      -1.38957440      -1.21803195
H        3.22249036       1.60376454      -0.10142404
14
Frame=5 idx=001816 GeodesicLength=0.5213711376997126 rxn_smarts="[O:1]([C:2]([C:3]([C:4]([C:5]#[C:6][H:14])([H:12])[H:13])([H:10])[H:11])([H:8])[H:9])[H:7]>>[H:7][H:8].[O:1]=[C:2]([C:3]([C:4]([C:5]#[C:6][H:14])([H:12])[H:13])([H:10])[H:11])[H:9]"
O       -2.44414045       0.89298519       0.49224453
C       -1.41740105       0.37605856      -0.15615688
C       -0.62595122      -0.71315397       0.53222666
C        0.66624292      -1.10214956      -0.18852592
C        1.66244991      -0.03162514      -0.18937229
C        2.49189645       0.83189697      -0.15172476
H       -1.32985527       1.79185018       0.15124998
H       -0.49998194       1.53647697      -0.37137975
H       -1.53892878       0.18864255      -1.23975363
H       -1.30061211      -1.57453354       0.56423594
H       -0.43887042      -0.42628981       1.56766003
H        1.09735481      -1.98552279       0.28740086
H        0.45123052      -1.38291023      -1.22401961
H        3.22656662       1.59827463      -0.07408518
14
Frame=6 idx=001816 GeodesicLength=0.6256328882594521 rxn_smarts="[O:1]([C:2]([C:3]([C:4]([C:5]#[C:6][H:14])([H:12])[H:13])([H:10])[H:11])([H:8])[H:9])[H:7]>>[H:7][H:8].[O:1]=[C:2]([C:3]([C:4]([C:5]#[C:6][H:14])([H:12])[H:13])([H:10])[H:11])[H:9]"
O       -2.42553857       0.90035196       0.51024122
C       -1.41752761       0.36748479      -0.15303970
C       -0.62344988      -0.72014211       0.53411447
C        0.66715456      -1.10326355      -0.19269668
C        1.66187741      -0.03134229      -0.18794251
C        2.49339897       0.82984182      -0.14147592
H       -1.32935543       1.82778467       0.14048159
H       -0.51452256       1.55487993      -0.41784297
H       -1.56555449       0.16471384      -1.23040772
H       -1.29379818      -1.58469093       0.56999652
H       -0.43222952      -0.43326665       1.56884939
H        1.10038959      -1.98942280       0.27612258
H        0.45055574      -1.37667960      -1.22983665
H        3.22859997       1.59375092      -0.04656362
14
Frame=7 idx=001816 GeodesicLength=0.7301168819303001 rxn_smarts="[O:1]([C:2]([C:3]([C:4]([C:5]#[C:6][H:14])([H:12])[H:13])([H:10])[H:11])([H:8])[H:9])[H:7]>>[H:7][H:8].[O:1]=[C:2]([C:3]([C:4]([C:5]#[C:6][H:14])([H:12])[H:13])([H:10])[H:11])[H:9]"
O       -2.40454542       0.90948571       0.52793403
C       -1.41711291       0.35851079      -0.14993273
C       -0.62111135      -0.72803604       0.53598241
C        0.66814928      -1.10484695      -0.19660865
C        1.66109862      -0.03128562      -0.18593821
C        2.49368836       0.82843369      -0.13103253
H       -1.32743782       1.86540007       0.12968228
H       -0.53033941       1.57263462      -0.46463121
H       -1.59159776       0.14120579      -1.22031497
H       -1.28740130      -1.59553098       0.57487979
H       -0.42608870      -0.44168485       1.57021185
H        1.10364212      -1.99364537       0.26510702
H        0.45019304      -1.37082194      -1.23540502
H        3.22886324       1.59018109      -0.01993406
14
Frame=8 idx=001816 GeodesicLength=0.8348840255774417 rxn_smarts="[O:1]([C:2]([C:3]([C:4]([C:5]#[C:6][H:14])([H:12])[H:13])([H:10])[H:11])([H:8])[H:9])[H:7]>>[H:7][H:8].[O:1]=[C:2]([C:3]([C:4]([C:5]#[C:6][H:14])([H:12])[H:13])([H:10])[H:11])[H:9]"
O       -2.38095479       0.92041251       0.54521881
C       -1.41621461       0.34904024      -0.14682480
C       -0.61884118      -0.73680881       0.53787341
C        0.66922065      -1.10694493      -0.20037222
C        1.66008534      -0.03149158      -0.18376042
C        2.49274517       0.82764963      -0.12091537
H       -1.32411596       1.90491516       0.11863728
H       -0.54759082       1.58977311      -0.51159837
H       -1.61721524       0.11805514      -1.20946953
H       -1.28131989      -1.60704444       0.57916226
H       -0.42019603      -0.45136771       1.57172602
H        1.10720289      -1.99816620       0.25429202
H        0.44998116      -1.36552730      -1.24077697
H        3.22721332       1.58750519       0.00680787
14
Frame=9 idx=001816 GeodesicLength=0.9396215240230976 rxn_smarts="[O:1]([C:2]([C:3]([C:4]([C:5]#[C:6][H:14])([H:12])[H:13])([H:10])[H:11])([H:8])[H:9])[H:7]>>[H:7][H:8].[O:1]=[C:2]([C:3]([C:4]([C:5]#[C:6][H:14])([H:12])[H:13])([H:10])[H:11])[H:9]"
O       -2.35468698       0.93266700       0.56210823
C       -1.41488328       0.33906562      -0.14360850
C       -0.61674087      -0.74655668       0.53974915
C        0.67038008      -1.10951535      -0.20383006
C        1.65889583      -0.03195999      -0.18080209
C        2.49068687       0.82740447      -0.11035394
H       -1.32021656       1.94657984       0.10652406
H       -0.56618042       1.60649964      -0.55768935
H       -1.64199457       0.09569761      -1.19789550
H       -1.27557923      -1.61935176       0.58252702
H       -0.41486949      -0.46257258       1.57341622
H        1.11093555      -2.00307456       0.24371638
H        0.45011499      -1.36051056      -1.24588162
H        3.22413810       1.58562730       0.03201997
14
Frame=10 idx=001816 GeodesicLength=1.044549401715107 rxn_smarts="[O:1]([C:2]([C:3]([C:4]([C:5]#[C:6][H:14])([H:12])[H:13])([H:10])[H:11])([H:8])[H:9])[H:7]>>[H:7][H:8].[O:1]=[C:2]([C:3]([C:4]([C:5]#[C:6][H:14])([H:12])[H:13])([H:10])[H:11])[H:9]"
O       -2.32563157       0.94645521       0.57825952
C       -1.41318837       0.32847033      -0.14036696
C       -0.61472581      -0.75723984       0.54165187
C        0.67162968      -1.11260943      -0.20709880
C        1.65747301      -0.03270610      -0.17754839
C        2.48747245       0.82770624      -0.09985490
H       -1.31545369       1.99046964       0.09385189
H       -0.58628612       1.62291835      -0.60311453
H       -1.66623145       0.07386139      -1.18571411
H       -1.27013082      -1.63244429       0.58530186
H       -0.40985074      -0.47507505       1.57526950
H        1.11498692      -2.00830058       0.23336442
H        0.45044865      -1.35603883      -1.25076433
H        3.21948786       1.58453295       0.05676297
14
Frame=11 idx=001816 GeodesicLength=1.1496807851703903 rxn_smarts="[O:1]([C:2]([C:3]([C:4]([C:5]#[C:6][H:14])([H:12])[H:13])([H:10])[H:11])([H:8])[H:9])[H:7]>>[H:7][H:8].[O:1]=[C:2]([C:3]([C:4]([C:5]#[C:6][H:14])([H:12])[H:13])([H:10])[H:11])[H:9]"
O       -2.29375753       0.96160532       0.59354373
C       -1.41118495       0.31718975      -0.13711289
C       -0.61281085      -0.76887943       0.54356395
C        0.67297862      -1.11622292      -0.21013515
C        1.65582768      -0.03373623      -0.17388148
C        2.48317054       0.82850226      -0.08925688
H       -1.31021466       2.03677700       0.08052250
H       -0.60790438       1.63923700      -0.64743997
H       -1.68982863       0.05260033      -1.17304236
H       -1.26494472      -1.64637473       0.58745413
H       -0.40521008      -0.48888061       1.57726981
H        1.11933762      -2.01385220       0.22328189
H        0.45104207      -1.35208586      -1.25538717
H        3.21349926       1.58412033       0.08061990
14
Frame=12 idx=001816 GeodesicLength=1.2550096902102885 rxn_smarts="[O:1]([C:2]([C:3]([C:4]([C:5]#[C:6][H:14])([H:12])[H:13])([H:10])[H:11])([H:8])[H:9])[H:7]>>[H:7][H:8].[O:1]=[C:2]([C:3]([C:4]([C:5]#[C:6][H:14])([H:12])[H:13])([H:10])[H:11])[H:9]"
O       -2.25888186       0.97800440       0.60783116
C       -1.40893359       0.30516671      -0.13379588
C       -0.61094413      -0.78146088       0.54550936
C        0.67442842      -1.12037329      -0.21298434
C        1.65397941      -0.03508859      -0.16991399
C        2.47789013       0.82967755      -0.07866268
H       -1.30495122       2.08570945       0.06626425
H       -0.63101270       1.65566652      -0.69039248
H       -1.71284779       0.03188521      -1.15988834
H       -1.25994116      -1.66114834       0.58912224
H       -0.40083213      -0.50389716       1.57940915
H        1.12400429      -2.01974852       0.21341203
H        0.45183191      -1.34868977      -1.25978140
H        3.20621043       1.58429672       0.10387092
14
Frame=13 idx=001816 GeodesicLength=1.360460413825573 rxn_smarts="[O:1]([C:2]([C:3]([C:4]([C:5]#[C:6][H:14])([H:12])[H:13])([H:10])[H:11])([H:8])[H:9])[H:7]>>[H:7][H:8].[O:1]=[C:2]([C:3]([C:4]([C:5]#[C:6][H:14])([H:12])[H:13])([H:10])[H:11])[H:9]"
O       -2.22094984       0.99545998       0.62100847
C       -1.40648570       0.29236268      -0.13038943
C       -0.60912555      -0.79499642       0.54748291
C        0.67599592      -1.12505085      -0.21560428
C        1.65195828      -0.03678035      -0.16550544
C        2.47173960       0.83112396      -0.06785917
H       -1.30038673       2.13744724       0.05085986
H       -0.65554220       1.67246591      -0.73154842
H       -1.73517951       0.01179540      -1.14634724
H       -1.25508257      -1.67680256       0.59028354
H       -0.39676229      -0.52013085       1.58168505
H        1.12896226      -2.02600903       0.20377507
H        0.45287616      -1.34578699      -1.26392144
H        3.19798217       1.58490189       0.12608051
14
Frame=14 idx=001816 GeodesicLength=1.4659718605596486 rxn_smarts="[O:1]([C:2]([C:3]([C:4]([C:5]#[C:6][H:14])([H:12])[H:13])([H:10])[H:11])([H:8])[H:9])[H:7]>>[H:7][H:8].[O:1]=[C:2]([C:3]([C:4]([C:5]#[C:6][H:14])([H:12])[H:13])([H:10])[H:11])[H:9]"
O       -2.17969325       1.01388384       0.63295794
C       -1.40386540       0.27876187      -0.12678970
C       -0.60727027      -0.80945686       0.54952381
C        0.67768930      -1.13027709      -0.21806510
C        1.64981923      -0.03887611      -0.16079373
C        2.46487622       0.83268296      -0.05697547
H       -1.29730605       2.19219157       0.03387313
H       -0.68141025       1.68987900      -0.77068028
H       -1.75693052      -0.00769744      -1.13234476
H       -1.25027098      -1.69331632       0.59110119
H       -0.39282196      -0.53748113       1.58410211
H        1.13422470      -2.03267524       0.19425888
H        0.45408316      -1.34339445      -1.26786475
H        3.18887609       1.58577542       0.14769672
14
Frame=15 idx=001816 GeodesicLength=1.5715331869205644 rxn_smarts="[O:1]([C:2]([C:3]([C:4]([C:5]#[C:6][H:14])([H:12])[H:13])([H:10])[H:11])([H:8])[H:9])[H:7]>>[H:7][H:8].[O:1]=[C:2]([C:3]([C:4]([C:5]#[C:6][H:14])([H:12])[H:13])([H:10])[H:11])[H:9]"
O       -2.13489609       1.03315056       0.64357877
C       -1.40109357       0.26436486      -0.12289300
C       -0.60532338      -0.82483007       0.55165722
C        0.67952247      -1.13605514      -0.22038384
C        1.64761908      -0.04142657      -0.15576706
C        2.45746659       0.83419018      -0.04595077
H       -1.29676084       2.25011093       0.01491474
H       -0.70847530       1.70818263      -0.80752680
H       -1.77807100      -0.02653070      -1.11785691
H       -1.24543457      -1.71068663       0.59164032
H       -0.38892598      -0.55591347       1.58667151
H        1.13977690      -2.03978585       0.18479725
H        0.45542810      -1.34146108      -1.27162970
H        3.17916761       1.58669033       0.16874826
14
Frame=16 idx=001816 GeodesicLength=1.6771438904309162 rxn_smarts="[O:1]([C:2]([C:3]([C:4]([C:5]#[C:6][H:14])([H:12])[H:13])([H:10])[H:11])([H:8])[H:9])[H:7]>>[H:7][H:8].[O:1]=[C:2]([C:3]([C:4]([C:5]#[C:6][H:14])([H:12])[H:13])([H:10])[H:11])[H:9]"
O       -2.08620823       1.05318056       0.65277933
C       -1.39814083       0.24922948      -0.11854326
C       -0.60318403      -0.84107281       0.55392538
C        0.68150770      -1.14240303      -0.22263051
C        1.64545347      -0.04452311      -0.15052277
C        2.44973383       0.83543362      -0.03483551
H       -1.30002205       2.31132566      -0.00655077
H       -0.73653908       1.72764318      -0.84193793
H       -1.79866513      -0.04464393      -1.10273340
H       -1.24048419      -1.72885835       0.59202580
H       -0.38487968      -0.57535317       1.58940767
H        1.14559940      -2.04740503       0.17524755
H        0.45681812      -1.33994969      -1.27527535
H        3.16901069       1.58739663       0.18964376
