10
Frame=0 idx=002465 GeodesicLength=0.0 rxn_smarts="[O:1]=[C:2]1[C:3]([H:6])([H:7])[C:4]([H:8])([H:9])[N:5]1[H:10]>>[O+:1]1=[C:2]([N:5]([C-:4]([H:8])[H:9])[H:10])[C:3]1([H:6])[H:7]"
O        1.95578433       0.66196414       0.08440933
C        0.79351279       0.15615446      -0.04691081
C        0.41776491       1.45170555       0.32922397
C       -1.28954886      -0.83576173      -0.13972369
N        0.16786790      -0.91964679      -0.32896260
H        0.33532916       1.70474659       1.37568146
H        0.23116051       2.19369287      -0.43465327
H       -1.53781725      -1.36542843       0.78252115
H       -1.77133553      -1.31551379      -0.99279440
H        0.69728205      -1.73191288      -0.62879117
10
Frame=1 idx=002465 GeodesicLength=0.066702519196396 rxn_smarts="[O:1]=[C:2]1[C:3]([H:6])([H:7])[C:4]([H:8])([H:9])[N:5]1[H:10]>>[O+:1]1=[C:2]([N:5]([C-:4]([H:8])[H:9])[H:10])[C:3]1([H:6])[H:7]"
O        1.96220092       0.67190456       0.08556673
C        0.81201524       0.16114981      -0.11288560
C        0.39713834       1.42893014       0.32608086
C       -1.26984096      -0.81610852      -0.14808509
N        0.18012415      -0.93114687      -0.32896410
H        0.31091015       1.65184035       1.37954863
H        0.21000749       2.20065146      -0.40821102
H       -1.54102119      -1.29685144       0.79366015
H       -1.76431031      -1.31470747      -0.98257994
H        0.70277617      -1.75566202      -0.60413063
10
Frame=2 idx=002465 GeodesicLength=0.13395073768898033 rxn_smarts="[O:1]=[C:2]1[C:3]([H:6])([H:7])[C:4]([H:8])([H:9])[N:5]1[H:10]>>[O+:1]1=[C:2]([N:5]([C-:4]([H:8])[H:9])[H:10])[C:3]1([H:6])[H:7]"
O        1.96635889       0.67786263       0.08896859
C        0.82870678       0.16521538      -0.16943343
C        0.37730468       1.40594115       0.32190953
C       -1.25035251      -0.79854686      -0.15381420
N        0.19175472      -0.93952951      -0.32818012
H        0.28777155       1.60488894       1.38033673
H        0.19023343       2.20287756      -0.38556981
H       -1.54159316      -1.23468177       0.80287532
H       -1.75767610      -1.31061093      -0.97183486
H        0.70749171      -1.77341660      -0.58525775
10
Frame=3 idx=002465 GeodesicLength=0.2015213145707314 rxn_smarts="[O:1]=[C:2]1[C:3]([H:6])([H:7])[C:4]([H:8])([H:9])[N:5]1[H:10]>>[O+:1]1=[C:2]([N:5]([C-:4]([H:8])[H:9])[H:10])[C:3]1([H:6])[H:7]"
O        1.96926008       0.68128357       0.09441008
C        0.84442921       0.16777481      -0.21589766
C        0.35819814       1.38333377       0.31699797
C       -1.23109460      -0.78278094      -0.15689144
N        0.20291081      -0.94619323      -0.32711150
H        0.26513592       1.56436854       1.37885056
H        0.17157347       2.20089252      -0.36728792
H       -1.53999867      -1.17867568       0.81104840
H       -1.75182743      -1.30294319      -0.96087122
H        0.71141306      -1.78706017      -0.57324728
10
Frame=4 idx=002465 GeodesicLength=0.26939962328372685 rxn_smarts="[O:1]=[C:2]1[C:3]([H:6])([H:7])[C:4]([H:8])([H:9])[N:5]1[H:10]>>[O+:1]1=[C:2]([N:5]([C-:4]([H:8])[H:9])[H:10])[C:3]1([H:6])[H:7]"
O        1.97129299       0.68322330       0.10095845
C        0.85947734       0.16927920      -0.25508542
C        0.33983153       1.36123689       0.31168730
C       -1.21206098      -0.76847945      -0.15812693
N        0.21359811      -0.95179629      -0.32583571
H        0.24318401       1.52847851       1.37596584
H        0.15343545       2.19608728      -0.35212486
H       -1.53700205      -1.12711752       0.81838566
H       -1.74641519      -1.29271297      -0.94997813
H        0.71465880      -1.79819895      -0.56584620
10
Frame=5 idx=002465 GeodesicLength=0.337579527120491 rxn_smarts="[O:1]=[C:2]1[C:3]([H:6])([H:7])[C:4]([H:8])([H:9])[N:5]1[H:10]>>[O+:1]1=[C:2]([N:5]([C-:4]([H:8])[H:9])[H:10])[C:3]1([H:6])[H:7]"
O        1.97283284       0.68431530       0.10739176
C        0.87386772       0.17010199      -0.28900915
C        0.32214053       1.33963954       0.30627969
C       -1.19330649      -0.75533956      -0.15813945
N        0.22393927      -0.95675298      -0.32418361
H        0.22223605       1.49591219       1.37248423
H        0.13527968       2.18930783      -0.33904860
H       -1.53335374      -1.07877894       0.82487642
H       -1.74111884      -1.28058562      -0.93960812
H        0.71748298      -1.80781975      -0.56104319
10
Frame=6 idx=002465 GeodesicLength=0.4059004382040904 rxn_smarts="[O:1]=[C:2]1[C:3]([H:6])([H:7])[C:4]([H:8])([H:9])[N:5]1[H:10]>>[O+:1]1=[C:2]([N:5]([C-:4]([H:8])[H:9])[H:10])[C:3]1([H:6])[H:7]"
O        1.97391808       0.68504459       0.11312773
C        0.88751295       0.17056550      -0.31899445
C        0.30517300       1.31856219       0.30091288
C       -1.17483353      -0.74325267      -0.15731255
N        0.23392370      -0.96129874      -0.32202627
H        0.20255238       1.46578239       1.36865092
H        0.11703995       2.18119206      -0.32727270
H       -1.52940935      -1.03305916       0.83037256
H       -1.73573532      -1.26708166      -0.92992352
H        0.71985814      -1.81645451      -0.55753460
10
Frame=7 idx=002465 GeodesicLength=0.47438009388186786 rxn_smarts="[O:1]=[C:2]1[C:3]([H:6])([H:7])[C:4]([H:8])([H:9])[N:5]1[H:10]>>[O+:1]1=[C:2]([N:5]([C-:4]([H:8])[H:9])[H:10])[C:3]1([H:6])[H:7]"
O        1.97475431       0.68551517       0.11803507
C        0.90053678       0.17080617      -0.34600007
C        0.28886628       1.29796742       0.29565945
C       -1.15672627      -0.73209485      -0.15581021
N        0.24359702      -0.96552362      -0.31941765
H        0.18405432       1.43756189       1.36475589
H        0.09860072       2.17205407      -0.31653108
H       -1.52542251      -0.98950079       0.83503262
H       -1.73027820      -1.25243358      -0.92099285
H        0.72201756      -1.82435188      -0.55473116
10
Frame=8 idx=002465 GeodesicLength=0.5430552890156131 rxn_smarts="[O:1]=[C:2]1[C:3]([H:6])([H:7])[C:4]([H:8])([H:9])[N:5]1[H:10]>>[O+:1]1=[C:2]([N:5]([C-:4]([H:8])[H:9])[H:10])[C:3]1([H:6])[H:7]"
O        1.97544240       0.68585410       0.12197148
C        0.91287212       0.17094123      -0.37068240
C        0.27318649       1.27784974       0.29056071
C       -1.13896208      -0.72180726      -0.15375882
N        0.25295437      -0.96949881      -0.31626363
H        0.16673192       1.41085609       1.36088252
H        0.08001987       2.16220354      -0.30651044
H       -1.52153173      -0.94784191       0.83883775
H       -1.72461770      -1.23690780      -0.91283505
H        0.72390436      -1.83164892      -0.55220213
10
Frame=9 idx=002465 GeodesicLength=0.6118602962598725 rxn_smarts="[O:1]=[C:2]1[C:3]([H:6])([H:7])[C:4]([H:8])([H:9])[N:5]1[H:10]>>[O+:1]1=[C:2]([N:5]([C-:4]([H:8])[H:9])[H:10])[C:3]1([H:6])[H:7]"
O        1.97603879       0.68611478       0.12495861
C        0.92454765       0.17101345      -0.39349064
C        0.25809490       1.25819829       0.28562962
C       -1.12155526      -0.71233209      -0.15119958
N        0.26203201      -0.97325181      -0.31263121
H        0.15050262       1.38544669       1.35709882
H        0.06130081       2.15179500      -0.29706617
H       -1.51781792      -0.90790559       0.84186249
H       -1.71875977      -1.22056469      -0.90543403
H        0.72561617      -1.83851401      -0.54972791
10
Frame=10 idx=002465 GeodesicLength=0.6807487352247683 rxn_smarts="[O:1]=[C:2]1[C:3]([H:6])([H:7])[C:4]([H:8])([H:9])[N:5]1[H:10]>>[O+:1]1=[C:2]([N:5]([C-:4]([H:8])[H:9])[H:10])[C:3]1([H:6])[H:7]"
O        1.97654484       0.68636743       0.12695060
C        0.93553235       0.17108778      -0.41474838
C        0.24356151       1.23897842       0.28088110
C       -1.10448355      -0.70362899      -0.14818513
N        0.27090277      -0.97688588      -0.30848160
H        0.13533895       1.36110761       1.35346747
H        0.04242439       2.14091770      -0.28807802
H       -1.51432226      -0.86947173       0.84417140
H       -1.71268058      -1.20343245      -0.89885339
H        0.72718157      -1.84503989      -0.54712404
10
Frame=11 idx=002465 GeodesicLength=0.7498962051695208 rxn_smarts="[O:1]=[C:2]1[C:3]([H:6])([H:7])[C:4]([H:8])([H:9])[N:5]1[H:10]>>[O+:1]1=[C:2]([N:5]([C-:4]([H:8])[H:9])[H:10])[C:3]1([H:6])[H:7]"
O        1.97700058       0.68664895       0.12783653
C        0.94586213       0.17119359      -0.43485559
C        0.22957693       1.22010160       0.27632875
C       -1.08773389      -0.69563587      -0.14477394
N        0.27946056      -0.98023295      -0.30392735
H        0.12118551       1.33746091       1.34996095
H        0.02342576       2.12963395      -0.27933770
H       -1.51112957      -0.83243706       0.84567407
H       -1.70627743      -1.18557008      -0.89298135
H        0.72862941      -1.85116306      -0.54392438
10
Frame=12 idx=002465 GeodesicLength=0.8191710295568965 rxn_smarts="[O:1]=[C:2]1[C:3]([H:6])([H:7])[C:4]([H:8])([H:9])[N:5]1[H:10]>>[O+:1]1=[C:2]([N:5]([C-:4]([H:8])[H:9])[H:10])[C:3]1([H:6])[H:7]"
O        1.97742134       0.68695117       0.12777483
C        0.95552835       0.17132990      -0.45392452
C        0.21608278       1.20161123       0.27198044
C       -1.07132170      -0.68831294      -0.14096326
N        0.28781535      -0.98348022      -0.29892340
H        0.10798414       1.31462976       1.34667299
H        0.00429590       2.11800251      -0.27089238
H       -1.50819878      -0.79668414       0.84652640
H       -1.69959900      -1.16701190      -0.88788401
H        0.72999162      -1.85703537      -0.54036709
10
Frame=13 idx=002465 GeodesicLength=0.888562701862336 rxn_smarts="[O:1]=[C:2]1[C:3]([H:6])([H:7])[C:4]([H:8])([H:9])[N:5]1[H:10]>>[O+:1]1=[C:2]([N:5]([C-:4]([H:8])[H:9])[H:10])[C:3]1([H:6])[H:7]"
O        1.97786837       0.68727865       0.12687209
C        0.96458068       0.17149479      -0.47210784
C        0.20303905       1.18350240       0.26781043
C       -1.05524947      -0.68165725      -0.13673143
N        0.29596428      -0.98661270      -0.29351249
H        0.09561858       1.29254880       1.34355299
H       -0.01488626       2.10611799      -0.26272213
H       -1.50555292      -0.76224047       0.84677639
H       -1.69265146      -1.14775746      -0.88346811
H        0.73126917      -1.86267475      -0.53646989
10
Frame=14 idx=002465 GeodesicLength=0.9580948537425216 rxn_smarts="[O:1]=[C:2]1[C:3]([H:6])([H:7])[C:4]([H:8])([H:9])[N:5]1[H:10]>>[O+:1]1=[C:2]([N:5]([C-:4]([H:8])[H:9])[H:10])[C:3]1([H:6])[H:7]"
O        1.97829576       0.68761125       0.12522423
C        0.97302927       0.17168413      -0.48951362
C        0.19040528       1.16574440       0.26380026
C       -1.03949345      -0.67562679      -0.13207729
N        0.30390502      -0.98962649      -0.28772180
H        0.08400578       1.27116344       1.34057131
H       -0.03406776       2.09399130      -0.25482797
H       -1.50313410      -0.72907545       0.84647198
H       -1.68539065      -1.12779176      -0.87966569
H        0.73244485      -1.86807403      -0.53226140
10
Frame=15 idx=002465 GeodesicLength=1.027747973586008 rxn_smarts="[O:1]=[C:2]1[C:3]([H:6])([H:7])[C:4]([H:8])([H:9])[N:5]1[H:10]>>[O+:1]1=[C:2]([N:5]([C-:4]([H:8])[H:9])[H:10])[C:3]1([H:6])[H:7]"
O        1.97870940       0.68794177       0.12290991
C        0.98089877       0.17189139      -0.50623728
C        0.17814570       1.14832663       0.25994044
C       -1.02405432      -0.67018824      -0.12701036
N        0.31165149      -0.99253444      -0.28158517
H        0.07307528       1.25045597       1.33772334
H       -0.05321496       2.08165330      -0.24720699
H       -1.50091999      -0.69717038       0.84566537
H       -1.67780972      -1.10711965      -0.87642808
H        0.73351836      -1.87325634      -0.52777117
10
Frame=16 idx=002465 GeodesicLength=1.097516694461976 rxn_smarts="[O:1]=[C:2]1[C:3]([H:6])([H:7])[C:4]([H:8])([H:9])[N:5]1[H:10]>>[O+:1]1=[C:2]([N:5]([C-:4]([H:8])[H:9])[H:10])[C:3]1([H:6])[H:7]"
O        1.97911431       0.68826136       0.11997887
C        0.98820729       0.17211465      -0.52236992
C        0.16622944       1.13123429       0.25622547
C       -1.00893505      -0.66530111      -0.12155674
N        0.31920970      -0.99533829      -0.27513869
H        0.06277160       1.23038788       1.33500843
H       -0.07230362       2.06913366      -0.23984261
H       -1.49889314      -0.66649886       0.84439087
H       -1.66989495      -1.08575518      -0.87370612
H        0.73449441      -1.87823841      -0.52298957
