16
Frame=0 idx=008586 GeodesicLength=0.0 rxn_smarts="[C:1]([c:2]1[c:3]([H:11])[c:4]([C:5]([H:12])([H:13])[H:14])[c:6]([H:15])[n:7]1[H:16])([H:8])([H:9])[H:10]>>[C+:1]([c:2]1[c:3]([H:11])[c:4]([C:5]([H:12])([H:13])[H:14])[c-:6][n:7]1[H:16])([H:8])[H:9].[H:10][H:15]"
C        2.15104757      -0.12572300      -0.22368353
C        1.13054608      -0.36185205       0.70509232
C       -0.02844488      -1.09814396       0.30407357
C       -1.00579427      -0.15897080       0.20473316
C       -2.36112386      -0.31861702      -0.38919564
C       -0.52000629       1.15822388       0.69511141
N        0.68953352       0.78064437       1.30152472
H        2.93453486       0.59155110       0.00076588
H        2.42567209      -0.90210751      -0.92800501
H        1.16384063       0.77471745      -0.85588735
H       -0.02465290      -2.10339891      -0.09301563
H       -2.54027732       0.46625471      -1.12592887
H       -3.12032318      -0.19897170       0.38672779
H       -2.49264642      -1.29157922      -0.86402364
H        0.24604802       1.27197794      -0.60772176
H        1.35204630       1.51599467       1.48943251
16
Frame=1 idx=008586 GeodesicLength=0.12321145813671074 rxn_smarts="[C:1]([c:2]1[c:3]([H:11])[c:4]([C:5]([H:12])([H:13])[H:14])[c:6]([H:15])[n:7]1[H:16])([H:8])([H:9])[H:10]>>[C+:1]([c:2]1[c:3]([H:11])[c:4]([C:5]([H:12])([H:13])[H:14])[c-:6][n:7]1[H:16])([H:8])[H:9].[H:10][H:15]"
C        2.15770885      -0.12748893      -0.22982954
C        1.13272119      -0.36085756       0.69691765
C       -0.02853407      -1.09803510       0.30617022
C       -1.00982884      -0.15997064       0.20936576
C       -2.36465615      -0.32180775      -0.38534493
C       -0.51986873       1.15636849       0.68942765
N        0.68621113       0.78048024       1.29771477
H        2.95721087       0.56352524       0.02065697
H        2.44001447      -0.92098459      -0.91223938
H        1.16477943       0.80880235      -0.88947431
H       -0.02353815      -2.10388664      -0.08934148
H       -2.55000585       0.46636807      -1.11701185
H       -3.12314532      -0.21201093       0.39282548
H       -2.49404734      -1.29194317      -0.86656183
H        0.22737937       1.30896530      -0.62448131
H        1.34759914       1.51247560       1.50120615
16
Frame=2 idx=008586 GeodesicLength=0.24604971151763788 rxn_smarts="[C:1]([c:2]1[c:3]([H:11])[c:4]([C:5]([H:12])([H:13])[H:14])[c:6]([H:15])[n:7]1[H:16])([H:8])([H:9])[H:10]>>[C+:1]([c:2]1[c:3]([H:11])[c:4]([C:5]([H:12])([H:13])[H:14])[c-:6][n:7]1[H:16])([H:8])[H:9].[H:10][H:15]"
C        2.16450558      -0.12947186      -0.23606327
C        1.13506957      -0.35998807       0.68883406
C       -0.02847710      -1.09808963       0.30871520
C       -1.01362707      -0.16107716       0.21410211
C       -2.36784634      -0.32510605      -0.38163171
C       -0.51939989       1.15447031       0.68340513
N        0.68310015       0.78029095       1.29384303
H        2.97920079       0.53400801       0.04041549
H        2.45354476      -0.93966993      -0.89631940
H        1.16549961       0.84445979      -0.92359776
H       -0.02230686      -2.10462044      -0.08502715
H       -2.55922287       0.46617169      -1.10839494
H       -3.12570085      -0.22494685       0.39855631
H       -2.49512486      -1.29245943      -0.86903874
H        0.20757649       1.34733434      -0.64082207
H        1.34320890       1.50869433       1.51302371
16
Frame=3 idx=008586 GeodesicLength=0.3685704917714066 rxn_smarts="[C:1]([c:2]1[c:3]([H:11])[c:4]([C:5]([H:12])([H:13])[H:14])[c:6]([H:15])[n:7]1[H:16])([H:8])([H:9])[H:10]>>[C+:1]([c:2]1[c:3]([H:11])[c:4]([C:5]([H:12])([H:13])[H:14])[c-:6][n:7]1[H:16])([H:8])[H:9].[H:10][H:15]"
C        2.17146650      -0.13174454      -0.24229408
C        1.13760381      -0.35927730       0.68091616
C       -0.02827007      -1.09833398       0.31181660
C       -1.01716337      -0.16229635       0.21896006
C       -2.37064137      -0.32852005      -0.37809523
C       -0.51855749       1.15252328       0.67700260
N        0.68021442       0.78008152       1.28992650
H        3.00042407       0.50296726       0.05998560
H        2.46608474      -0.95811279      -0.88046549
H        1.16596831       0.88179193      -0.95829895
H       -0.02096067      -2.10564131      -0.07991936
H       -2.56782996       0.46563303      -1.10016701
H       -3.12797658      -0.23773807       0.40384754
H       -2.49581581      -1.29315990      -0.87146004
H        0.18657120       1.38717731      -0.65664767
H        1.33888226       1.50464998       1.52489278
16
Frame=4 idx=008586 GeodesicLength=0.4909110213998817 rxn_smarts="[C:1]([c:2]1[c:3]([H:11])[c:4]([C:5]([H:12])([H:13])[H:14])[c:6]([H:15])[n:7]1[H:16])([H:8])([H:9])[H:10]>>[C+:1]([c:2]1[c:3]([H:11])[c:4]([C:5]([H:12])([H:13])[H:14])[c-:6][n:7]1[H:16])([H:8])[H:9].[H:10][H:15]"
C        2.17865213      -0.13443674      -0.24837494
C        1.14032884      -0.35877248       0.67324381
C       -0.02791168      -1.09879102       0.31555521
C       -1.02041525      -0.16362882       0.22394576
C       -2.37299842      -0.33205206      -0.37476911
C       -0.51729577       1.15052019       0.67016989
N        0.67756699       0.77985312       1.28597552
H        3.02083798       0.47046123       0.07930676
H        2.47750962      -0.97630401      -0.86488648
H        1.16611844       0.92089973      -0.99364196
H       -0.01951144      -2.10699369      -0.07388471
H       -2.57574873       0.46472783      -1.09240805
H       -3.12996123      -0.25033965       0.40864105
H       -2.49607067      -1.29406973      -0.87382484
H        0.16427525       1.42858815      -0.67186736
H        1.33462395       1.50033795       1.53681943
16
Frame=5 idx=008586 GeodesicLength=0.6132755489800795 rxn_smarts="[C:1]([c:2]1[c:3]([H:11])[c:4]([C:5]([H:12])([H:13])[H:14])[c:6]([H:15])[n:7]1[H:16])([H:8])([H:9])[H:10]>>[C+:1]([c:2]1[c:3]([H:11])[c:4]([C:5]([H:12])([H:13])[H:14])[c-:6][n:7]1[H:16])([H:8])[H:9].[H:10][H:15]"
C        2.18614554      -0.13769512      -0.25414607
C        1.14325279      -0.35852277       0.66588952
C       -0.02739278      -1.09948019       0.31997623
C       -1.02335238      -0.16507182       0.22902541
C       -2.37488609      -0.33571105      -0.37167863
C       -0.51556533       1.14846107       0.66282224
N        0.67517731       0.77961781       1.28196529
H        3.04043634       0.43648005       0.09838244
H        2.48774800      -0.99429890      -0.84974260
H        1.16585558       0.96198379      -1.02970279
H       -0.01796920      -2.10871283      -0.06680529
H       -2.58294713       0.46343075      -1.08517611
H       -3.13162934      -0.26272955       0.41291570
H       -2.49585542      -1.29521957      -0.87613014
H        0.14054447       1.47169693      -0.68636964
H        1.33043765       1.49577138       1.54877445
16
Frame=6 idx=008586 GeodesicLength=0.7356670957800517 rxn_smarts="[C:1]([c:2]1[c:3]([H:11])[c:4]([C:5]([H:12])([H:13])[H:14])[c:6]([H:15])[n:7]1[H:16])([H:8])([H:9])[H:10]>>[C+:1]([c:2]1[c:3]([H:11])[c:4]([C:5]([H:12])([H:13])[H:14])[c-:6][n:7]1[H:16])([H:8])[H:9].[H:10][H:15]"
C        2.19398568      -0.14162911      -0.25950840
C        1.14638361      -0.35857668       0.65891482
C       -0.02671467      -1.10042921       0.32515856
C       -1.02595694      -0.16662889       0.23420382
C       -2.37627226      -0.33950506      -0.36885319
C       -0.51331629       1.14633813       0.65487723
N        0.67305518       0.77937857       1.27788890
H        3.05918443       0.40106161       0.11715047
H        2.49675072      -1.01216799      -0.83517772
H        1.16514932       1.00520088      -1.06653779
H       -0.01634778      -2.11083445      -0.05856588
H       -2.58935606       0.46170931      -1.07855710
H       -3.13297668      -0.27485632       0.41662895
H       -2.49513909      -1.29664988      -0.87835953
H        0.11525627       1.51663518      -0.70001242
H        1.32631455       1.49095392       1.56074927
16
Frame=7 idx=008586 GeodesicLength=0.8581697292751133 rxn_smarts="[C:1]([c:2]1[c:3]([H:11])[c:4]([C:5]([H:12])([H:13])[H:14])[c:6]([H:15])[n:7]1[H:16])([H:8])([H:9])[H:10]>>[C+:1]([c:2]1[c:3]([H:11])[c:4]([C:5]([H:12])([H:13])[H:14])[c-:6][n:7]1[H:16])([H:8])[H:9].[H:10][H:15]"
C        2.20223202      -0.14638529      -0.26434591
C        1.14972939      -0.35899677       0.65238365
C       -0.02587712      -1.10166492       0.33115237
C       -1.02820491      -0.16829961       0.23945435
C       -2.37713247      -0.34344200      -0.36631479
C       -0.51048851       1.14414638       0.64622250
N        0.67121820       0.77914041       1.27371035
H        3.07711536       0.36423674       0.13559954
H        2.50451987      -1.03004287      -0.82126007
H        1.16389345       1.05077927      -1.10423057
H       -0.01466324      -2.11339885      -0.04908772
H       -2.59493777       0.45953210      -1.07262129
H       -3.13398650      -0.28667655       0.41976044
H       -2.49390510      -1.29839854      -0.88049065
H        0.08822807       1.56356691      -0.71262614
H        1.32225927       1.48590357       1.57269394
16
Frame=8 idx=008586 GeodesicLength=0.980857405919762 rxn_smarts="[C:1]([c:2]1[c:3]([H:11])[c:4]([C:5]([H:12])([H:13])[H:14])[c:6]([H:15])[n:7]1[H:16])([H:8])([H:9])[H:10]>>[C+:1]([c:2]1[c:3]([H:11])[c:4]([C:5]([H:12])([H:13])[H:14])[c-:6][n:7]1[H:16])([H:8])[H:9].[H:10][H:15]"
C        2.21096510      -0.15212135      -0.26855361
C        1.15330617      -0.35983797       0.64631900
C       -0.02487366      -1.10320529       0.33796295
C       -1.03006519      -0.17007677       0.24471703
C       -2.37745457      -0.34753271      -0.36407304
C       -0.50701385       1.14188640       0.63670681
N        0.66968963       0.77891864       1.26936163
H        3.09428532       0.32598797       0.15378908
H        2.51113511      -1.04812241      -0.80796552
H        1.16195958       1.09900253      -1.14288810
H       -0.01293300      -2.11642356      -0.03832959
H       -2.59969646       0.45686903      -1.06741662
H       -3.13462855      -0.29815759       0.42233263
H       -2.49215874      -1.30050734      -0.88249056
H        0.05921381       1.61267159      -0.72400624
H        1.31826930       1.48064883       1.58453414
16
Frame=9 idx=008586 GeodesicLength=1.104707712290265 rxn_smarts="[C:1]([c:2]1[c:3]([H:11])[c:4]([C:5]([H:12])([H:13])[H:14])[c:6]([H:15])[n:7]1[H:16])([H:8])([H:9])[H:10]>>[C+:1]([c:2]1[c:3]([H:11])[c:4]([C:5]([H:12])([H:13])[H:14])[c-:6][n:7]1[H:16])([H:8])[H:9].[H:10][H:15]"
C        2.22042791      -0.15956036      -0.27184841
C        1.15715752      -0.36124593       0.64079531
C       -0.02372854      -1.10507295       0.34571175
C       -1.03139246      -0.17194415       0.24972964
C       -2.37712920      -0.35177512      -0.36229863
C       -0.50281057       1.13945480       0.62636420
N        0.66874534       0.77878776       1.26448420
H        3.11095479       0.28640886       0.17167272
H        2.51674453      -1.06709607      -0.79496340
H        1.15853578       1.15092678      -1.18261851
H       -0.01130409      -2.11997855      -0.02593184
H       -2.60355462       0.45374848      -1.06302013
H       -3.13476539      -0.30937836       0.42417369
H       -2.48978404      -1.30291200      -0.88458180
H        0.02725261       1.66430548      -0.73339755
H        1.31465043       1.47533134       1.59572877
16
Frame=10 idx=008586 GeodesicLength=1.2287374295280782 rxn_smarts="[C:1]([c:2]1[c:3]([H:11])[c:4]([C:5]([H:12])([H:13])[H:14])[c:6]([H:15])[n:7]1[H:16])([H:8])([H:9])[H:10]>>[C+:1]([c:2]1[c:3]([H:11])[c:4]([C:5]([H:12])([H:13])[H:14])[c-:6][n:7]1[H:16])([H:8])[H:9].[H:10][H:15]"
C        2.23054666      -0.16836877      -0.27437158
C        1.16130145      -0.36318005       0.63574196
C       -0.02239058      -1.10725023       0.35429060
C       -1.03225050      -0.17389904       0.25463205
C       -2.37619841      -0.35619039      -0.36088833
C       -0.49778182       1.13693153       0.61482831
N        0.66824438       0.77872920       1.25917762
H        3.12708810       0.24517293       0.18952179
H        2.52142762      -1.08682760      -0.78235721
H        1.15378943       1.20636061      -1.22359077
H       -0.00967494      -2.12404589      -0.01207125
H       -2.60650181       0.45004965      -1.05953104
H       -3.13445959      -0.32014426       0.42541139
H       -2.48686828      -1.30577188      -0.88648424
H       -0.00746470       1.71852968      -0.74083067
H        1.31119298       1.46990452       1.60652138
16
Frame=11 idx=008586 GeodesicLength=1.3528797979610614 rxn_smarts="[C:1]([c:2]1[c:3]([H:11])[c:4]([C:5]([H:12])([H:13])[H:14])[c:6]([H:15])[n:7]1[H:16])([H:8])([H:9])[H:10]>>[C+:1]([c:2]1[c:3]([H:11])[c:4]([C:5]([H:12])([H:13])[H:14])[c-:6][n:7]1[H:16])([H:8])[H:9].[H:10][H:15]"
C        2.24138780      -0.17873980      -0.27607856
C        1.16577546      -0.36570095       0.63116630
C       -0.02085400      -1.10974043       0.36374419
C       -1.03260020      -0.17593127       0.25938923
C       -2.37461102      -0.36078515      -0.35989133
C       -0.49183421       1.13428553       0.60195121
N        0.66825724       0.77876134       1.25332361
H        3.14277547       0.20216263       0.20741144
H        2.52526662      -1.10759043      -0.77002221
H        1.14739215       1.26572153      -1.26596118
H       -0.00807366      -2.12865313       0.00339071
H       -2.60844452       0.44571901      -1.05706965
H       -3.13368217      -0.33037748       0.42597900
H       -2.48337381      -1.30913408      -0.88817431
H       -0.04533643       1.77558324      -0.74590698
H        1.30795528       1.46441943       1.61674852
16
Frame=12 idx=008586 GeodesicLength=1.4771248163938184 rxn_smarts="[C:1]([c:2]1[c:3]([H:11])[c:4]([C:5]([H:12])([H:13])[H:14])[c:6]([H:15])[n:7]1[H:16])([H:8])([H:9])[H:10]>>[C+:1]([c:2]1[c:3]([H:11])[c:4]([C:5]([H:12])([H:13])[H:14])[c-:6][n:7]1[H:16])([H:8])[H:9].[H:10][H:15]"
C        2.25306853      -0.19092981      -0.27689117
C        1.17063161      -0.36887064       0.62704572
C       -0.01909362      -1.11253876       0.37406989
C       -1.03238055      -0.17802222       0.26392475
C       -2.37231139      -0.36556707      -0.35936138
C       -0.48483842       1.13149036       0.58750774
N        0.66889151       0.77892411       1.24673082
H        3.15811490       0.15715964       0.22551320
H        2.52841065      -1.12975730      -0.75773228
H        1.13883657       1.32960420      -1.30992495
H       -0.00653117      -2.13382321       0.02058876
H       -2.60929714       0.44069202      -1.05577147
H       -3.13237859      -0.33998080       0.42582836
H       -2.47927781      -1.31305732      -0.88960960
H       -0.08686106       1.83572217      -0.74810496
H        1.30501599       1.45895461       1.62618656
16
Frame=13 idx=008586 GeodesicLength=1.6014501864019215 rxn_smarts="[C:1]([c:2]1[c:3]([H:11])[c:4]([C:5]([H:12])([H:13])[H:14])[c:6]([H:15])[n:7]1[H:16])([H:8])([H:9])[H:10]>>[C+:1]([c:2]1[c:3]([H:11])[c:4]([C:5]([H:12])([H:13])[H:14])[c-:6][n:7]1[H:16])([H:8])[H:9].[H:10][H:15]"
C        2.26577042      -0.20527117      -0.27664698
C        1.17593493      -0.37276740       0.62335634
C       -0.01707617      -1.11563204       0.38522450
C       -1.03150830      -0.18013746       0.26809818
C       -2.36924469      -0.37052707      -0.35935554
C       -0.47660999       1.12852435       0.57116228
N        0.67027268       0.77925955       1.23915094
H        3.17325319       0.10991331       0.24409467
H        2.53106042      -1.15374660      -0.74517212
H        1.12740942       1.39869818      -1.35572827
H       -0.00507085      -2.13958023       0.03961846
H       -2.60898717       0.43489800      -1.05579409
H       -3.13047109      -0.34880079       0.42492884
H       -2.47458280      -1.31760027      -0.89071433
H       -0.13263645       1.89917446      -0.74675420
H        1.30248647       1.45359519       1.63453133
16
Frame=14 idx=008586 GeodesicLength=1.7256260099266372 rxn_smarts="[C:1]([c:2]1[c:3]([H:11])[c:4]([C:5]([H:12])([H:13])[H:14])[c:6]([H:15])[n:7]1[H:16])([H:8])([H:9])[H:10]>>[C+:1]([c:2]1[c:3]([H:11])[c:4]([C:5]([H:12])([H:13])[H:14])[c-:6][n:7]1[H:16])([H:8])[H:9].[H:10][H:15]"
C        2.27957962      -0.22203377      -0.27535978
C        1.18176462      -0.37746305       0.62007509
C       -0.01477709      -1.11900973       0.39728632
C       -1.02989836      -0.18224839       0.27184426
C       -2.36530845      -0.37568148      -0.35997487
C       -0.46695171       1.12535551       0.55253713
N        0.67253273       0.77983147       1.23032523
H        3.18822040       0.06007846       0.26329756
H        2.53329870      -1.17996313      -0.73208599
H        1.11253576       1.47371522      -1.40350851
H       -0.00373784      -2.14593170       0.06073298
H       -2.60729929       0.42819396      -1.05742608
H       -3.12789581      -0.35662110       0.42314770
H       -2.46924965      -1.32289072      -0.89139131
H       -0.18327358       1.96620493      -0.74098460
H        1.30045998       1.44846354       1.64148486
16
Frame=15 idx=008586 GeodesicLength=1.8495152349040955 rxn_smarts="[C:1]([c:2]1[c:3]([H:11])[c:4]([C:5]([H:12])([H:13])[H:14])[c:6]([H:15])[n:7]1[H:16])([H:8])([H:9])[H:10]>>[C+:1]([c:2]1[c:3]([H:11])[c:4]([C:5]([H:12])([H:13])[H:14])[c-:6][n:7]1[H:16])([H:8])[H:9].[H:10][H:15]"
C        2.29468869      -0.24164340      -0.27289618
C        1.18821737      -0.38305847       0.61717231
C       -0.01216398      -1.12264201       0.41026730
C       -1.02742904      -0.18430095       0.27499384
C       -2.36039844      -0.38102175      -0.36133362
C       -0.45556591       1.12194744       0.53105723
N        0.67584675       0.78071273       1.21987910
H        3.20312524       0.00731282       0.28338690
H        2.53529134      -1.20893605      -0.71806881
H        1.09329464       1.55558943      -1.45346123
H       -0.00258782      -2.15288296       0.08414938
H       -2.60401707       0.42041041      -1.06100446
H       -3.12455140      -0.36311597       0.42036053
H       -2.46329268      -1.32905516      -0.89147654
H       -0.23953114       2.03698563      -0.72965388
H        1.29907345       1.44369826       1.64662814
16
Frame=16 idx=008586 GeodesicLength=1.972971729612419 rxn_smarts="[C:1]([c:2]1[c:3]([H:11])[c:4]([C:5]([H:12])([H:13])[H:14])[c:6]([H:15])[n:7]1[H:16])([H:8])([H:9])[H:10]>>[C+:1]([c:2]1[c:3]([H:11])[c:4]([C:5]([H:12])([H:13])[H:14])[c-:6][n:7]1[H:16])([H:8])[H:9].[H:10][H:15]"
C        2.31135136      -0.26466300      -0.26911178
C        1.19542300      -0.38967197       0.61460745
C       -0.00919207      -1.12647747       0.42419796
C       -1.02394273      -0.18619584       0.27731108
C       -2.35437430      -0.38652908      -0.36360327
C       -0.44204188       1.11826248       0.50588224
N        0.68043807       0.78203562       1.20728412
H        3.21808402      -0.04887959       0.30469453
H        2.53723068      -1.24133888      -0.70261961
H        1.06841095       1.64557607      -1.50570813
H       -0.00168504      -2.16045445       0.11019948
H       -2.59882624       0.41130985      -1.06706137
H       -3.12031279      -0.36778134       0.41639831
H       -2.45673643      -1.33630785      -0.89072788
H       -0.30232193       2.11158600      -0.71111802
H        1.29849534       1.43952945       1.64937488
