13
Frame=0 idx=004027 GeodesicLength=0.0 rxn_smarts="[C:1]([C:2]1([C:5]#[N:6])[C:3]([H:10])([H:11])[C:4]1([H:12])[H:13])([H:7])([H:8])[H:9]>>[C:1]([C@@:2]1([C+:5]=[N:6][H:10])[C-:3]([H:11])[C:4]1([H:12])[H:13])([H:7])([H:8])[H:9]"
C       -1.32118839      -0.72496323       0.25053988
C       -0.14619598      -0.00109025      -0.37059094
C        1.11444609       0.34592232       0.43898015
C        1.15300313      -0.80377218      -0.51110615
C       -0.38944081       1.38111182      -0.54402556
N       -0.39427469       2.36198785       0.13301169
H       -0.95782351      -1.49134213       0.93532730
H       -1.95542484      -0.03567529       0.80867151
H       -1.92523381      -1.20858294      -0.51915853
H        0.35718940       1.61300587       1.02108375
H        1.70720173       1.11103568      -0.05492044
H        0.99177036      -1.82559299      -0.18574547
H        1.76597136      -0.72204459      -1.40206721
13
Frame=1 idx=004027 GeodesicLength=0.07411860597062944 rxn_smarts="[C:1]([C:2]1([C:5]#[N:6])[C:3]([H:10])([H:11])[C:4]1([H:12])[H:13])([H:7])([H:8])[H:9]>>[C:1]([C@@:2]1([C+:5]=[N:6][H:10])[C-:3]([H:11])[C:4]1([H:12])[H:13])([H:7])([H:8])[H:9]"
C       -1.32361252      -0.72805140       0.25574638
C       -0.14745062      -0.00325277      -0.36073070
C        1.11594229       0.33690238       0.45110438
C        1.15295209      -0.79952034      -0.51400833
C       -0.38798784       1.37522523      -0.55957904
N       -0.39673448       2.36639191       0.10211010
H       -0.96003084      -1.49610311       0.93848760
H       -1.95854968      -0.04153885       0.81653204
H       -1.92742243      -1.20555560      -0.51790949
H        0.36101134       1.62373972       1.02625114
H        1.72300381       1.10183636      -0.02591837
H        0.99699616      -1.82529586      -0.19867279
H        1.75188273      -0.70477767      -1.41341292
13
Frame=2 idx=004027 GeodesicLength=0.14825077801474656 rxn_smarts="[C:1]([C:2]1([C:5]#[N:6])[C:3]([H:10])([H:11])[C:4]1([H:12])[H:13])([H:7])([H:8])[H:9]>>[C:1]([C@@:2]1([C+:5]=[N:6][H:10])[C-:3]([H:11])[C:4]1([H:12])[H:13])([H:7])([H:8])[H:9]"
C       -1.32604345      -0.73112955       0.26098289
C       -0.14881570      -0.00525903      -0.35089695
C        1.11740771       0.32779658       0.46311874
C        1.15276583      -0.79500158      -0.51700740
C       -0.38673407       1.36904076      -0.57522095
N       -0.39877121       2.37044357       0.07065907
H       -0.96218745      -1.50087341       0.94161631
H       -1.96167103      -0.04751339       0.82455676
H       -1.92964846      -1.20250762      -0.51654332
H        0.36516763       1.63446990       1.03158034
H        1.73849089       1.09232165       0.00327870
H        1.00212571      -1.82466702      -0.21193025
H        1.73791360      -0.68712086      -1.42419393
13
Frame=3 idx=004027 GeodesicLength=0.22241370544058073 rxn_smarts="[C:1]([C:2]1([C:5]#[N:6])[C:3]([H:10])([H:11])[C:4]1([H:12])[H:13])([H:7])([H:8])[H:9]>>[C:1]([C@@:2]1([C+:5]=[N:6][H:10])[C-:3]([H:11])[C:4]1([H:12])[H:13])([H:7])([H:8])[H:9]"
C       -1.32847812      -0.73419549       0.26624972
C       -0.15028809      -0.00709983      -0.34109335
C        1.11883872       0.31860322       0.47502968
C        1.15244293      -0.79021060      -0.52009363
C       -0.38570299       1.36255629      -0.59095337
N       -0.40040110       2.37413777       0.03863393
H       -0.96429108      -1.50565302       0.94471053
H       -1.96478645      -0.05360704       0.83275424
H       -1.93191339      -1.19944343      -0.51505608
H        0.36967969       1.64520933       1.03708597
H        1.75367587       1.08247360       0.03267683
H        1.00714228      -1.82369907      -0.22552973
H        1.72408172      -0.66907174      -1.43441475
13
Frame=4 idx=004027 GeodesicLength=0.2966125486077921 rxn_smarts="[C:1]([C:2]1([C:5]#[N:6])[C:3]([H:10])([H:11])[C:4]1([H:12])[H:13])([H:7])([H:8])[H:9]>>[C:1]([C@@:2]1([C+:5]=[N:6][H:10])[C-:3]([H:11])[C:4]1([H:12])[H:13])([H:7])([H:8])[H:9]"
C       -1.33091134      -0.73724670       0.27153941
C       -0.15186515      -0.00876076      -0.33132843
C        1.12023943       0.30932692       0.48682900
C        1.15198158      -0.78514433      -0.52325409
C       -0.38492684       1.35577815      -0.60676912
N       -0.40163496       2.37747283       0.00603401
H       -0.96633613      -1.51043514       0.94776857
H       -1.96790067      -0.05982869       0.84111688
H       -1.93421192      -1.19636603      -0.51345342
H        0.37456508       1.65595599       1.04280114
H        1.76856364       1.07227891       0.06224960
H        1.01204251      -1.82237972      -0.23945284
H        1.71039477      -0.65065142      -1.44408070
13
Frame=5 idx=004027 GeodesicLength=0.37083945399100726 rxn_smarts="[C:1]([C:2]1([C:5]#[N:6])[C:3]([H:10])([H:11])[C:4]1([H:12])[H:13])([H:7])([H:8])[H:9]>>[C:1]([C@@:2]1([C+:5]=[N:6][H:10])[C-:3]([H:11])[C:4]1([H:12])[H:13])([H:7])([H:8])[H:9]"
C       -1.33333622      -0.74027607       0.27684612
C       -0.15354448      -0.01022587      -0.32161076
C        1.12160922       0.29997009       0.49851034
C        1.15137945      -0.77979911      -0.52647878
C       -0.38443857       1.34870652      -0.62266292
N       -0.40248928       2.38043363      -0.02714876
H       -0.96831679      -1.51520803       0.95078880
H       -1.97101134      -0.06618210       0.84963964
H       -1.93653886      -1.19327348      -0.51173759
H        0.37984490       1.66670275       1.04875647
H        1.78315323       1.06172236       0.09197986
H        1.01682116      -1.82069636      -0.25368686
H        1.69686756      -0.63187431      -1.45319556
13
Frame=6 idx=004027 GeodesicLength=0.44510942295145983 rxn_smarts="[C:1]([C:2]1([C:5]#[N:6])[C:3]([H:10])([H:11])[C:4]1([H:12])[H:13])([H:7])([H:8])[H:9]>>[C:1]([C@@:2]1([C+:5]=[N:6][H:10])[C-:3]([H:11])[C:4]1([H:12])[H:13])([H:7])([H:8])[H:9]"
C       -1.33574421      -0.74328344       0.28216862
C       -0.15532232      -0.01148707      -0.31194143
C        1.12294223       0.29053286       0.51008025
C        1.15063367      -0.77416985      -0.52975277
C       -0.38426040       1.34134390      -0.63863717
N       -0.40298650       2.38302190      -0.06094539
H       -0.97022497      -1.51997492       0.95376262
H       -1.97410931      -0.07267810       0.85832948
H       -1.93888758      -1.19016827      -0.50990807
H        0.38553626       1.67746664       1.05497264
H        1.79746482       1.05078171       0.12187640
H        1.02145636      -1.81863958      -0.26824171
H        1.68350193      -0.61274577      -1.46176347
13
Frame=7 idx=004027 GeodesicLength=0.5194279393587738 rxn_smarts="[C:1]([C:2]1([C:5]#[N:6])[C:3]([H:10])([H:11])[C:4]1([H:12])[H:13])([H:7])([H:8])[H:9]>>[C:1]([C@@:2]1([C+:5]=[N:6][H:10])[C-:3]([H:11])[C:4]1([H:12])[H:13])([H:7])([H:8])[H:9]"
C       -1.33813279      -0.74626223       0.28750196
C       -0.15719671      -0.01252607      -0.30232844
C        1.12424130       0.28101732       0.52153181
C        1.14974507      -0.76825269      -0.53306759
C       -0.38442757       1.33369637      -0.65468841
N       -0.40314445       2.38522612      -0.09537038
H       -0.97205693      -1.52472798       0.95668889
H       -1.97720114      -0.07932098       0.86717990
H       -1.94125699      -1.18705332      -0.50796573
H        0.39166525       1.68823913       1.06148770
H        1.81150282       1.03944077       0.15192274
H        1.02594854      -1.81619711      -0.28310069
H        1.67031359      -0.59327934      -1.46979174
13
Frame=8 idx=004027 GeodesicLength=0.5937926289734518 rxn_smarts="[C:1]([C:2]1([C:5]#[N:6])[C:3]([H:10])([H:11])[C:4]1([H:12])[H:13])([H:7])([H:8])[H:9]>>[C:1]([C@@:2]1([C+:5]=[N:6][H:10])[C-:3]([H:11])[C:4]1([H:12])[H:13])([H:7])([H:8])[H:9]"
C       -1.34049469      -0.74920723       0.29283978
C       -0.15916649      -0.01332698      -0.29277783
C        1.12550637       0.27142751       0.53285956
C        1.14870982      -0.76204402      -0.53641279
C       -0.38496896       1.32576909      -0.67081276
N       -0.40298315       2.38703826      -0.13043967
H       -0.97380409      -1.52945723       0.95956389
H       -1.98028847      -0.08611685       0.87618078
H       -1.94363728      -1.18393539      -0.50591348
H        0.39825598       1.69901829       1.06834266
H        1.82527498       1.02767957       0.18210435
H        1.03029096      -1.81335458      -0.29824784
H        1.65730502      -0.57349046      -1.47728664
13
Frame=9 idx=004027 GeodesicLength=0.6682064789907542 rxn_smarts="[C:1]([C:2]1([C:5]#[N:6])[C:3]([H:10])([H:11])[C:4]1([H:12])[H:13])([H:7])([H:8])[H:9]>>[C:1]([C@@:2]1([C+:5]=[N:6][H:10])[C-:3]([H:11])[C:4]1([H:12])[H:13])([H:7])([H:8])[H:9]"
C       -1.34282367      -0.75211170       0.29817758
C       -0.16122874      -0.01387268      -0.28329522
C        1.12673754       0.26176590       0.54405878
C        1.14752513      -0.75554031      -0.53977925
C       -0.38591476       1.31756825      -0.68700783
N       -0.40253335       2.38844669      -0.16617625
H       -0.97545946      -1.53415237       0.96238591
H       -1.98337229      -0.09306938       0.88532479
H       -1.94602059      -1.18081999      -0.50375281
H        0.40533544       1.70979949       1.07557926
H        1.83879346       1.01547742       0.21241143
H        1.03447239      -1.81010021      -0.31367248
H        1.64448889      -0.55339110      -1.48425393
13
Frame=10 idx=004027 GeodesicLength=0.742671014320668 rxn_smarts="[C:1]([C:2]1([C:5]#[N:6])[C:3]([H:10])([H:11])[C:4]1([H:12])[H:13])([H:7])([H:8])[H:9]>>[C:1]([C@@:2]1([C+:5]=[N:6][H:10])[C-:3]([H:11])[C:4]1([H:12])[H:13])([H:7])([H:8])[H:9]"
C       -1.34511342      -0.75496867       0.30351113
C       -0.16338151      -0.01414544      -0.27388553
C        1.12793452       0.25203517       0.55512535
C        1.14618860      -0.74873721      -0.54315806
C       -0.38729309       1.30909946      -0.70327344
N       -0.40182501       2.38943842      -0.20260822
H       -0.97701540      -1.53880225       0.96515406
H       -1.98645409      -0.10018160       0.89460320
H       -1.94839824      -1.17771385      -0.50148483
H        0.41293084       1.72057663       1.08324468
H        1.85206981       1.00281175       0.24283607
H        1.03848355      -1.80642109      -0.32936397
H        1.63187346      -0.53299133      -1.49070045
13
Frame=11 idx=004027 GeodesicLength=0.8171944583512375 rxn_smarts="[C:1]([C:2]1([C:5]#[N:6])[C:3]([H:10])([H:11])[C:4]1([H:12])[H:13])([H:7])([H:8])[H:9]>>[C:1]([C@@:2]1([C+:5]=[N:6][H:10])[C-:3]([H:11])[C:4]1([H:12])[H:13])([H:7])([H:8])[H:9]"
C       -1.34735936      -0.75777304       0.30883668
C       -0.16562526      -0.01412741      -0.26455242
C        1.12909952       0.24223885       0.56605600
C        1.14469814      -0.74163084      -0.54654048
C       -0.38912959       1.30036882      -0.71961178
N       -0.40088705       2.39000468      -0.23977044
H       -0.97846408      -1.54339858       0.96786837
H       -1.98953783      -0.10745763       0.90400622
H       -1.95076395      -1.17462725      -0.49911030
H        0.42106955       1.73134686       1.09139213
H        1.86512034       0.98965996       0.27337248
H        1.04231587      -1.80230671      -0.34531321
H        1.61946370      -0.51229772      -1.49663323
13
Frame=12 idx=004027 GeodesicLength=0.891757703294191 rxn_smarts="[C:1]([C:2]1([C:5]#[N:6])[C:3]([H:10])([H:11])[C:4]1([H:12])[H:13])([H:7])([H:8])[H:9]>>[C:1]([C@@:2]1([C+:5]=[N:6][H:10])[C-:3]([H:11])[C:4]1([H:12])[H:13])([H:7])([H:8])[H:9]"
C       -1.34955159      -0.76050806       0.31415334
C       -0.16795238      -0.01379729      -0.25530075
C        1.13022322       0.23237504       0.57684546
C        1.14305494      -0.73421060      -0.54992033
C       -0.39145791       1.29137692      -0.73602717
N       -0.39975922       2.39010937      -0.27770568
H       -0.97979840      -1.54791922       0.97052801
H       -1.99261917      -0.11488914       0.91353154
H       -1.95310564      -1.17155545      -0.49662506
H        0.42978188       1.74208176       1.10007469
H        1.87793688       0.97598628       0.30401957
H        1.04596662      -1.79773415      -0.36151496
H        1.60728077      -0.49131546      -1.50205864
13
Frame=13 idx=004027 GeodesicLength=0.9664056787849934 rxn_smarts="[C:1]([C:2]1([C:5]#[N:6])[C:3]([H:10])([H:11])[C:4]1([H:12])[H:13])([H:7])([H:8])[H:9]>>[C:1]([C@@:2]1([C+:5]=[N:6][H:10])[C-:3]([H:11])[C:4]1([H:12])[H:13])([H:7])([H:8])[H:9]"
C       -1.35168603      -0.76317515       0.31946256
C       -0.17037184      -0.01314175      -0.24612389
C        1.13130421       0.22244771       0.58750629
C        1.14125501      -0.72646774      -0.55328604
C       -0.39428711       1.28212084      -0.75253459
N       -0.39845470       2.38974377      -0.31649590
H       -0.98100688      -1.55237331       0.97312711
H       -1.99569422      -0.12249062       0.92317387
H       -1.95542159      -1.16850912      -0.49402650
H        0.43909390       1.75279163       1.10935923
H        1.89055496       0.96176976       0.33479676
H        1.04941890      -1.79269166      -0.37797422
H        1.59529539      -0.47002436      -1.50698469
13
Frame=14 idx=004027 GeodesicLength=1.0411132268565777 rxn_smarts="[C:1]([C:2]1([C:5]#[N:6])[C:3]([H:10])([H:11])[C:4]1([H:12])[H:13])([H:7])([H:8])[H:9]>>[C:1]([C@@:2]1([C+:5]=[N:6][H:10])[C-:3]([H:11])[C:4]1([H:12])[H:13])([H:7])([H:8])[H:9]"
C       -1.35375643      -0.76575832       0.32475943
C       -0.17287653      -0.01213336      -0.23703070
C        1.13234462       0.21245982       0.59802249
C        1.13929585      -0.71839732      -0.55663339
C       -0.39765247       1.27260777      -0.76913062
N       -0.39703602       2.38887950      -0.35617437
H       -0.98208352      -1.55673251       0.97567165
H       -1.99876846      -0.13025049       0.93292227
H       -1.95770064      -1.16549704      -0.49131490
H        0.44904430       1.76344865       1.11931212
H        1.90297589       0.94697343       0.36568694
H        1.05266323      -1.78716428      -0.39467830
H        1.58355018      -0.44843586      -1.51141262
13
Frame=15 idx=004027 GeodesicLength=1.1158747612962368 rxn_smarts="[C:1]([C:2]1([C:5]#[N:6])[C:3]([H:10])([H:11])[C:4]1([H:12])[H:13])([H:7])([H:8])[H:9]>>[C:1]([C@@:2]1([C+:5]=[N:6][H:10])[C-:3]([H:11])[C:4]1([H:12])[H:13])([H:7])([H:8])[H:9]"
C       -1.35575447      -0.76824210       0.33003770
C       -0.17546376      -0.01074579      -0.22802592
C        1.13335084       0.20241877       0.60838232
C        1.13717488      -0.70999554      -0.55995804
C       -0.40156928       1.26284575      -0.78582138
N       -0.39555619       2.38748530      -0.39678187
H       -0.98301850      -1.56096613       0.97817374
H       -2.00185033      -0.13815857       0.94274765
H       -1.95992088      -1.16253328      -0.48849523
H        0.45966147       1.77401748       1.13003614
H        1.91520845       0.93157477       0.39666030
H        1.05569304      -1.78113746      -0.41160208
H        1.57204473      -0.42656319      -1.51535331
13
Frame=16 idx=004027 GeodesicLength=1.1906820194302241 rxn_smarts="[C:1]([C:2]1([C:5]#[N:6])[C:3]([H:10])([H:11])[C:4]1([H:12])[H:13])([H:7])([H:8])[H:9]>>[C:1]([C@@:2]1([C+:5]=[N:6][H:10])[C-:3]([H:11])[C:4]1([H:12])[H:13])([H:7])([H:8])[H:9]"
C       -1.35767114      -0.77060903       0.33529165
C       -0.17812911      -0.00895095      -0.21911197
C        1.13432943       0.19233259       0.61857406
C        1.13488959      -0.70125769      -0.56325490
C       -0.40605014       1.25284081      -0.80261327
N       -0.39407941       2.38552651      -0.43836892
H       -0.98380230      -1.56504085       0.98064607
H       -2.00494735      -0.14620090       0.95262052
H       -1.96205872      -1.15963278      -0.48557269
H        0.47097621       1.78445795       1.14164194
H        1.92726378       0.91554887       0.42769024
H        1.05849831      -1.77459657      -0.42872347
H        1.56078085      -0.40441797      -1.51881926
