13
Frame=0 idx=000006 GeodesicLength=0.0 rxn_smarts="[C:1]([O:2][C:3]([C:4]([O:5][H:13])([H:11])[H:12])([H:9])[H:10])([H:6])([H:7])[H:8]>>[C:1]([O:2][C:3](=[C:4]([H:11])[H:12])[H:10])([H:6])([H:7])[H:8].[O:5]([H:9])[H:13]"
C        1.79564978       0.59550678       0.70173527
O        0.53547958       0.09520038       1.06711341
C       -0.04125720      -0.69651927       0.07046297
C       -1.44709073      -0.69383032       0.02266874
O       -1.55399806       0.38992699      -1.49211862
H        2.16673476       1.18637046       1.53853919
H        2.50692868      -0.21500025       0.49765692
H        1.73108940       1.22810055      -0.19282744
H       -0.42069086       0.05562760      -1.08740794
H        0.48591896      -1.62608233      -0.14428808
H       -1.96549199      -1.53257220      -0.42013327
H       -2.01902432      -0.09273374       0.72002186
H       -1.77424801       1.30600537      -1.28142295
13
Frame=1 idx=000006 GeodesicLength=0.07055216780964314 rxn_smarts="[C:1]([O:2][C:3]([C:4]([O:5][H:13])([H:11])[H:12])([H:9])[H:10])([H:6])([H:7])[H:8]>>[C:1]([O:2][C:3](=[C:4]([H:11])[H:12])[H:10])([H:6])([H:7])[H:8].[O:5]([H:9])[H:13]"
C        1.78813927       0.60058227       0.69024010
O        0.51599289       0.12285307       1.04530087
C       -0.04629204      -0.70066483       0.06716462
C       -1.45278470      -0.70776127       0.01593840
O       -1.55541171       0.42394766      -1.47922154
H        2.14588784       1.21700813       1.51429760
H        2.49647165      -0.22209770       0.52975018
H        1.74779142       1.20325885      -0.22601001
H       -0.41200866       0.03747442      -1.11968876
H        0.48834983      -1.63267977      -0.11598593
H       -1.96048771      -1.54846822      -0.43612557
H       -2.03126281      -0.13010172       0.72787289
H       -1.72438527       1.33664910      -1.21353283
13
Frame=2 idx=000006 GeodesicLength=0.1413484643422881 rxn_smarts="[C:1]([O:2][C:3]([C:4]([O:5][H:13])([H:11])[H:12])([H:9])[H:10])([H:6])([H:7])[H:8]>>[C:1]([O:2][C:3](=[C:4]([H:11])[H:12])[H:10])([H:6])([H:7])[H:8].[O:5]([H:9])[H:13]"
C        1.78099543       0.60502219       0.67963957
O        0.49774186       0.14804424       1.02301911
C       -0.05112981      -0.70405964       0.06265282
C       -1.45838025      -0.72040601       0.01004348
O       -1.55606220       0.45649899      -1.46661919
H        2.12598736       1.24495335       1.49112901
H        2.48564059      -0.22773296       0.56072728
H        1.76432633       1.17912960      -0.25540208
H       -0.40449278       0.02326260      -1.15070365
H        0.49029962      -1.63758159      -0.09050056
H       -1.95610969      -1.56357127      -0.44926217
H       -2.04175242      -0.16431762       0.73537792
H       -1.67706402       1.36075812      -1.15010155
13
Frame=3 idx=000006 GeodesicLength=0.21216261834414946 rxn_smarts="[C:1]([O:2][C:3]([C:4]([O:5][H:13])([H:11])[H:12])([H:9])[H:10])([H:6])([H:7])[H:8]>>[C:1]([O:2][C:3](=[C:4]([H:11])[H:12])[H:10])([H:6])([H:7])[H:8].[O:5]([H:9])[H:13]"
C        1.77423828       0.60884622       0.66992126
O        0.48066148       0.17100043       1.00048514
C       -0.05574577      -0.70682150       0.05709741
C       -1.46383787      -0.73188513       0.00487929
O       -1.55621911       0.48761535      -1.45446891
H        2.10700718       1.27041647       1.46903415
H        2.47448571      -0.23216495       0.59065953
H        1.78078364       1.15568515      -0.28132969
H       -0.39782636       0.01272358      -1.18063416
H        0.49187686      -1.64098731      -0.06759814
H       -1.95223335      -1.57810264      -0.45962186
H       -2.05060911      -0.19564223       0.74263434
H       -1.63258157       1.37931657      -1.09105836
13
Frame=4 idx=000006 GeodesicLength=0.2830881426916845 rxn_smarts="[C:1]([O:2][C:3]([C:4]([O:5][H:13])([H:11])[H:12])([H:9])[H:10])([H:6])([H:7])[H:8]>>[C:1]([O:2][C:3](=[C:4]([H:11])[H:12])[H:10])([H:6])([H:7])[H:8].[O:5]([H:9])[H:13]"
C        1.76783018       0.61211216       0.66099255
O        0.46463269       0.19203155       0.97780350
C       -0.06013317      -0.70907458       0.05062062
C       -1.46914422      -0.74238729       0.00031215
O       -1.55613441       0.51762244      -1.44271210
H        2.08874452       1.29398628       1.44780415
H        2.46301286      -0.23572604       0.61999903
H        1.79732180       1.13258907      -0.30442014
H       -0.39174415       0.00544499      -1.20975242
H        0.49321687      -1.64313138      -0.04701792
H       -1.94874235      -1.59228506      -0.46751588
H       -2.05799184      -0.22458599       0.74981902
H       -1.59086877       1.39340384      -1.03593256
13
Frame=5 idx=000006 GeodesicLength=0.3536719229164377 rxn_smarts="[C:1]([O:2][C:3]([C:4]([O:5][H:13])([H:11])[H:12])([H:9])[H:10])([H:6])([H:7])[H:8]>>[C:1]([O:2][C:3](=[C:4]([H:11])[H:12])[H:10])([H:6])([H:7])[H:8].[O:5]([H:9])[H:13]"
C        1.76177559       0.61484568       0.65284488
O        0.44962434       0.21121046       0.95510487
C       -0.06434920      -0.71086079       0.04334976
C       -1.47431342      -0.75194313      -0.00368144
O       -1.55587914       0.54639482      -1.43156539
H        2.07140013       1.31541674       1.42762338
H        2.45131555      -0.23842961       0.64834322
H        1.81367037       1.11020804      -0.32461463
H       -0.38611789       0.00133037      -1.23804419
H        0.49428045      -1.64414157      -0.02857719
H       -1.94553475      -1.60622414      -0.47282531
H       -2.06403383      -0.25113115       0.75688283
H       -1.55183821       1.40332426      -0.98484078
13
Frame=6 idx=000006 GeodesicLength=0.4241312648486534 rxn_smarts="[C:1]([O:2][C:3]([C:4]([O:5][H:13])([H:11])[H:12])([H:9])[H:10])([H:6])([H:7])[H:8]>>[C:1]([O:2][C:3](=[C:4]([H:11])[H:12])[H:10])([H:6])([H:7])[H:8].[O:5]([H:9])[H:13]"
C        1.75599710       0.61711921       0.64538999
O        0.43553364       0.22875069       0.93251271
C       -0.06839019      -0.71232547       0.03541606
C       -1.47934952      -0.76071201      -0.00718050
O       -1.55551233       0.57419455      -1.42090536
H        2.05477028       1.33510310       1.40829350
H        2.43932814      -0.24043506       0.67583882
H        1.82987274       1.08839110      -0.34233307
H       -0.38068044      -0.00012564      -1.26582221
H        0.49514432      -1.64425584      -0.01197681
H       -1.94256803      -1.62003456      -0.47584332
H       -2.06885661      -0.27568225       0.76396566
H       -1.51528909       1.41001217      -0.93735545
13
Frame=7 idx=000006 GeodesicLength=0.49449346074367295 rxn_smarts="[C:1]([O:2][C:3]([C:4]([O:5][H:13])([H:11])[H:12])([H:9])[H:10])([H:6])([H:7])[H:8]>>[C:1]([O:2][C:3](=[C:4]([H:11])[H:12])[H:10])([H:6])([H:7])[H:8].[O:5]([H:9])[H:13]"
C        1.75044687       0.61898751       0.63856389
O        0.42227631       0.24481830       0.91008542
C       -0.07227789      -0.71356033       0.02690321
C       -1.48427030      -0.76880469      -0.01024038
O       -1.55505228       0.60116879      -1.41069434
H        2.03877450       1.35330236       1.38975117
H        2.42704728      -0.24188338       0.70256830
H        1.84589313       1.06708558      -0.35788839
H       -0.37527942       0.00077544      -1.29323722
H        0.49584539      -1.64363633       0.00295026
H       -1.93979898      -1.63380550      -0.47672577
H       -2.07257752      -0.29849385       0.77113239
H       -1.48102711       1.41404610      -0.89316854
13
Frame=8 idx=000006 GeodesicLength=0.5647017057057258 rxn_smarts="[C:1]([O:2][C:3]([C:4]([O:5][H:13])([H:11])[H:12])([H:9])[H:10])([H:6])([H:7])[H:8]>>[C:1]([O:2][C:3](=[C:4]([H:11])[H:12])[H:10])([H:6])([H:7])[H:8].[O:5]([H:9])[H:13]"
C        1.74509264       0.62047797       0.63232323
O        0.40978891       0.25952806       0.88788532
C       -0.07604791      -0.71460246       0.01788443
C       -1.48909565      -0.77629059      -0.01288083
O       -1.55450642       0.62736573      -1.40094514
H        2.02340191       1.37004371       1.37199078
H        2.41448948      -0.24283261       0.72844571
H        1.86165179       1.04636697      -0.37140699
H       -0.36980160       0.00384994      -1.32037040
H        0.49639123      -1.64237963       0.01634717
H       -1.93717301      -1.64759845      -0.47553567
H       -2.07529863      -0.31970105       0.77841169
H       -1.44889274       1.41577239      -0.85214930
13
Frame=9 idx=000006 GeodesicLength=0.6346011983407432 rxn_smarts="[C:1]([O:2][C:3]([C:4]([O:5][H:13])([H:11])[H:12])([H:9])[H:10])([H:6])([H:7])[H:8]>>[C:1]([O:2][C:3](=[C:4]([H:11])[H:12])[H:10])([H:6])([H:7])[H:8].[O:5]([H:9])[H:13]"
C        1.73993500       0.62158220       0.62664788
O        0.39801232       0.27296326       0.86592166
C       -0.07975699      -0.71541522       0.00838008
C       -1.49384010      -0.78321192      -0.01511473
O       -1.55398494       0.65273385      -1.39180935
H        2.00870565       1.38532331       1.35511419
H        2.40172828      -0.24341855       0.75345422
H        1.87708434       1.02629526      -0.38302065
H       -0.36418969       0.00916900      -1.34715535
H        0.49675978      -1.64049447       0.02822203
H       -1.93455476      -1.66145871      -0.47215843
H       -2.07710569      -0.33935472       0.78574290
H       -1.41879319       1.41528670      -0.81422445
13
Frame=10 idx=000006 GeodesicLength=0.7044903144336404 rxn_smarts="[C:1]([O:2][C:3]([C:4]([O:5][H:13])([H:11])[H:12])([H:9])[H:10])([H:6])([H:7])[H:8]>>[C:1]([O:2][C:3](=[C:4]([H:11])[H:12])[H:10])([H:6])([H:7])[H:8].[O:5]([H:9])[H:13]"
C        1.73488616       0.62237086       0.62145337
O        0.38685240       0.28528342       0.84423305
C       -0.08340121      -0.71612755      -0.00152566
C       -1.49852050      -0.78969949      -0.01697622
O       -1.55340476       0.67754442      -1.38306913
H        1.99447930       1.39944260       1.33889924
H        2.38866683      -0.24368632       0.77771566
H        1.89222705       1.00672511      -0.39301264
H       -0.35826082       0.01626579      -1.37384779
H        0.49701409      -1.63815351       0.03878667
H       -1.93198525      -1.67545674      -0.46690133
H       -2.07806969      -0.35777926       0.79326995
H       -1.39048360       1.41327067      -0.77902514
13
Frame=11 idx=000006 GeodesicLength=0.7743358103701953 rxn_smarts="[C:1]([O:2][C:3]([C:4]([O:5][H:13])([H:11])[H:12])([H:9])[H:10])([H:6])([H:7])[H:8]>>[C:1]([O:2][C:3](=[C:4]([H:11])[H:12])[H:10])([H:6])([H:7])[H:8].[O:5]([H:9])[H:13]"
C        1.72991944       0.62286492       0.61671006
O        0.37624869       0.29659514       0.82281009
C       -0.08701299      -0.71675872      -0.01180727
C       -1.50315471      -0.79580987      -0.01848149
O       -1.55275500       0.70181245      -1.37475545
H        1.98069383       1.41248924       1.32334514
H        2.37530346      -0.24372365       0.80125484
H        1.90706368       0.98765641      -0.40152575
H       -0.35194572       0.02503081      -1.40049642
H        0.49715961      -1.63541434       0.04808294
H       -1.92941378      -1.68962459      -0.45979181
H       -2.07825185      -0.37506003       0.80099958
H       -1.36385466       1.40994225      -0.74634446
13
Frame=12 idx=000006 GeodesicLength=0.8441866906501613 rxn_smarts="[C:1]([O:2][C:3]([C:4]([O:5][H:13])([H:11])[H:12])([H:9])[H:10])([H:6])([H:7])[H:8]>>[C:1]([O:2][C:3](=[C:4]([H:11])[H:12])[H:10])([H:6])([H:7])[H:8].[O:5]([H:9])[H:13]"
C        1.72499949       0.62308838       0.61237977
O        0.36613631       0.30699959       0.80162742
C       -0.09062089      -0.71732011      -0.02244688
C       -1.50775789      -0.80160299      -0.01963922
O       -1.55204964       0.72559098      -1.36688464
H        1.96730354       1.42456371       1.30841597
H        2.36160163      -0.24360098       0.82413292
H        1.92158238       0.96903622      -0.40869528
H       -0.34516783       0.03537069      -1.42714097
H        0.49722182      -1.63232481       0.05613701
H       -1.92679839      -1.70400326      -0.45086092
H       -2.07769967      -0.39130601       0.80895260
H       -1.33875086       1.40550860      -0.71597778
13
Frame=13 idx=000006 GeodesicLength=0.9140509678925451 rxn_smarts="[C:1]([O:2][C:3]([C:4]([O:5][H:13])([H:11])[H:12])([H:9])[H:10])([H:6])([H:7])[H:8]>>[C:1]([O:2][C:3](=[C:4]([H:11])[H:12])[H:10])([H:6])([H:7])[H:8].[O:5]([H:9])[H:13]"
C        1.72010164       0.62304460       0.60843726
O        0.35646130       0.31657465       0.78066569
C       -0.09425385      -0.71781602      -0.03343366
C       -1.51234141      -0.80713056      -0.02045105
O       -1.55131963       0.74889856      -1.35946474
H        1.95428050       1.43571843       1.29408839
H        2.34753977      -0.24335506       0.84638816
H        1.93577831       0.95082246      -0.41460509
H       -0.33786312       0.04724085      -1.45381060
H        0.49720965      -1.62892050       0.06295893
H       -1.92408427      -1.71860126      -0.44011095
H       -2.07644344      -0.40660029       0.81713928
H       -1.31506545       1.40012415      -0.68780163
13
Frame=14 idx=000006 GeodesicLength=0.9838844761633216 rxn_smarts="[C:1]([O:2][C:3]([C:4]([O:5][H:13])([H:11])[H:12])([H:9])[H:10])([H:6])([H:7])[H:8]>>[C:1]([O:2][C:3](=[C:4]([H:11])[H:12])[H:10])([H:6])([H:7])[H:8].[O:5]([H:9])[H:13]"
C        1.71521789       0.62273746       0.60487283
O        0.34718283       0.32539806       0.75990532
C       -0.09793656      -0.71824645      -0.04475710
C       -1.51691690      -0.81242921      -0.02090186
O       -1.55056536       0.77171678      -1.35252721
H        1.94159726       1.44594270       1.28039111
H        2.33313936      -0.24304895       0.86800933
H        1.94967569       0.93305255      -0.41932011
H       -0.32996834       0.06061131      -1.48052662
H        0.49712263      -1.62521955       0.06855095
H       -1.92124049      -1.73342512      -0.42752380
H       -2.07452212      -0.42097376       0.82557645
H       -1.29278589       1.39388418      -0.66174929
13
Frame=15 idx=000006 GeodesicLength=1.053740553941235 rxn_smarts="[C:1]([O:2][C:3]([C:4]([O:5][H:13])([H:11])[H:12])([H:9])[H:10])([H:6])([H:7])[H:8]>>[C:1]([O:2][C:3](=[C:4]([H:11])[H:12])[H:10])([H:6])([H:7])[H:8].[O:5]([H:9])[H:13]"
C        1.71032469       0.62217210       0.60166596
O        0.33825365       0.33354539       0.73930832
C       -0.10169229      -0.71861342      -0.05641802
C       -1.52149105      -0.81754984      -0.02098131
O       -1.54982954       0.79409333      -1.34605991
H        1.92921449       1.45530438       1.26729655
H        2.31836253      -0.24273127       0.88906797
H        1.96329344       0.91565950      -0.42292374
H       -0.32141755       0.07544473      -1.50731758
H        0.49698189      -1.62125536       0.07290088
H       -1.91821783      -1.74847294      -0.41310513
H       -2.07194802      -0.43450588       0.83428955
H       -1.27183440       1.38690928      -0.63772354
13
Frame=16 idx=000006 GeodesicLength=1.1236137966883293 rxn_smarts="[C:1]([O:2][C:3]([C:4]([O:5][H:13])([H:11])[H:12])([H:9])[H:10])([H:6])([H:7])[H:8]>>[C:1]([O:2][C:3](=[C:4]([H:11])[H:12])[H:10])([H:6])([H:7])[H:8].[O:5]([H:9])[H:13]"
C        1.70540207       0.62134567       0.59880247
O        0.32962989       0.34108573       0.71883633
C       -0.10554756      -0.71891412      -0.06841874
C       -1.52607213      -0.82253679      -0.02067272
O       -1.54913142       0.81603759      -1.34007893
H        1.91710413       1.46383238       1.25479959
H        2.30318870      -0.24245167       0.90959800
H        1.97664683       0.89861601      -0.42547493
H       -0.31216255       0.09174569      -1.53418787
H        0.49680243      -1.61704857       0.07599229
H       -1.91496955      -1.76374454      -0.39683926
H       -2.06873820      -0.44724205       0.84330154
H       -1.25215264       1.37927467      -0.61565778
