12
Frame=0 idx=001142 GeodesicLength=0.0 rxn_smarts="[O:1]([C:2]([C@@:3]1([H:9])[C:4]([H:10])([H:11])[N:5]1[H:12])([H:7])[H:8])[H:6]>>[O:1]([C:2]([C:3]([N:5]=[C:4]([H:10])[H:11])([H:9])[H:12])([H:7])[H:8])[H:6]"
O        1.65564776       0.52097929       0.63051040
C        1.10040516      -0.55739781      -0.06863256
C       -0.28614719      -0.20880741      -0.59825098
C       -1.26663678       0.29169602       0.54889624
N       -0.91183460       1.37470412      -0.17563701
H        1.05245725       1.27370871       0.50380205
H        1.03838815      -1.42788168       0.59303620
H        1.73679469      -0.83157599      -0.91863284
H       -0.84733349      -0.98676752      -1.11595739
H       -0.78456705       0.09523794       1.51623817
H       -2.27969982      -0.12665079       0.47273563
H       -0.20747407       0.58275512      -1.38810792
12
Frame=1 idx=001142 GeodesicLength=0.09840040263496456 rxn_smarts="[O:1]([C:2]([C@@:3]1([H:9])[C:4]([H:10])([H:11])[N:5]1[H:12])([H:7])[H:8])[H:6]>>[O:1]([C:2]([C:3]([N:5]=[C:4]([H:10])[H:11])([H:9])[H:12])([H:7])[H:8])[H:6]"
O        1.66964797       0.52217120       0.62560651
C        1.10717386      -0.55367684      -0.07151024
C       -0.28209153      -0.20930503      -0.59461658
C       -1.28128960       0.29028488       0.55470944
N       -0.89832066       1.35514300      -0.18126147
H        1.06814116       1.27690061       0.50905435
H        1.04906401      -1.42363871       0.59142126
H        1.74043462      -0.82895266      -0.92342307
H       -0.83771411      -0.99501372      -1.10684191
H       -0.80923115       0.07812251       1.52288123
H       -2.30349853      -0.10215854       0.47399748
H       -0.22231604       0.59012331      -1.40001700
12
Frame=2 idx=001142 GeodesicLength=0.19683785180587104 rxn_smarts="[O:1]([C:2]([C@@:3]1([H:9])[C:4]([H:10])([H:11])[N:5]1[H:12])([H:7])[H:8])[H:6]>>[O:1]([C:2]([C:3]([N:5]=[C:4]([H:10])[H:11])([H:9])[H:12])([H:7])[H:8])[H:6]"
O        1.68404007       0.52369020       0.62014652
C        1.11425001      -0.54995539      -0.07430332
C       -0.27775625      -0.21014355      -0.59089167
C       -1.29617392       0.28881106       0.56024073
N       -0.88499440       1.33527035      -0.18592098
H        1.08415089       1.28023708       0.51379816
H        1.06012851      -1.41910879       0.59025820
H        1.74423883      -0.82664673      -0.92811777
H       -0.82787233      -1.00330074      -1.09776089
H       -0.83485263       0.05983316       1.52898459
H       -2.32731099      -0.07628239       0.47510722
H       -0.23784779       0.59759573      -1.41154080
12
Frame=3 idx=001142 GeodesicLength=0.2952952502389835 rxn_smarts="[O:1]([C:2]([C@@:3]1([H:9])[C:4]([H:10])([H:11])[N:5]1[H:12])([H:7])[H:8])[H:6]>>[O:1]([C:2]([C:3]([N:5]=[C:4]([H:10])[H:11])([H:9])[H:12])([H:7])[H:8])[H:6]"
O        1.69882511       0.52554910       0.61410124
C        1.12164084      -0.54624078      -0.07700752
C       -0.27313288      -0.21133883      -0.58706794
C       -1.31129370       0.28725331       0.56548574
N       -0.87187429       1.31507083      -0.18964016
H        1.10048843       1.28372948       0.51799663
H        1.07159358      -1.41427879       0.58956909
H        1.74821145      -0.82468412      -0.93270560
H       -0.81779535      -1.01164287      -1.08872845
H       -0.86148802       0.04030959       1.53447997
H       -2.35108008      -0.04895623       0.47610030
H       -0.25409510       0.60522931      -1.42258329
12
Frame=4 idx=001142 GeodesicLength=0.39376370486710577 rxn_smarts="[O:1]([C:2]([C@@:3]1([H:9])[C:4]([H:10])([H:11])[N:5]1[H:12])([H:7])[H:8])[H:6]>>[O:1]([C:2]([C:3]([N:5]=[C:4]([H:10])[H:11])([H:9])[H:12])([H:7])[H:8])[H:6]"
O        1.71399783       0.52776392       0.60744120
C        1.12935173      -0.54254156      -0.07961659
C       -0.26821388      -0.21290953      -0.58313944
C       -1.32665749       0.28558804       0.57043342
N       -0.85897912       1.29452442      -0.19244453
H        1.11714946       1.28739404       0.52160577
H        1.08347112      -1.40913419       0.58937986
H        1.75235761      -0.82309496      -0.93716902
H       -0.80747013      -1.02005401      -1.07977093
H       -0.88920608       0.01948548       1.53928095
H       -2.37472910      -0.02010730       0.47704482
H       -0.27107195       0.61308565      -1.43304551
12
Frame=5 idx=001142 GeodesicLength=0.49222972546008326 rxn_smarts="[O:1]([C:2]([C@@:3]1([H:9])[C:4]([H:10])([H:11])[N:5]1[H:12])([H:7])[H:8])[H:6]>>[O:1]([C:2]([C:3]([N:5]=[C:4]([H:10])[H:11])([H:9])[H:12])([H:7])[H:8])[H:6]"
O        1.72955281       0.53035148       0.60013673
C        1.13739054      -0.53886309      -0.08212654
C       -0.26299120      -0.21487653      -0.57909745
C       -1.34226384       0.28378717       0.57508298
N       -0.84633379       1.27360720      -0.19435672
H        1.13412888       1.29124471       0.52458393
H        1.09577641      -1.40365925       0.58971383
H        1.75668490      -0.82190155      -0.94149581
H       -0.79688595      -1.02855704      -1.07089470
H       -0.91807470      -0.00271133       1.54330245
H       -2.39818591       0.01035741       0.47798107
H       -0.28879816       0.62122082      -1.44282978
12
Frame=6 idx=001142 GeodesicLength=0.5906798567606971 rxn_smarts="[O:1]([C:2]([C@@:3]1([H:9])[C:4]([H:10])([H:11])[N:5]1[H:12])([H:7])[H:8])[H:6]>>[O:1]([C:2]([C:3]([N:5]=[C:4]([H:10])[H:11])([H:9])[H:12])([H:7])[H:8])[H:6]"
O        1.74547261       0.53333088       0.59215937
C        1.14575830      -0.53521262      -0.08452947
C       -0.25745925      -0.21725633      -0.57494369
C       -1.35812940       0.28182093       0.57941523
N       -0.83396011       1.25229160      -0.19540686
H        1.15141149       1.29530438       0.52688170
H        1.10851480      -1.39783245       0.59060168
H        1.76120106      -0.82113759      -0.94565812
H       -0.78602747      -1.03716628      -1.06213555
H       -0.94818393      -0.02635759       1.54641675
H       -2.42133169       0.04252251       0.47903705
H       -0.30726641       0.62969256      -1.45183808
12
Frame=7 idx=001142 GeodesicLength=0.6890990363442248 rxn_smarts="[O:1]([C:2]([C@@:3]1([H:9])[C:4]([H:10])([H:11])[N:5]1[H:12])([H:7])[H:8])[H:6]>>[O:1]([C:2]([C:3]([N:5]=[C:4]([H:10])[H:11])([H:9])[H:12])([H:7])[H:8])[H:6]"
O        1.76173708       0.53671953       0.58348013
C        1.15445878      -0.53159257      -0.08681724
C       -0.25160931      -0.22006618      -0.57067149
C       -1.37425651       0.27965658       0.58341844
N       -0.82188690       1.23055074      -0.19562984
H        1.16898043       1.29958833       0.52845029
H        1.12169019      -1.39163066       0.59207092
H        1.76591824      -0.82082577      -0.94963083
H       -0.77487849      -1.04589946      -1.05351008
H       -0.97961694      -0.05153888       1.54850346
H       -2.44406289       0.07648750       0.48032091
H       -0.32647368       0.63855083      -1.45998469
12
Frame=8 idx=001142 GeodesicLength=0.7874877030881035 rxn_smarts="[O:1]([C:2]([C@@:3]1([H:9])[C:4]([H:10])([H:11])[N:5]1[H:12])([H:7])[H:8])[H:6]>>[O:1]([C:2]([C:3]([N:5]=[C:4]([H:10])[H:11])([H:9])[H:12])([H:7])[H:8])[H:6]"
O        1.77832212       0.54053788       0.57407457
C        1.16348895      -0.52800664      -0.08897520
C       -0.24543455      -0.22332952      -0.56628555
C       -1.39065696       0.27725766       0.58706174
N       -0.81014947       1.20834552      -0.19505834
H        1.18681886       1.30412181       0.52923648
H        1.13529095      -1.38502042       0.59416612
H        1.77085052      -0.82099638      -0.95337305
H       -0.76341880      -1.05477851      -1.04505369
H       -1.01247317      -0.07834536       1.54937090
H       -2.46622449       0.11235537       0.48201873
H       -0.34641397       0.64785859      -1.46718271
12
Frame=9 idx=001142 GeodesicLength=0.8856802870381387 rxn_smarts="[O:1]([C:2]([C@@:3]1([H:9])[C:4]([H:10])([H:11])[N:5]1[H:12])([H:7])[H:8])[H:6]>>[O:1]([C:2]([C:3]([N:5]=[C:4]([H:10])[H:11])([H:9])[H:12])([H:7])[H:8])[H:6]"
O        1.79516935       0.54480864       0.56387182
C        1.17282531      -0.52445750      -0.09097556
C       -0.23895217      -0.22701698      -0.56181267
C       -1.40740128       0.27459326       0.59032555
N       -0.79869804       1.18566530      -0.19368186
H        1.20486022       1.30893908       0.52911021
H        1.14928674      -1.37793997       0.59695926
H        1.77599193      -0.82174533      -0.95678440
H       -0.75166076      -1.06373664      -1.03689979
H       -1.04683211      -0.10681184       1.54878118
H       -2.48761485       0.15006402       0.48438691
H       -0.36697434       0.65763795      -1.47328064
12
Frame=10 idx=001142 GeodesicLength=0.9838305519050224 rxn_smarts="[O:1]([C:2]([C@@:3]1([H:9])[C:4]([H:10])([H:11])[N:5]1[H:12])([H:7])[H:8])[H:6]>>[O:1]([C:2]([C:3]([N:5]=[C:4]([H:10])[H:11])([H:9])[H:12])([H:7])[H:8])[H:6]"
O        1.81225276       0.54955093       0.55289668
C        1.18248097      -0.52095010      -0.09281522
C       -0.23214416      -0.23120301      -0.55724101
C       -1.42445781       0.27162373       0.59317054
N       -0.78763180       1.16244616      -0.19158654
H        1.22309380       1.31406121       0.52806446
H        1.16369709      -1.37038449       0.60045853
H        1.78137921      -0.82304281      -0.95986698
H       -0.73956484      -1.07288797      -1.02899754
H       -1.08282769      -0.13704753       1.54657362
H       -2.50808336       0.18984726       0.48759624
H       -0.38819419       0.66798662      -1.47825279
12
Frame=11 idx=001142 GeodesicLength=1.0819386137517473 rxn_smarts="[O:1]([C:2]([C@@:3]1([H:9])[C:4]([H:10])([H:11])[N:5]1[H:12])([H:7])[H:8])[H:6]>>[O:1]([C:2]([C:3]([N:5]=[C:4]([H:10])[H:11])([H:9])[H:12])([H:7])[H:8])[H:6]"
O        1.82951580       0.55478192       0.54112512
C        1.19244693      -0.51748127      -0.09447899
C       -0.22500481      -0.23591025      -0.55256398
C       -1.44183056       0.26830683       0.59558243
N       -0.77697518       1.13864878      -0.18882415
H        1.24147048       1.31950721       0.52601848
H        1.17851194      -1.36230650       0.60469969
H        1.78702860      -0.82491065      -0.96256862
H       -0.72710903      -1.08225951      -1.02135989
H       -1.12057195      -0.16914571       1.54254215
H       -2.52744525       0.23181311       0.49185247
H       -0.41003698       0.67895605      -1.48202473
12
Frame=12 idx=001142 GeodesicLength=1.1800181123259241 rxn_smarts="[O:1]([C:2]([C@@:3]1([H:9])[C:4]([H:10])([H:11])[N:5]1[H:12])([H:7])[H:8])[H:6]>>[O:1]([C:2]([C:3]([N:5]=[C:4]([H:10])[H:11])([H:9])[H:12])([H:7])[H:8])[H:6]"
O        1.84689604       0.56052777       0.52854169
C        1.20270733      -0.51405113      -0.09593860
C       -0.21753645      -0.24117186      -0.54779990
C       -1.45954902       0.26459507       0.59749981
N       -0.76676731       1.11421622      -0.18545561
H        1.25993556       1.32531479       0.52288773
H        1.19369906      -1.35365607       0.60974463
H        1.79296098      -0.82737877      -0.96481255
H       -0.71426900      -1.09188769      -1.01403414
H       -1.16021811      -0.20317770       1.53637225
H       -2.54541105       0.27605578       0.49751971
H       -0.43244803       0.69061358      -1.48452502
12
Frame=13 idx=001142 GeodesicLength=1.277978690901992 rxn_smarts="[O:1]([C:2]([C@@:3]1([H:9])[C:4]([H:10])([H:11])[N:5]1[H:12])([H:7])[H:8])[H:6]>>[O:1]([C:2]([C:3]([N:5]=[C:4]([H:10])[H:11])([H:9])[H:12])([H:7])[H:8])[H:6]"
O        1.86427107       0.56682020       0.51515023
C        1.21324479      -0.51066137      -0.09716140
C       -0.20974680      -0.24700403      -0.54300047
C       -1.47768458       0.26047086       0.59886071
N       -0.75700150       1.08910751      -0.18154796
H        1.27835075       1.33154226       0.51854587
H        1.20924446      -1.34437659       0.61564813
H        1.79922484      -0.83051356      -0.96648849
H       -0.70102957      -1.10179276      -1.00714129
H       -1.20192084      -0.23921602       1.52770144
H       -2.56165507       0.32266094       0.50510561
H       -0.45529755       0.70296256      -1.48567238
12
Frame=14 idx=001142 GeodesicLength=1.3759427227419534 rxn_smarts="[O:1]([C:2]([C@@:3]1([H:9])[C:4]([H:10])([H:11])[N:5]1[H:12])([H:7])[H:8])[H:6]>>[O:1]([C:2]([C:3]([N:5]=[C:4]([H:10])[H:11])([H:9])[H:12])([H:7])[H:8])[H:6]"
O        1.88158409       0.57368345       0.50094971
C        1.22404262      -0.50730044      -0.09811740
C       -0.20162624      -0.25347111      -0.53815094
C       -1.49621631       0.25586303       0.59959630
N       -0.74776677       1.06323775      -0.17721171
H        1.29667870       1.33821212       0.51292017
H        1.22510211      -1.33440197       0.62247125
H        1.80584495      -0.83429590      -0.96753041
H       -0.68734036      -1.11205852      -1.00064077
H       -1.24588647      -0.27735708       1.51618120
H       -2.57582796       0.37179476       0.51498574
H       -0.47858834       0.71609390      -1.48545315
12
Frame=15 idx=001142 GeodesicLength=1.4739058011608062 rxn_smarts="[O:1]([C:2]([C@@:3]1([H:9])[C:4]([H:10])([H:11])[N:5]1[H:12])([H:7])[H:8])[H:6]>>[O:1]([C:2]([C:3]([N:5]=[C:4]([H:10])[H:11])([H:9])[H:12])([H:7])[H:8])[H:6]"
O        1.89871448       0.58114899       0.48593880
C        1.23506238      -0.50395838      -0.09876623
C       -0.19318097      -0.26061367      -0.53327565
C       -1.51517750       0.25073842       0.59963002
N       -0.73909099       1.03653267      -0.17255123
H        1.31480172       1.34536238       0.50588057
H        1.24120645      -1.32365367       0.63029028
H        1.81284382      -0.83873832      -0.96782652
H       -0.67316747      -1.12272936      -0.99456455
H       -1.29233232      -0.31764060       1.50136190
H       -2.58745067       0.42351298       0.52769378
H       -0.50222893       0.73003856      -1.48381117
12
Frame=16 idx=001142 GeodesicLength=1.5718649847830932 rxn_smarts="[O:1]([C:2]([C@@:3]1([H:9])[C:4]([H:10])([H:11])[N:5]1[H:12])([H:7])[H:8])[H:6]>>[O:1]([C:2]([C:3]([N:5]=[C:4]([H:10])[H:11])([H:9])[H:12])([H:7])[H:8])[H:6]"
O        1.91554269       0.58929886       0.47016224
C        1.24627963      -0.50062955      -0.09904864
C       -0.18443321      -0.26850109      -0.52844373
C       -1.53464634       0.24504598       0.59881412
N       -0.73103646       1.00890457      -0.16771339
H        1.33257168       1.35310977       0.49730562
H        1.25752548      -1.31208013       0.63922043
H        1.82027777      -0.84388807      -0.96723631
H       -0.65848106      -1.13391112      -0.98901274
H       -1.34157087      -0.36010472       1.48262952
H       -2.59589680       0.47794823       0.54405153
H       -0.52613252       0.74480728      -1.48072865
