15
Frame=0 idx=006492 GeodesicLength=0.0 rxn_smarts="[O:1]=[C:2]1[N:3]([H:8])[C:4]([H:9])([H:10])[C:5]([H:11])([H:12])[C:6]([H:13])([H:14])[N:7]1[H:15]>>[O:1]=[C:2]1[N:3]([H:8])[C:4]([H:9])([H:10])[C:5]([H:11])([H:12])[C-:6]([H:13])[N+:7]1([H:14])[H:15]"
O        2.72233859      -0.41290549      -0.05453606
C        1.53023938      -0.24870808      -0.18046875
N        0.61895195      -1.23116377      -0.30978160
C       -0.83209512      -1.08031708      -0.25750877
C       -1.20072485       0.13259809       0.58086779
C       -0.64942305       1.38670225      -0.03241565
N        0.98900374       1.06700399      -0.23104722
H        1.01923458      -2.15308064      -0.30119184
H       -1.24237548      -0.97079772      -1.26525881
H       -1.23551727      -1.99641802       0.17699387
H       -0.86779847      -0.05277927       1.61489960
H       -2.28935753       0.22700960       0.59959230
H       -0.62453918       2.22384630       0.66540197
H        0.41199747       1.35300761      -1.10389269
H        1.65006524       1.75600219       0.09834586
15
Frame=1 idx=006492 GeodesicLength=0.06544089293883942 rxn_smarts="[O:1]=[C:2]1[N:3]([H:8])[C:4]([H:9])([H:10])[C:5]([H:11])([H:12])[C:6]([H:13])([H:14])[N:7]1[H:15]>>[O:1]=[C:2]1[N:3]([H:8])[C:4]([H:9])([H:10])[C:5]([H:11])([H:12])[C-:6]([H:13])[N+:7]1([H:14])[H:15]"
O        2.72179567      -0.40702888      -0.04678524
C        1.52902953      -0.24640364      -0.17195685
N        0.62105739      -1.23258272      -0.30009230
C       -0.82947678      -1.07996828      -0.25896208
C       -1.20328683       0.13228566       0.57904652
C       -0.63471070       1.38933552      -0.01328533
N        0.98447215       1.06646999      -0.24131924
H        1.02264104      -2.15382795      -0.29116633
H       -1.23171639      -0.96841360      -1.26995059
H       -1.23866693      -1.99624925       0.16966516
H       -0.88602830      -0.05726456       1.61667245
H       -2.29179009       0.23106421       0.58219262
H       -0.59853232       2.21293314       0.70006051
H        0.38436523       1.34806000      -1.11793068
H        1.65084733       1.76159037       0.06381138
15
Frame=2 idx=006492 GeodesicLength=0.13093794547749182 rxn_smarts="[O:1]=[C:2]1[N:3]([H:8])[C:4]([H:9])([H:10])[C:5]([H:11])([H:12])[C:6]([H:13])([H:14])[N:7]1[H:15]>>[O:1]=[C:2]1[N:3]([H:8])[C:4]([H:9])([H:10])[C:5]([H:11])([H:12])[C-:6]([H:13])[N+:7]1([H:14])[H:15]"
O        2.72137646      -0.40092804      -0.04011485
C        1.52792497      -0.24394010      -0.16423295
N        0.62319621      -1.23389468      -0.29014294
C       -0.82674460      -1.07966370      -0.26021057
C       -1.20590373       0.13223955       0.57688233
C       -0.61970411       1.39165160       0.00573146
N        0.97995548       1.06584780      -0.25128782
H        1.02610935      -2.15445031      -0.28065050
H       -1.22090904      -0.96652300      -1.27440715
H       -1.24156421      -1.99598455       0.16281653
H       -0.90503956      -0.06135117       1.61805339
H       -2.29397954       0.23575303       0.56385635
H       -0.57170708       2.20097533       0.73462441
H        0.35580251       1.34380259      -1.13076167
H        1.65118687       1.76646565       0.02984399
15
Frame=3 idx=006492 GeodesicLength=0.1964716454057973 rxn_smarts="[O:1]=[C:2]1[N:3]([H:8])[C:4]([H:9])([H:10])[C:5]([H:11])([H:12])[C:6]([H:13])([H:14])[N:7]1[H:15]>>[O:1]=[C:2]1[N:3]([H:8])[C:4]([H:9])([H:10])[C:5]([H:11])([H:12])[C-:6]([H:13])[N+:7]1([H:14])[H:15]"
O        2.72108936      -0.39466494      -0.03449317
C        1.52693761      -0.24135699      -0.15728776
N        0.62537041      -1.23509477      -0.27998011
C       -0.82390311      -1.07939522      -0.26123625
C       -1.20855717       0.13246890       0.57439402
C       -0.60444834       1.39361920       0.02453682
N        0.97545726       1.06513537      -0.26092879
H        1.02964129      -2.15494412      -0.26978351
H       -1.21000402      -0.96512968      -1.27861516
H       -1.24418918      -1.99561084       0.15651504
H       -0.92474671      -0.06498320       1.61904287
H       -2.29588642       0.24107335       0.54467336
H       -0.54419847       2.18796080       0.76889797
H        0.32638941       1.34028431      -1.14238711
H        1.65104807       1.77063785      -0.00334822
15
Frame=4 idx=006492 GeodesicLength=0.26202989571021873 rxn_smarts="[O:1]=[C:2]1[N:3]([H:8])[C:4]([H:9])([H:10])[C:5]([H:11])([H:12])[C:6]([H:13])([H:14])[N:7]1[H:15]>>[O:1]=[C:2]1[N:3]([H:8])[C:4]([H:9])([H:10])[C:5]([H:11])([H:12])[C-:6]([H:13])[N+:7]1([H:14])[H:15]"
O        2.72096893      -0.38827422      -0.02986327
C        1.52609484      -0.23868362      -0.15111402
N        0.62757983      -1.23619830      -0.26964590
C       -0.82097288      -1.07918094      -0.26204304
C       -1.21124004       0.13297885       0.57159625
C       -0.58897240       1.39523079       0.04309403
N        0.97099112       1.06434741      -0.27023000
H        1.03322954      -2.15533586      -0.25862657
H       -1.19905021      -0.96427014      -1.28257582
H       -1.24656855      -1.99515086       0.15076483
H       -0.94508692      -0.06809806       1.61962173
H       -2.29749192       0.24700322       0.52471021
H       -0.51609547       2.17390568       0.80279625
H        0.29616918       1.33753859      -1.15279748
H        1.65044495       1.77418747      -0.03568722
15
Frame=5 idx=006492 GeodesicLength=0.32761934925827935 rxn_smarts="[O:1]=[C:2]1[N:3]([H:8])[C:4]([H:9])([H:10])[C:5]([H:11])([H:12])[C:6]([H:13])([H:14])[N:7]1[H:15]>>[O:1]=[C:2]1[N:3]([H:8])[C:4]([H:9])([H:10])[C:5]([H:11])([H:12])[C-:6]([H:13])[N+:7]1([H:14])[H:15]"
O        2.72099339      -0.38179478      -0.02616295
C        1.52539026      -0.23594856      -0.14570038
N        0.62981473      -1.23720505      -0.25917107
C       -0.81795718      -1.07901553      -0.26263034
C       -1.21392670       0.13376266       0.56849977
C       -0.57330342       1.39647237       0.06135209
N        0.96655242       1.06349041      -0.27918663
H        1.03685354      -2.15562789      -0.24721438
H       -1.18806378      -0.96392584      -1.28628250
H       -1.24870491      -1.99460461       0.14557391
H       -0.96597731      -0.07067396       1.61976387
H       -2.29874206       0.25351121       0.50403726
H       -0.48748003       2.15879854       0.83621105
H        0.26518231       1.33559734      -1.16199077
H        1.64936876       1.77716371      -0.06709893
15
Frame=6 idx=006492 GeodesicLength=0.39324045955011944 rxn_smarts="[O:1]=[C:2]1[N:3]([H:8])[C:4]([H:9])([H:10])[C:5]([H:11])([H:12])[C:6]([H:13])([H:14])[N:7]1[H:15]>>[O:1]=[C:2]1[N:3]([H:8])[C:4]([H:9])([H:10])[C:5]([H:11])([H:12])[C-:6]([H:13])[N+:7]1([H:14])[H:15]"
O        2.72118567      -0.37526924      -0.02333897
C        1.52484003      -0.23318487      -0.14102673
N        0.63207808      -1.23812989      -0.24859389
C       -0.81487128      -1.07890651      -0.26300734
C       -1.21660743       0.13482201       0.56512230
C       -0.55748651       1.39734486       0.07926338
N        0.96214891       1.06257307      -0.28778496
H        1.04051526      -2.15584491      -0.23559385
H       -1.17708659      -0.96410406      -1.28974663
H       -1.25061461      -1.99398521       0.14093571
H       -0.98732769      -0.07266217       1.61946012
H       -2.29962196       0.26056720       0.48273619
H       -0.45845655       2.14267560       0.86904576
H        0.23346521       1.33447473      -1.16996978
H        1.64783944       1.77962940      -0.09750131
15
Frame=7 idx=006492 GeodesicLength=0.45888421372621724 rxn_smarts="[O:1]=[C:2]1[N:3]([H:8])[C:4]([H:9])([H:10])[C:5]([H:11])([H:12])[C:6]([H:13])([H:14])[N:7]1[H:15]>>[O:1]=[C:2]1[N:3]([H:8])[C:4]([H:9])([H:10])[C:5]([H:11])([H:12])[C-:6]([H:13])[N+:7]1([H:14])[H:15]"
O        2.72151583      -0.36872479      -0.02158654
C        1.52440704      -0.23040356      -0.13698378
N        0.63435377      -1.23895960      -0.23785320
C       -0.81170344      -1.07883798      -0.26315002
C       -1.21926657       0.13614185       0.56146654
C       -0.54151317       1.39781026       0.09678062
N        0.95777563       1.06159553      -0.29597826
H        1.04417080      -2.15596545      -0.22378272
H       -1.16605520      -0.96476608      -1.29294188
H       -1.25231266      -1.99327414       0.13686422
H       -1.00913806      -0.07403524       1.61869215
H       -2.30007551       0.26812094       0.46080804
H       -0.42911258       2.12547547       0.90117062
H        0.20111809       1.33418846      -1.17668107
H        1.64583605       1.78163434      -0.12682473
15
Frame=8 idx=006492 GeodesicLength=0.5245762902850005 rxn_smarts="[O:1]=[C:2]1[N:3]([H:8])[C:4]([H:9])([H:10])[C:5]([H:11])([H:12])[C:6]([H:13])([H:14])[N:7]1[H:15]>>[O:1]=[C:2]1[N:3]([H:8])[C:4]([H:9])([H:10])[C:5]([H:11])([H:12])[C-:6]([H:13])[N+:7]1([H:14])[H:15]"
O        2.72187677      -0.36215688      -0.02035195
C        1.52408007      -0.22762511      -0.13376183
N        0.63660645      -1.23967890      -0.22716143
C       -0.80847764      -1.07879397      -0.26312639
C       -1.22183494       0.13767502       0.55755428
C       -0.52542792       1.39787574       0.11387012
N        0.95343071       1.06057035      -0.30386534
H        1.04776200      -2.15597226      -0.21161583
H       -1.15506506      -0.96583435      -1.29588967
H       -1.25381243      -1.99247429       0.13327688
H       -1.03114785      -0.07487715       1.61739590
H       -2.30001637       0.27607533       0.43847263
H       -0.39947105       2.10721772       0.93255422
H        0.16809578       1.33477603      -1.18219919
H        1.64340146       1.78322273      -0.15515240
15
Frame=9 idx=006492 GeodesicLength=0.5903102756884387 rxn_smarts="[O:1]=[C:2]1[N:3]([H:8])[C:4]([H:9])([H:10])[C:5]([H:11])([H:12])[C:6]([H:13])([H:14])[N:7]1[H:15]>>[O:1]=[C:2]1[N:3]([H:8])[C:4]([H:9])([H:10])[C:5]([H:11])([H:12])[C-:6]([H:13])[N+:7]1([H:14])[H:15]"
O        2.72238480      -0.35563817      -0.01984322
C        1.52389727      -0.22489380      -0.13122845
N        0.63887527      -1.24033194      -0.21648117
C       -0.80520757      -1.07879358      -0.26294134
C       -1.22434675       0.13944724       0.55341267
C       -0.50928867       1.39756073       0.13049079
N        0.94913372       1.05950271      -0.31137932
H        1.05134352      -2.15593212      -0.19917104
H       -1.14413417      -0.96733744      -1.29863418
H       -1.25513967      -1.99160820       0.13015889
H       -1.05334086      -0.07507581       1.61563086
H       -2.29951329       0.28442283       0.41575934
H       -0.36969978       2.08798414       0.96310573
H        0.13446448       1.33622813      -1.18650174
H        1.64057170       1.78446529      -0.18237782
15
Frame=10 idx=006492 GeodesicLength=0.6560769210714198 rxn_smarts="[O:1]=[C:2]1[N:3]([H:8])[C:4]([H:9])([H:10])[C:5]([H:11])([H:12])[C:6]([H:13])([H:14])[N:7]1[H:15]>>[O:1]=[C:2]1[N:3]([H:8])[C:4]([H:9])([H:10])[C:5]([H:11])([H:12])[C-:6]([H:13])[N+:7]1([H:14])[H:15]"
O        2.72299521      -0.34919931      -0.01999943
C        1.52383310      -0.22222635      -0.12932640
N        0.64114333      -1.24091429      -0.20584573
C       -0.80189544      -1.07882250      -0.26259795
C       -1.22677520       0.14143566       0.54906270
C       -0.49312946       1.39685578       0.14657041
N        0.94489329       1.05839445      -0.31850230
H        1.05488329      -2.15583500      -0.18650762
H       -1.13326456      -0.96922208      -1.30116366
H       -1.25630187      -1.99066780       0.12749947
H       -1.07559659      -0.07463272       1.61338844
H       -2.29853241       0.29308955       0.39278372
H       -0.33992054       2.06781906       0.99267602
H        0.10029893       1.33852918      -1.18959623
H        1.63736891       1.78539639      -0.20844143
15
Frame=11 idx=006492 GeodesicLength=0.7218751640952192 rxn_smarts="[O:1]=[C:2]1[N:3]([H:8])[C:4]([H:9])([H:10])[C:5]([H:11])([H:12])[C:6]([H:13])([H:14])[N:7]1[H:15]>>[O:1]=[C:2]1[N:3]([H:8])[C:4]([H:9])([H:10])[C:5]([H:11])([H:12])[C-:6]([H:13])[N+:7]1([H:14])[H:15]"
O        2.72369445      -0.34287260      -0.02075348
C        1.52387795      -0.21964669      -0.12800827
N        0.64340252      -1.24142982      -0.19530751
C       -0.79855287      -1.07887578      -0.26211748
C       -1.22910128       0.14361779       0.54452869
C       -0.47699001       1.39576911       0.16205009
N        0.94072556       1.05724772      -0.32521989
H        1.05836062      -2.15568611      -0.17363333
H       -1.12248138      -0.97144785      -1.30349013
H       -1.25731803      -1.98965642       0.12526104
H       -1.09778519      -0.07354425       1.61067804
H       -2.29706831       0.30199315       0.36966354
H       -0.31025990       2.04680353       1.02115872
H        0.06566123       1.34167082      -1.19150158
H        1.63383464       1.78605741      -0.23330847
15
Frame=12 idx=006492 GeodesicLength=0.7877001560138254 rxn_smarts="[O:1]=[C:2]1[N:3]([H:8])[C:4]([H:9])([H:10])[C:5]([H:11])([H:12])[C:6]([H:13])([H:14])[N:7]1[H:15]>>[O:1]=[C:2]1[N:3]([H:8])[C:4]([H:9])([H:10])[C:5]([H:11])([H:12])[C-:6]([H:13])[N+:7]1([H:14])[H:15]"
O        2.72446740      -0.33669229      -0.02200422
C        1.52402210      -0.21717673      -0.12721844
N        0.64564711      -1.24188712      -0.18492452
C       -0.79519034      -1.07894658      -0.26152260
C       -1.23130616       0.14597254       0.53983920
C       -0.46091526       1.39431279       0.17686630
N        0.93664801       1.05606349      -0.33152248
H        1.06176142      -2.15549462      -0.16058735
H       -1.11181275      -0.97396746      -1.30562746
H       -1.25820230      -1.98857575       0.12340484
H       -1.11976490      -0.07181118       1.60751912
H       -2.29512719       0.31105494       0.34653178
H       -0.28084872       2.02503579       1.04844068
H        0.03060819       1.34562883      -1.19224533
H        1.63001340       1.78648333      -0.25694951
15
Frame=13 idx=006492 GeodesicLength=0.8535450314172407 rxn_smarts="[O:1]=[C:2]1[N:3]([H:8])[C:4]([H:9])([H:10])[C:5]([H:11])([H:12])[C:6]([H:13])([H:14])[N:7]1[H:15]>>[O:1]=[C:2]1[N:3]([H:8])[C:4]([H:9])([H:10])[C:5]([H:11])([H:12])[C-:6]([H:13])[N+:7]1([H:14])[H:15]"
O        2.72529784      -0.33068922      -0.02362156
C        1.52425544      -0.21483647      -0.12689347
N        0.64787163      -1.24229714      -0.17475760
C       -0.79181891      -1.07902849      -0.26083785
C       -1.23337105       0.14847746       0.53502619
C       -0.44494865       1.39250349       0.19095591
N        0.93268069       1.05484137      -0.33740538
H        1.06507312      -2.15527166      -0.14743059
H       -1.10128934      -0.97673105      -1.30759175
H       -1.25896925      -1.98742887       0.12188829
H       -1.14138866      -0.06943964       1.60394240
H       -2.29272505       0.32019280       0.32352777
H       -0.25181671       2.00263121       1.07441341
H       -0.00480587       1.35037116      -1.19186225
H        1.62595478       1.78670505      -0.27935352
15
Frame=14 idx=006492 GeodesicLength=0.9194059516772695 rxn_smarts="[O:1]=[C:2]1[N:3]([H:8])[C:4]([H:9])([H:10])[C:5]([H:11])([H:12])[C:6]([H:13])([H:14])[N:7]1[H:15]>>[O:1]=[C:2]1[N:3]([H:8])[C:4]([H:9])([H:10])[C:5]([H:11])([H:12])[C-:6]([H:13])[N+:7]1([H:14])[H:15]"
O        2.72617104      -0.32489084      -0.02546898
C        1.52456888      -0.21264475      -0.12696530
N        0.65007128      -1.24267184      -0.16486731
C       -0.78844882      -1.07911434      -0.26009156
C       -1.23527892       0.15110762       0.53012191
C       -0.42913141       1.39036375       0.20426204
N        0.92884507       1.05357852      -0.34286971
H        1.06828410      -2.15502866      -0.13421407
H       -1.09093821      -0.97968371      -1.30940380
H       -1.25963406      -1.98621878       0.12066016
H       -1.16251275      -0.06644943       1.59998533
H       -2.28988805       0.32932395       0.30078874
H       -0.22328357       1.97971951       1.09898627
H       -0.04053687       1.35586248      -1.19039243
H        1.62171229       1.78674654      -0.30053130
15
Frame=15 idx=006492 GeodesicLength=0.9852776503576001 rxn_smarts="[O:1]=[C:2]1[N:3]([H:8])[C:4]([H:9])([H:10])[C:5]([H:11])([H:12])[C:6]([H:13])([H:14])[N:7]1[H:15]>>[O:1]=[C:2]1[N:3]([H:8])[C:4]([H:9])([H:10])[C:5]([H:11])([H:12])[C-:6]([H:13])[N+:7]1([H:14])[H:15]"
O        2.72707732      -0.31932051      -0.02738732
C        1.52495624      -0.21061726      -0.12735469
N        0.65224298      -1.24302791      -0.15531240
C       -0.78509143      -1.07919940      -0.25931171
C       -1.23701488       0.15383968       0.52516090
C       -0.41350355       1.38792122       0.21672685
N        0.92516517       1.05227118      -0.34792043
H        1.07138750      -2.15478281      -0.12102429
H       -1.08079058      -0.98277431      -1.31108542
H       -1.26021244      -1.98495155       0.11966921
H       -1.18299321      -0.06286030       1.59569570
H       -2.28665563       0.33836835       0.27845415
H       -0.19536339       1.95644943       1.12207037
H       -0.07654740       1.36205677      -1.18788020
H        1.61734329       1.78662742      -0.32050071
15
Frame=16 idx=006492 GeodesicLength=1.0511453808683362 rxn_smarts="[O:1]=[C:2]1[N:3]([H:8])[C:4]([H:9])([H:10])[C:5]([H:11])([H:12])[C:6]([H:13])([H:14])[N:7]1[H:15]>>[O:1]=[C:2]1[N:3]([H:8])[C:4]([H:9])([H:10])[C:5]([H:11])([H:12])[C-:6]([H:13])[N+:7]1([H:14])[H:15]"
O        2.72799060      -0.31399470      -0.02923941
C        1.52540185      -0.20876464      -0.12797949
N        0.65437839      -1.24337358      -0.14613975
C       -0.78175115      -1.07927144      -0.25852365
C       -1.23856056       0.15664561       0.52017424
C       -0.39809448       1.38519795       0.22830116
N        0.92166354       1.05090914      -0.35256888
H        1.07436538      -2.15453728      -0.10792579
H       -1.07085667      -0.98593889      -1.31265449
H       -1.26071678      -1.98362260       0.11886341
H       -1.20270351      -0.05870888       1.59112120
H       -2.28305846       0.34724187       0.25664582
H       -0.16816068       1.93295464       1.14359601
H       -0.11279711       1.36890914      -1.18436518
H        1.61289963       1.78635366      -0.33930519
