14
Frame=0 idx=001433 GeodesicLength=0.0 rxn_smarts="[C:1]([C@@:2]([O:3][H:11])([C:4](=[O:5])[C:6]([H:12])([H:13])[H:14])[H:10])([H:7])([H:8])[H:9]>>[C:1]([O:5]/[C:4](=[C:2](/[O:3][H:11])[H:10])[C:6]([H:12])([H:13])[H:14])([H:7])([H:8])[H:9]"
C        1.56802843      -0.88187856      -1.18746331
C        0.60819235       0.33639396       0.63199563
O        0.64547617       1.49516947       1.38191635
C       -0.55968337      -0.18315090       0.07190248
O       -0.42037976      -1.08500569      -0.79849941
C       -1.93735462       0.25113267       0.46326621
H        1.45366815      -1.92578351      -1.44231980
H        2.48099550      -0.66510623      -0.64904871
H        1.33872391      -0.18476198      -1.97931638
H        1.25910844      -0.42647297       1.04397488
H        0.43299885       2.23883929       0.81708798
H       -2.53120947      -0.64011831       0.67156401
H       -2.42111427       0.77308767      -0.36503676
H       -1.91745037       0.89765515       1.33997688
14
Frame=1 idx=001433 GeodesicLength=0.07065451419705841 rxn_smarts="[C:1]([C@@:2]([O:3][H:11])([C:4](=[O:5])[C:6]([H:12])([H:13])[H:14])[H:10])([H:7])([H:8])[H:9]>>[C:1]([O:5]/[C:4](=[C:2](/[O:3][H:11])[H:10])[C:6]([H:12])([H:13])[H:14])([H:7])([H:8])[H:9]"
C        1.56866696      -0.87181459      -1.16605809
C        0.60674793       0.31819480       0.62759727
O        0.67733411       1.49638174       1.34292277
C       -0.56968126      -0.15849533       0.04628544
O       -0.44323033      -1.01027057      -0.87596981
C       -1.94382670       0.24422383       0.48000680
H        1.45962480      -1.92554581      -1.38339341
H        2.48576787      -0.64628107      -0.63653220
H        1.38549741      -0.20529782      -1.99605346
H        1.22810586      -0.45517201       1.06414822
H        0.43126426       2.22359865       0.76975731
H       -2.52291636      -0.65967319       0.67526927
H       -2.45020145       0.78454820      -0.32244463
H       -1.91315309       0.86560318       1.37446451
14
Frame=2 idx=001433 GeodesicLength=0.14070146851017695 rxn_smarts="[C:1]([C@@:2]([O:3][H:11])([C:4](=[O:5])[C:6]([H:12])([H:13])[H:14])[H:10])([H:7])([H:8])[H:9]>>[C:1]([O:5]/[C:4](=[C:2](/[O:3][H:11])[H:10])[C:6]([H:12])([H:13])[H:14])([H:7])([H:8])[H:9]"
C        1.56645410      -0.86272703      -1.14615588
C        0.60640923       0.30386768       0.62239038
O        0.70871926       1.49756797       1.30659378
C       -0.57744775      -0.13266522       0.02313884
O       -0.46155949      -0.93055728      -0.94838359
C       -1.94844502       0.23560794       0.49433033
H        1.45658246      -1.92463498      -1.32369352
H        2.48859108      -0.63124350      -0.62618005
H        1.42970891      -0.23101452      -2.01223491
H        1.20014686      -0.47753990       1.08186983
H        0.42797778       2.21060099       0.73094558
H       -2.51180359      -0.68130260       0.67468462
H       -2.47620830       0.79210966      -0.28271911
H       -1.90912553       0.83193079       1.40541369
14
Frame=3 idx=001433 GeodesicLength=0.210367403970029 rxn_smarts="[C:1]([C@@:2]([O:3][H:11])([C:4](=[O:5])[C:6]([H:12])([H:13])[H:14])[H:10])([H:7])([H:8])[H:9]>>[C:1]([O:5]/[C:4](=[C:2](/[O:3][H:11])[H:10])[C:6]([H:12])([H:13])[H:14])([H:7])([H:8])[H:9]"
C        1.56162649      -0.85488792      -1.12755665
C        0.60730000       0.29353959       0.61634262
O        0.73953591       1.49960942       1.27254862
C       -0.58311113      -0.10498521       0.00168687
O       -0.47562418      -0.84510673      -1.01645933
C       -1.95134781       0.22508834       0.50648826
H        1.44482993      -1.92301425      -1.26382596
H        2.48966729      -0.62075546      -0.61743954
H        1.47165189      -0.26238500      -2.02753813
H        1.17483725      -0.49386360       1.09777188
H        0.42344352       2.20053302       0.69973979
H       -2.49744491      -0.70544488       0.66979321
H       -2.50005510       0.79585522      -0.24514057
H       -1.90530916       0.79581745       1.43358894
14
Frame=4 idx=001433 GeodesicLength=0.2796899654112579 rxn_smarts="[C:1]([C@@:2]([O:3][H:11])([C:4](=[O:5])[C:6]([H:12])([H:13])[H:14])[H:10])([H:7])([H:8])[H:9]>>[C:1]([O:5]/[C:4](=[C:2](/[O:3][H:11])[H:10])[C:6]([H:12])([H:13])[H:14])([H:7])([H:8])[H:9]"
C        1.55415092      -0.84842288      -1.11011739
C        0.60954421       0.28716012       0.60969666
O        0.76960000       1.50313940       1.24051928
C       -0.58669280      -0.07545612      -0.01806206
O       -0.48544629      -0.75370968      -1.08007614
C       -1.95252828       0.21251997       0.51651584
H        1.42465663      -1.92044962      -1.20466548
H        2.48896966      -0.61526983      -0.61013125
H        1.51078551      -0.29938553      -2.04128033
H        1.15225894      -0.50424564       1.11238920
H        0.41796457       2.19364359       0.67523357
H       -2.47970982      -0.73207696       0.66043217
H       -2.52185429       0.79568884      -0.20962970
H       -1.90169896       0.75686433       1.45917564
14
Frame=5 idx=001433 GeodesicLength=0.3488422768335536 rxn_smarts="[C:1]([C@@:2]([O:3][H:11])([C:4](=[O:5])[C:6]([H:12])([H:13])[H:14])[H:10])([H:7])([H:8])[H:9]>>[C:1]([O:5]/[C:4](=[C:2](/[O:3][H:11])[H:10])[C:6]([H:12])([H:13])[H:14])([H:7])([H:8])[H:9]"
C        1.54394191      -0.84275335      -1.09394181
C        0.61314228       0.28396293       0.60323050
O        0.79924169       1.50783451       1.21112158
C       -0.58834772      -0.04427832      -0.03596587
O       -0.49115636      -0.65843067      -1.13779654
C       -1.95213558       0.19832927       0.52401550
H        1.39795744      -1.91647639      -1.14635940
H        2.48650665      -0.61288475      -0.60508752
H        1.54479361      -0.34224579      -2.05380801
H        1.13261691      -0.50975146       1.12625758
H        0.41242319       2.18942190       0.65746327
H       -2.45886628      -0.76043851       0.64683319
H       -2.54154399       0.79153050      -0.17739829
H       -1.89857374       0.71618011       1.48143583
14
Frame=6 idx=001433 GeodesicLength=0.41793056058772626 rxn_smarts="[C:1]([C@@:2]([O:3][H:11])([C:4](=[O:5])[C:6]([H:12])([H:13])[H:14])[H:10])([H:7])([H:8])[H:9]>>[C:1]([O:5]/[C:4](=[C:2](/[O:3][H:11])[H:10])[C:6]([H:12])([H:13])[H:14])([H:7])([H:8])[H:9]"
C        1.53145782      -0.83702564      -1.07931894
C        0.61790905       0.28234544       0.59773245
O        0.82935834       1.51251040       1.18420834
C       -0.58822941      -0.01257094      -0.05156288
O       -0.49320278      -0.56332135      -1.18774802
C       -1.95029122       0.18365256       0.52851645
H        1.36837570      -1.91044485      -1.08804748
H        2.48257555      -0.60990582      -0.60404270
H        1.57050817      -0.39097578      -2.06558446
H        1.11619458      -0.51223106       1.13957107
H        0.40602733       2.18627178       0.64733088
H       -2.43625592      -0.78839261       0.62925431
H       -2.55829587       0.78455778      -0.14986753
H       -1.89613135       0.67553008       1.49955852
14
Frame=7 idx=001433 GeodesicLength=0.4872766222887794 rxn_smarts="[C:1]([C@@:2]([O:3][H:11])([C:4](=[O:5])[C:6]([H:12])([H:13])[H:14])[H:10])([H:7])([H:8])[H:9]>>[C:1]([O:5]/[C:4](=[C:2](/[O:3][H:11])[H:10])[C:6]([H:12])([H:13])[H:14])([H:7])([H:8])[H:9]"
C        1.51651980      -0.83179793      -1.06569679
C        0.62374264       0.28299919       0.59285219
O        0.85965884       1.51817346       1.15934265
C       -0.58660055       0.02088298      -0.06559170
O       -0.49183929      -0.46607028      -1.23181999
C       -1.94712485       0.16770671       0.53048440
H        1.33499901      -1.90268020      -1.03042947
H        2.47692467      -0.60844512      -0.60554816
H        1.58916918      -0.44470727      -2.07545428
H        1.10213756      -0.51129704       1.15266760
H        0.40084218       2.18513983       0.64284202
H       -2.41058090      -0.81744642       0.60806719
H       -2.57353471       0.77375170      -0.12603837
H       -1.89431358       0.63379039       1.51432273
14
Frame=8 idx=001433 GeodesicLength=0.557036806892343 rxn_smarts="[C:1]([C@@:2]([O:3][H:11])([C:4](=[O:5])[C:6]([H:12])([H:13])[H:14])[H:10])([H:7])([H:8])[H:9]>>[C:1]([O:5]/[C:4](=[C:2](/[O:3][H:11])[H:10])[C:6]([H:12])([H:13])[H:14])([H:7])([H:8])[H:9]"
C        1.49924574      -0.82690921      -1.05295511
C        0.63052680       0.28536261       0.58884159
O        0.89041567       1.52454751       1.13614504
C       -0.58360536       0.05565974      -0.07782209
O       -0.48734697      -0.36782385      -1.26977304
C       -1.94268960       0.15076345       0.52984437
H        1.29925713      -1.89309685      -0.97326206
H        2.46957455      -0.60753439      -0.60999868
H        1.59956276      -0.50267295      -2.08306529
H        1.09046164      -0.50759086       1.16573432
H        0.39700054       2.18546459       0.64360384
H       -2.38216250      -0.84697172       0.58342792
H       -2.58704713       0.75945634      -0.10633630
H       -1.89319327       0.59134560       1.52561549
14
Frame=9 idx=001433 GeodesicLength=0.6273413985680815 rxn_smarts="[C:1]([C@@:2]([O:3][H:11])([C:4](=[O:5])[C:6]([H:12])([H:13])[H:14])[H:10])([H:7])([H:8])[H:9]>>[C:1]([O:5]/[C:4](=[C:2](/[O:3][H:11])[H:10])[C:6]([H:12])([H:13])[H:14])([H:7])([H:8])[H:9]"
C        1.47992781      -0.82214236      -1.04106142
C        0.63810673       0.28869273       0.58585925
O        0.92228159       1.53109316       1.11400889
C       -0.57943148       0.09123915      -0.08815716
O       -0.48020506      -0.27056622      -1.30139980
C       -1.93709015       0.13341399       0.52647441
H        1.26332240      -1.88171137      -0.91589792
H        2.46071014      -0.60554129      -0.61815828
H        1.60038916      -0.56431742      -2.08843161
H        1.08113013      -0.50200208       1.17884635
H        0.39382627       2.18636555       0.65035775
H       -2.35155628      -0.87603567       0.55574466
H       -2.59855949       0.74239326      -0.09139472
H       -1.89285178       0.54911860       1.53320960
14
Frame=10 idx=001433 GeodesicLength=0.6985334238561492 rxn_smarts="[C:1]([C@@:2]([O:3][H:11])([C:4](=[O:5])[C:6]([H:12])([H:13])[H:14])[H:10])([H:7])([H:8])[H:9]>>[C:1]([O:5]/[C:4](=[C:2](/[O:3][H:11])[H:10])[C:6]([H:12])([H:13])[H:14])([H:7])([H:8])[H:9]"
C        1.45825165      -0.81795204      -1.02963717
C        0.64656030       0.29352575       0.58362628
O        0.95505060       1.53839761       1.09274332
C       -0.57411705       0.12837389      -0.09688697
O       -0.47045047      -0.17311394      -1.32761870
C       -1.93016457       0.11519584       0.52045165
H        1.22656487      -1.86884123      -0.85805550
H        2.45000422      -0.60357076      -0.62964397
H        1.59169325      -0.62913552      -2.09089934
H        1.07384650      -0.49404794       1.19213913
H        0.39220414       2.18834033       0.66239595
H       -2.31787038      -0.90531962       0.52469235
H       -2.60845809       0.72210724      -0.08078812
H       -1.89311497       0.50604039       1.53748109
14
Frame=11 idx=001433 GeodesicLength=0.7711069611045248 rxn_smarts="[C:1]([C@@:2]([O:3][H:11])([C:4](=[O:5])[C:6]([H:12])([H:13])[H:14])[H:10])([H:7])([H:8])[H:9]>>[C:1]([O:5]/[C:4](=[C:2](/[O:3][H:11])[H:10])[C:6]([H:12])([H:13])[H:14])([H:7])([H:8])[H:9]"
C        1.43352689      -0.81428991      -1.01824740
C        0.65570079       0.30011929       0.58232326
O        0.98801546       1.54654178       1.07343863
C       -0.56783977       0.16798229      -0.10393902
O       -0.45813150      -0.07455008      -1.34864810
C       -1.92173462       0.09548563       0.51177283
H        1.18820116      -1.85441576      -0.79991206
H        2.43662864      -0.60247154      -0.64386950
H        1.57321928      -0.69568632      -2.08963608
H        1.06802559      -0.48376668       1.20576819
H        0.39522205       2.19193039       0.67682842
H       -2.27954517      -0.93574640       0.49032143
H       -2.61717930       0.69731650      -0.07455586
H       -1.89410951       0.46155081       1.53835524
14
Frame=12 idx=001433 GeodesicLength=0.8453498738621317 rxn_smarts="[C:1]([C@@:2]([O:3][H:11])([C:4](=[O:5])[C:6]([H:12])([H:13])[H:14])[H:10])([H:7])([H:8])[H:9]>>[C:1]([O:5]/[C:4](=[C:2](/[O:3][H:11])[H:10])[C:6]([H:12])([H:13])[H:14])([H:7])([H:8])[H:9]"
C        1.40600500      -0.81126688      -1.00678932
C        0.66564325       0.30804737       0.58187836
O        1.02204088       1.55544894       1.05469069
C       -0.56064811       0.20915362      -0.10907284
O       -0.44359035       0.02340543      -1.36449871
C       -1.91171455       0.07483233       0.50030129
H        1.14973885      -1.83867296      -0.74080071
H        2.42080121      -0.60153324      -0.66158716
H        1.54417146      -0.76337955      -2.08469964
H        1.06413339      -0.47134346       1.21986549
H        0.40044667       2.19633488       0.69552039
H       -2.23742837      -0.96618888       0.45265170
H       -2.62394785       0.66912193      -0.07321309
H       -1.89565146       0.41604047       1.53575356
14
Frame=13 idx=001433 GeodesicLength=0.9218019142870855 rxn_smarts="[C:1]([C@@:2]([O:3][H:11])([C:4](=[O:5])[C:6]([H:12])([H:13])[H:14])[H:10])([H:7])([H:8])[H:9]>>[C:1]([O:5]/[C:4](=[C:2](/[O:3][H:11])[H:10])[C:6]([H:12])([H:13])[H:14])([H:7])([H:8])[H:9]"
C        1.37549936      -0.80908990      -0.99498280
C        0.67644096       0.31732123       0.58206487
O        1.05744880       1.56538093       1.03526166
C       -0.55255909       0.25167375      -0.11227927
O       -0.42698219       0.12011555      -1.37545393
C       -1.89979301       0.05341058       0.48588835
H        1.11172026      -1.82180376      -0.68022530
H        2.40214875      -0.60089886      -0.68314963
H        1.50408003      -0.83177161      -2.07573598
H        1.06235772      -0.45653886       1.23442806
H        0.40656913       2.20103516       0.72010692
H       -2.19128090      -0.99623374       0.41163091
H       -2.62822440       0.63787493      -0.07704119
H       -1.89742542       0.36952459       1.52948732
14
Frame=14 idx=001433 GeodesicLength=1.0008909090634193 rxn_smarts="[C:1]([C@@:2]([O:3][H:11])([C:4](=[O:5])[C:6]([H:12])([H:13])[H:14])[H:10])([H:7])([H:8])[H:9]>>[C:1]([O:5]/[C:4](=[C:2](/[O:3][H:11])[H:10])[C:6]([H:12])([H:13])[H:14])([H:7])([H:8])[H:9]"
C        1.34190718      -0.80736132      -0.98250660
C        0.68780200       0.32760782       0.58317808
O        1.09346830       1.57600733       1.01570611
C       -0.54396015       0.29512745      -0.11321662
O       -0.40875442       0.21503121      -1.38157114
C       -1.88609472       0.03106108       0.46876704
H        1.07433291      -1.80366458      -0.61878807
H        2.38025086      -0.60082935      -0.70795221
H        1.45356340      -0.89867917      -2.06236061
H        1.06254420      -0.43975654       1.24967349
H        0.41574304       2.20595234       0.74762785
H       -2.14117858      -1.02588203       0.36784516
H       -2.63000433       0.60341041      -0.08608562
H       -1.89961969       0.32197536       1.51968314
14
Frame=15 idx=001433 GeodesicLength=1.0831431722788913 rxn_smarts="[C:1]([C@@:2]([O:3][H:11])([C:4](=[O:5])[C:6]([H:12])([H:13])[H:14])[H:10])([H:7])([H:8])[H:9]>>[C:1]([O:5]/[C:4](=[C:2](/[O:3][H:11])[H:10])[C:6]([H:12])([H:13])[H:14])([H:7])([H:8])[H:9]"
C        1.30522964      -0.80571053      -0.96913686
C        0.69947995       0.33857039       0.58538856
O        1.12949224       1.58690936       0.99667557
C       -0.53517418       0.33906477      -0.11162043
O       -0.38937033       0.30756045      -1.38294285
C       -1.87062403       0.00778907       0.44916141
H        1.03786621      -1.78419313      -0.55699881
H        2.35471922      -0.60142354      -0.73548967
H        1.39340774      -0.96251241      -2.04445984
H        1.06448107      -0.42148997       1.26563176
H        0.42901065       2.21106891       0.77572572
H       -2.08714272      -1.05497364       0.32195474
H       -2.62908440       0.56581680      -0.10032900
H       -1.90229105       0.27352346       1.50643971
14
Frame=16 idx=001433 GeodesicLength=1.1690660265723374 rxn_smarts="[C:1]([C@@:2]([O:3][H:11])([C:4](=[O:5])[C:6]([H:12])([H:13])[H:14])[H:10])([H:7])([H:8])[H:9]>>[C:1]([O:5]/[C:4](=[C:2](/[O:3][H:11])[H:10])[C:6]([H:12])([H:13])[H:14])([H:7])([H:8])[H:9]"
C        1.26570835      -0.80394012      -0.95471353
C        0.71134015       0.34992842       0.58862866
O        1.16526591       1.59788551       0.97791760
C       -0.52645017       0.38283174      -0.10742232
O       -0.36929041       0.39693072      -1.37985941
C       -1.85337595      -0.01618164       0.42731133
H        1.00283405      -1.76349906      -0.49518059
H        2.32540451      -0.60275731      -0.76538241
H        1.32457604      -1.02234319      -2.02208076
H        1.06818120      -0.40200925       1.28223237
H        0.44582896       2.21616230       0.80372911
H       -2.02966742      -1.08305061       0.27441591
H       -2.62510380       0.52580111      -0.11953827
H       -1.90525141       0.22424140       1.48994230
