18
Frame=0 idx=006296 GeodesicLength=0.0 rxn_smarts="[C:1]([C:2]([C@@:3]([C:4]([H:13])([H:14])[H:15])([O:5][C:6]([H:16])([H:17])[H:18])[H:12])([H:10])[H:11])([H:7])([H:8])[H:9]>>[C:1]([C:2]([C:3](=[O+:5][C-:6]([H:16])[H:18])[H:12])([H:10])[H:11])([H:7])([H:8])[H:9].[C:4]([H:13])([H:14])([H:15])[H:17]"
C       -1.44901953      -2.16152261       0.42789291
C       -1.19529055      -0.65287168       0.42989699
C        0.17166562      -0.27619219      -0.00859044
C        0.13625301       1.90565033      -0.93482473
O        1.04761420       0.02761804       0.88991985
C        2.16747679       0.69378021       0.44648563
H       -1.28362549      -2.58739241      -0.56400785
H       -0.78616337      -2.67198536       1.12819380
H       -2.47894443      -2.37932659       0.71526104
H       -1.36658578      -0.23119384       1.42229274
H       -1.90078130      -0.16409158      -0.25176387
H        0.54141873      -0.61436598      -0.97414109
H       -0.31702758       1.42186457      -1.80007716
H        0.60654457       2.82434429      -1.30062511
H       -0.64670714       2.19458200      -0.23279762
H        2.70686549       0.15906910      -0.33814641
H        1.26290339       1.53180454      -0.34741104
H        2.78340343       0.98022924       1.29244236
18
Frame=1 idx=006296 GeodesicLength=0.06736225774318694 rxn_smarts="[C:1]([C:2]([C@@:3]([C:4]([H:13])([H:14])[H:15])([O:5][C:6]([H:16])([H:17])[H:18])[H:12])([H:10])[H:11])([H:7])([H:8])[H:9]>>[C:1]([C:2]([C:3](=[O+:5][C-:6]([H:16])[H:18])[H:12])([H:10])[H:11])([H:7])([H:8])[H:9].[C:4]([H:13])([H:14])([H:15])[H:17]"
C       -1.44466143      -2.16070682       0.43003593
C       -1.20046985      -0.65071611       0.42639476
C        0.16260813      -0.26592670      -0.01980761
C        0.13254712       1.90374887      -0.93426598
O        1.04743692       0.01707672       0.88187274
C        2.17305625       0.67754641       0.44888380
H       -1.28274823      -2.58797826      -0.56190469
H       -0.77346786      -2.66484205       1.12693636
H       -2.47127684      -2.38477836       0.72439156
H       -1.36919128      -0.22765547       1.41876393
H       -1.91306703      -0.16814334      -0.25226831
H        0.53260690      -0.61445586      -0.98207046
H       -0.33231384       1.43737395      -1.80318737
H        0.59734007       2.82674837      -1.29612635
H       -0.64430261       2.19905601      -0.22759464
H        2.72829899       0.13428977      -0.31772157
H        1.29205593       1.53365822      -0.36253113
H        2.76554867       0.99570465       1.30019903
18
Frame=2 idx=006296 GeodesicLength=0.13467250012420945 rxn_smarts="[C:1]([C:2]([C@@:3]([C:4]([H:13])([H:14])[H:15])([O:5][C:6]([H:16])([H:17])[H:18])[H:12])([H:10])[H:11])([H:7])([H:8])[H:9]>>[C:1]([C:2]([C:3](=[O+:5][C-:6]([H:16])[H:18])[H:12])([H:10])[H:11])([H:7])([H:8])[H:9].[C:4]([H:13])([H:14])([H:15])[H:17]"
C       -1.44022439      -2.15984096       0.43210950
C       -1.20550449      -0.64859893       0.42294143
C        0.15371657      -0.25575952      -0.03076860
C        0.12872807       1.90188899      -0.93363298
O        1.04720097       0.00655706       0.87377304
C        2.17825764       0.66170447       0.45126764
H       -1.28165314      -2.58852211      -0.55983106
H       -0.76091106      -2.65767438       1.12562874
H       -2.46350589      -2.39007583       0.73328563
H       -1.37175023      -0.22416324       1.41526293
H       -1.92510309      -0.17225899      -0.25270873
H        0.52374754      -0.61443852      -0.98980395
H       -0.34764643       1.45315732      -1.80587698
H        0.58872697       2.82891721      -1.29118602
H       -0.64198561       2.20351633      -0.22239486
H        2.74943066       0.10952143      -0.29614080
H        1.32124947       1.53482515      -0.37826658
H        2.74722643       1.01124451       1.30634166
18
Frame=3 idx=006296 GeodesicLength=0.20194389758289394 rxn_smarts="[C:1]([C:2]([C@@:3]([C:4]([H:13])([H:14])[H:15])([O:5][C:6]([H:16])([H:17])[H:18])[H:12])([H:10])[H:11])([H:7])([H:8])[H:9]>>[C:1]([C:2]([C:3](=[O+:5][C-:6]([H:16])[H:18])[H:12])([H:10])[H:11])([H:7])([H:8])[H:9].[C:4]([H:13])([H:14])([H:15])[H:17]"
C       -1.43571330      -2.15892570       0.43411451
C       -1.21039796      -0.64651805       0.41954340
C        0.14498386      -0.24568506      -0.04148177
C        0.12476392       1.90006655      -0.93295257
O        1.04691816      -0.00394053       0.86561207
C        2.18309870       0.64626298       0.45363091
H       -1.28035571      -2.58901599      -0.55779279
H       -0.74848793      -2.65049001       1.12426548
H       -2.45563761      -2.39522380       0.74195380
H       -1.37425233      -0.22072219       1.41180221
H       -1.93690076      -0.17643282      -0.25307017
H        0.51483926      -0.61430436      -0.99735470
H       -0.36299865       1.46918344      -1.80817941
H        0.58070377       2.83083020      -1.28584808
H       -0.63978584       2.20795907      -0.21722250
H        2.77023448       0.08487214      -0.27340599
H        1.35046596       1.53535777      -0.39453078
H        2.72852196       1.02672636       1.31091638
18
Frame=4 idx=006296 GeodesicLength=0.2691948948856591 rxn_smarts="[C:1]([C:2]([C@@:3]([C:4]([H:13])([H:14])[H:15])([O:5][C:6]([H:16])([H:17])[H:18])[H:12])([H:10])[H:11])([H:7])([H:8])[H:9]>>[C:1]([C:2]([C:3](=[O+:5][C-:6]([H:16])[H:18])[H:12])([H:10])[H:11])([H:7])([H:8])[H:9].[C:4]([H:13])([H:14])([H:15])[H:17]"
C       -1.43113258      -2.15796156       0.43605173
C       -1.21515476      -0.64447173       0.41620534
C        0.13640171      -0.23569675      -0.05195667
C        0.12062043       1.89827688      -0.93225028
O        1.04659768      -0.01441422       0.85737953
C        2.18759883       0.63122204       0.45596625
H       -1.27886906      -2.58945408      -0.55579444
H       -0.73619358      -2.64329474       1.12284321
H       -2.44767731      -2.40022739       0.75040583
H       -1.37668971      -0.21733644       1.40839156
H       -1.94847232      -0.18066078      -0.25333910
H        0.50587922      -0.61404372      -1.00473639
H       -0.37835240       1.48542293      -1.81012899
H        0.57326088       2.83246994      -1.28016197
H       -0.63773010       2.21238301      -0.21209696
H        2.79068935       0.06043752      -0.24951922
H        1.37969873       1.53531750      -0.41123606
H        2.70952499       1.04203159       1.31397663
18
Frame=5 idx=006296 GeodesicLength=0.3363659576240413 rxn_smarts="[C:1]([C:2]([C@@:3]([C:4]([H:13])([H:14])[H:15])([O:5][C:6]([H:16])([H:17])[H:18])[H:12])([H:10])[H:11])([H:7])([H:8])[H:9]>>[C:1]([C:2]([C:3](=[O+:5][C-:6]([H:16])[H:18])[H:12])([H:10])[H:11])([H:7])([H:8])[H:9].[C:4]([H:13])([H:14])([H:15])[H:17]"
C       -1.42649105      -2.15695022       0.43791908
C       -1.21977748      -0.64245895       0.41293849
C        0.12796288      -0.22579281      -0.06219840
C        0.11627774       1.89651141      -0.93154532
O        1.04625616      -0.02487398       0.84906394
C        2.19176745       0.61659679       0.45825561
H       -1.27721997      -2.58982471      -0.55384816
H       -0.72402499      -2.63610322       1.12134635
H       -2.43963309      -2.40509172       0.75865323
H       -1.37904524      -0.21401638       1.40505107
H       -1.95982914      -0.18493191      -0.25349063
H        0.49686098      -0.61365221      -1.01196423
H       -0.39368066       1.50184898      -1.81176377
H        0.56640839       2.83381280      -1.27416665
H       -0.63584639       2.21678598      -0.20704802
H        2.81078538       0.03630889      -0.22447229
H        1.40892166       1.53474830      -0.42827967
H        2.69030737       1.05708296       1.31554937
18
Frame=6 idx=006296 GeodesicLength=0.40349974672329303 rxn_smarts="[C:1]([C:2]([C@@:3]([C:4]([H:13])([H:14])[H:15])([O:5][C:6]([H:16])([H:17])[H:18])[H:12])([H:10])[H:11])([H:7])([H:8])[H:9]>>[C:1]([C:2]([C:3](=[O+:5][C-:6]([H:16])[H:18])[H:12])([H:10])[H:11])([H:7])([H:8])[H:9].[C:4]([H:13])([H:14])([H:15])[H:17]"
C       -1.42179049      -2.15589249       0.43971691
C       -1.22427058      -0.64047705       0.40974308
C        0.11965823      -0.21596555      -0.07222125
C        0.11169689       1.89476870      -0.93085740
O        1.04589763      -0.03531050       0.84065024
C        2.19563274       0.60236327       0.46048726
H       -1.27541750      -2.59012490      -0.55195685
H       -0.71197521      -2.62891756       1.11977262
H       -2.43150704      -2.40982230       0.76670389
H       -1.38131313      -0.21076247       1.40178431
H       -1.97098375      -0.18924366      -0.25351640
H        0.48777867      -0.61312041      -1.01905514
H       -0.40899252       1.51844201      -1.81310956
H        0.56011978       2.83484250      -1.26791384
H       -0.63414735       2.22117370      -0.20207349
H        2.83050480       0.01255235      -0.19825589
H        1.43816331       1.53369961      -0.44560579
H        2.67094552       1.07179473       1.31570732
18
Frame=7 idx=006296 GeodesicLength=0.470602562084662 rxn_smarts="[C:1]([C:2]([C@@:3]([C:4]([H:13])([H:14])[H:15])([O:5][C:6]([H:16])([H:17])[H:18])[H:12])([H:10])[H:11])([H:7])([H:8])[H:9]>>[C:1]([C:2]([C:3](=[O+:5][C-:6]([H:16])[H:18])[H:12])([H:10])[H:11])([H:7])([H:8])[H:9].[C:4]([H:13])([H:14])([H:15])[H:17]"
C       -1.41703326      -2.15478964       0.44144481
C       -1.22864015      -0.63852466       0.40661807
C        0.11147638      -0.20620756      -0.08203826
C        0.10684285       1.89304944      -0.93020151
O        1.04552301      -0.04571366       0.83212468
C        2.19921331       0.58850445       0.46264448
H       -1.27347030      -2.59035284      -0.55012408
H       -0.70003826      -2.62173939       1.11811928
H       -2.42330109      -2.41442613       0.77456468
H       -1.38349075      -0.20757599       1.39859318
H       -1.98194946      -0.19359583      -0.25341089
H        0.47862375      -0.61243915      -1.02602670
H       -0.42429757       1.53518773      -1.81419036
H        0.55436985       2.83554414      -1.26144463
H       -0.63264878       2.22555283      -0.19717316
H        2.84983353      -0.01078195      -0.17084961
H        1.46744728       1.53220750      -0.46316651
H        2.65153966       1.08610071       1.31451652
18
Frame=8 idx=006296 GeodesicLength=0.5376887767088682 rxn_smarts="[C:1]([C:2]([C@@:3]([C:4]([H:13])([H:14])[H:15])([O:5][C:6]([H:16])([H:17])[H:18])[H:12])([H:10])[H:11])([H:7])([H:8])[H:9]>>[C:1]([C:2]([C:3](=[O+:5][C-:6]([H:16])[H:18])[H:12])([H:10])[H:11])([H:7])([H:8])[H:9].[C:4]([H:13])([H:14])([H:15])[H:17]"
C       -1.41222261      -2.15364353       0.44309989
C       -1.23289114      -0.63659987       0.40356531
C        0.10340918      -0.19651416      -0.09166215
C        0.10168269       1.89134862      -0.92958947
O        1.04513883      -0.05607722       0.82347198
C        2.20253251       0.57499972       0.46471155
H       -1.27139270      -2.59050455      -0.54835770
H       -0.68820666      -2.61457450       1.11637610
H       -2.41501777      -2.41891034       0.78224276
H       -1.38557136      -0.20446017       1.39548367
H       -1.99273994      -0.19798422      -0.25316193
H        0.46938970      -0.61160368      -1.03289743
H       -0.43961293       1.55207738      -1.81502454
H        0.54914236       2.83589955      -1.25479780
H       -0.63135670       2.22993115      -0.19233783
H        2.86875338      -0.03364667      -0.14221605
H        1.49681259       1.53029963      -0.48092318
H        2.63215058       1.09996286       1.31201683
18
Frame=9 idx=006296 GeodesicLength=0.6047730651469566 rxn_smarts="[C:1]([C:2]([C@@:3]([C:4]([H:13])([H:14])[H:15])([O:5][C:6]([H:16])([H:17])[H:18])[H:12])([H:10])[H:11])([H:7])([H:8])[H:9]>>[C:1]([C:2]([C:3](=[O+:5][C-:6]([H:16])[H:18])[H:12])([H:10])[H:11])([H:7])([H:8])[H:9].[C:4]([H:13])([H:14])([H:15])[H:17]"
C       -1.40734875      -2.15245078       0.44467403
C       -1.23702201      -0.63469724       0.40058234
C        0.09544704      -0.18686774      -0.10110867
C        0.09619077       1.88969034      -0.92901536
O        1.04473764      -0.06637041       0.81468706
C        2.20562659       0.56180162       0.46667344
H       -1.26918383      -2.59056846      -0.54667226
H       -0.67646028      -2.60741961       1.11452799
H       -2.40664256      -2.42328284       0.78973855
H       -1.38754576      -0.20141769       1.39245850
H       -2.00336108      -0.20240320      -0.25276548
H        0.46006756      -0.61059120      -1.03968465
H       -0.45499035       1.56911448      -1.81560989
H        0.54438897       2.83586323      -1.24802211
H       -0.63026712       2.23432930      -0.18754112
H        2.88722320      -0.05608526      -0.11235431
H        1.52631568       1.52793584      -0.49891578
H        2.61282428       1.11341965       1.30834774
18
Frame=10 idx=006296 GeodesicLength=0.6718598516730369 rxn_smarts="[C:1]([C:2]([C@@:3]([C:4]([H:13])([H:14])[H:15])([O:5][C:6]([H:16])([H:17])[H:18])[H:12])([H:10])[H:11])([H:7])([H:8])[H:9]>>[C:1]([C:2]([C:3](=[O+:5][C-:6]([H:16])[H:18])[H:12])([H:10])[H:11])([H:7])([H:8])[H:9].[C:4]([H:13])([H:14])([H:15])[H:17]"
C       -1.40242424      -2.15121748       0.44616896
C       -1.24104009      -0.63281995       0.39767058
C        0.08758355      -0.17727729      -0.11038830
C        0.09033244       1.88804964      -0.92849535
O        1.04433398      -0.07661032       0.80574570
C        2.20850807       0.54889946       0.46851430
H       -1.26686686      -2.59054960      -0.54506773
H       -0.66480433      -2.60028607       1.11257235
H       -2.39818966      -2.42754643       0.79706276
H       -1.38940819      -0.19845172       1.38952120
H       -2.01382717      -0.20685320      -0.25220752
H        0.45065377      -0.60941309      -1.04640740
H       -0.47042846       1.58629095      -1.81596538
H        0.54011819       2.83544428      -1.24113965
H       -0.62937622       2.23874797      -0.18277282
H        2.90523898      -0.07798476      -0.08119389
H        1.55599858       1.52517417      -0.51707102
H        2.59359764       1.12640343       1.30345321
18
Frame=11 idx=006296 GeodesicLength=0.7389439855068564 rxn_smarts="[C:1]([C:2]([C@@:3]([C:4]([H:13])([H:14])[H:15])([O:5][C:6]([H:16])([H:17])[H:18])[H:12])([H:10])[H:11])([H:7])([H:8])[H:9]>>[C:1]([C:2]([C:3](=[O+:5][C-:6]([H:16])[H:18])[H:12])([H:10])[H:11])([H:7])([H:8])[H:9].[C:4]([H:13])([H:14])([H:15])[H:17]"
C       -1.39744998      -2.14994490       0.44758071
C       -1.24494689      -0.63096682       0.39482995
C        0.07981100      -0.16773874      -0.11951212
C        0.08407848       1.88642908      -0.92802832
O        1.04392914      -0.08678975       0.79663573
C        2.21120048       0.53626395       0.47021883
H       -1.26445212      -2.59044402      -0.54355251
H       -0.65323194      -2.59317849       1.11049987
H       -2.38965850      -2.43170732       0.80421865
H       -1.39114957      -0.19556603       1.38667563
H       -2.02414603      -0.21133092      -0.25147927
H        0.44114253      -0.60806337      -1.05308163
H       -0.48595115       1.60360642      -1.81609645
H        0.53631480       2.83461938      -1.23418052
H       -0.62867507       2.24319991      -0.17801091
H        2.92277148      -0.09931149      -0.04870938
H        1.58591404       1.52200490      -0.53538266
H        2.57449930       1.13891821       1.29737439
18
Frame=12 idx=006296 GeodesicLength=0.8060122697279245 rxn_smarts="[C:1]([C:2]([C@@:3]([C:4]([H:13])([H:14])[H:15])([O:5][C:6]([H:16])([H:17])[H:18])[H:12])([H:10])[H:11])([H:7])([H:8])[H:9]>>[C:1]([C:2]([C:3](=[O+:5][C-:6]([H:16])[H:18])[H:12])([H:10])[H:11])([H:7])([H:8])[H:9].[C:4]([H:13])([H:14])([H:15])[H:17]"
C       -1.39242656      -2.14863499       0.44890281
C       -1.24874294      -0.62913581       0.39206422
C        0.07212333      -0.15824860      -0.12848939
C        0.07740603       1.88482814      -0.92761478
O        1.04352970      -0.09690406       0.78734384
C        2.21372613       0.52386989       0.47177187
H       -1.26195471      -2.59024449      -0.54213956
H       -0.64173307      -2.58610530       1.10829333
H       -2.38104665      -2.43577253       0.81121018
H       -1.39275690      -0.19276652       1.38393124
H       -2.03432557      -0.21582826      -0.25056384
H        0.43152861      -0.60653751      -1.05972283
H       -0.50158679       1.62106478      -1.81600717
H        0.53296625       2.83336104      -1.22717972
H       -0.62815376       2.24769788      -0.17323802
H        2.93978547      -0.12003199      -0.01486067
H        1.61611839       1.51841728      -0.55383321
H        2.55554305       1.15097104       1.29013172
18
Frame=13 idx=006296 GeodesicLength=0.873049987324546 rxn_smarts="[C:1]([C:2]([C@@:3]([C:4]([H:13])([H:14])[H:15])([O:5][C:6]([H:16])([H:17])[H:18])[H:12])([H:10])[H:11])([H:7])([H:8])[H:9]>>[C:1]([C:2]([C:3](=[O+:5][C-:6]([H:16])[H:18])[H:12])([H:10])[H:11])([H:7])([H:8])[H:9].[C:4]([H:13])([H:14])([H:15])[H:17]"
C       -1.38735319      -2.14728963       0.45013011
C       -1.25242963      -0.62732640       0.38937360
C        0.06451387      -0.14880282      -0.13732969
C        0.07028900       1.88324865      -0.92725119
O        1.04313835      -0.10694606       0.77785904
C        2.21610263       0.51169584       0.47316385
H       -1.25938138      -2.58994799      -0.54083808
H       -0.63029956      -2.57907111       1.10594238
H       -2.37235194      -2.43974866       0.81803738
H       -1.39422248      -0.19005741       1.38129167
H       -2.04437277      -0.22034284      -0.24945195
H        0.42180817      -0.60483025      -1.06634504
H       -0.51736624       1.63867409      -1.81569586
H        0.53005696       2.83164685      -1.22016740
H       -0.62780188       2.25225482      -0.16843358
H        2.95623651      -0.14012164       0.02038768
H        1.64667106       1.51439549      -0.57242222
H        2.53676251       1.16256905       1.28174931
18
Frame=14 idx=006296 GeodesicLength=0.9400849786909067 rxn_smarts="[C:1]([C:2]([C@@:3]([C:4]([H:13])([H:14])[H:15])([O:5][C:6]([H:16])([H:17])[H:18])[H:12])([H:10])[H:11])([H:7])([H:8])[H:9]>>[C:1]([C:2]([C:3](=[O+:5][C-:6]([H:16])[H:18])[H:12])([H:10])[H:11])([H:7])([H:8])[H:9].[C:4]([H:13])([H:14])([H:15])[H:17]"
C       -1.38222668      -2.14591031       0.45125632
C       -1.25600867      -0.62553737       0.38675377
C        0.05697585      -0.13939553      -0.14604475
C        0.06269537       1.88169458      -0.92692787
O        1.04275429      -0.11690289       0.76817027
C        2.21835608       0.49970442       0.47438597
H       -1.25673392      -2.58955310      -0.53965623
H       -0.61892169      -2.57207655       1.10343787
H       -2.36356933      -2.44364358       0.82469822
H       -1.39554264      -0.18744013       1.37875449
H       -2.05429480      -0.22487472      -0.24814071
H        0.41197787      -0.60293473      -1.07296268
H       -0.53333519       1.65645032      -1.81514646
H        0.52756580       2.82945068      -1.21316904
H       -0.62759983       2.25688551      -0.16355855
H        2.97206603      -0.15954444       0.05710303
H        1.67765750       1.50990218      -0.59118840
H        2.51818397       1.17372565       1.27223476
18
Frame=15 idx=006296 GeodesicLength=1.0071181742088051 rxn_smarts="[C:1]([C:2]([C@@:3]([C:4]([H:13])([H:14])[H:15])([O:5][C:6]([H:16])([H:17])[H:18])[H:12])([H:10])[H:11])([H:7])([H:8])[H:9]>>[C:1]([C:2]([C:3](=[O+:5][C-:6]([H:16])[H:18])[H:12])([H:10])[H:11])([H:7])([H:8])[H:9].[C:4]([H:13])([H:14])([H:15])[H:17]"
C       -1.37704391      -2.14449978       0.45227520
C       -1.25948233      -0.62376855       0.38420233
C        0.04950112      -0.13002116      -0.15464430
C        0.05459612       1.88017095      -0.92663445
O        1.04237635      -0.12676377       0.75826761
C        2.22050376       0.48786872       0.47542901
H       -1.25401477      -2.58905838      -0.53860263
H       -0.60759037      -2.56512386       1.10076966
H       -2.35469342      -2.44746649       0.83119036
H       -1.39671336      -0.18491824       1.37631934
H       -2.06409856      -0.22942456      -0.24662507
H        0.40203330      -0.60084428      -1.07958837
H       -0.54952800       1.67441087      -1.81434540
H        0.52547654       2.82674711      -1.20620559
H       -0.62753284       2.26160367      -0.15858340
H        2.98720577      -0.17825532       0.09534815
H        1.70915443       1.50489302      -0.61016075
H        2.49985015       1.18445004       1.26158829
18
Frame=16 idx=006296 GeodesicLength=1.0741579460218489 rxn_smarts="[C:1]([C:2]([C@@:3]([C:4]([H:13])([H:14])[H:15])([O:5][C:6]([H:16])([H:17])[H:18])[H:12])([H:10])[H:11])([H:7])([H:8])[H:9]>>[C:1]([C:2]([C:3](=[O+:5][C-:6]([H:16])[H:18])[H:12])([H:10])[H:11])([H:7])([H:8])[H:9].[C:4]([H:13])([H:14])([H:15])[H:17]"
C       -1.37180400      -2.14306042       0.45317778
C       -1.26285093      -0.62201963       0.38171858
C        0.04208442      -0.12067750      -0.16313915
C        0.04596430       1.87868009      -0.92635927
O        1.04200773      -0.13652472       0.74813921
C        2.22256806       0.47615522       0.47628278
H       -1.25123452      -2.58845988      -0.53769169
H       -0.59629590      -2.55821957       1.09792021
H       -2.34572031      -2.45122412       0.83751245
H       -1.39772513      -0.18249711       1.37398959
H       -2.07379003      -0.23398892      -0.24489500
H        0.39197163      -0.59855580      -1.08623772
H       -0.56598857       1.69257740      -1.81326857
H        0.52377449       2.82350584      -1.19930080
H       -0.62757420       2.26642327      -0.15347083
H        3.00158467      -0.19618050       0.13521366
H        1.74124588       1.49930644      -0.62937786
H        2.48178242       1.19475990       1.24978662
