15
Frame=0 idx=009069 GeodesicLength=0.0 rxn_smarts="[C:1]([n:2]1[c:3]([H:11])[c:4]([H:12])[c:5]([C:6]([H:13])([H:14])[H:15])[n:7]1)([H:8])([H:9])[H:10]>>[C:1](/[N:2]=[C:3](/[C@:4]1([H:12])[C:5]([C:6]([H:13])([H:14])[H:15])=[N:7]1)[H:11])([H:8])([H:9])[H:10]"
C        2.90005306      -0.24003626       0.21952009
N        1.54246675      -0.35798904      -0.25543885
C        0.81913605       0.69417006      -0.31819508
C       -0.58648205       0.68814007      -0.44066369
C       -1.39130601      -0.44892772      -0.00704981
C       -2.87073935      -0.34458085       0.23864376
N       -0.70401174      -1.47680523      -0.07356248
H        3.21605655       0.79422006       0.40947769
H        3.58006992      -0.70146873      -0.49926344
H        2.99091490      -0.80123751       1.15299688
H        1.26898320       1.69352165      -0.23926566
H       -1.07038514       1.41486709      -1.08907543
H       -3.35330034       0.13481811      -0.61408553
H       -3.03262117       0.27934639       1.11893350
H       -3.30883463      -1.32803802       0.39702810
15
Frame=1 idx=009069 GeodesicLength=0.07569111140331586 rxn_smarts="[C:1]([n:2]1[c:3]([H:11])[c:4]([H:12])[c:5]([C:6]([H:13])([H:14])[H:15])[n:7]1)([H:8])([H:9])[H:10]>>[C:1](/[N:2]=[C:3](/[C@:4]1([H:12])[C:5]([C:6]([H:13])([H:14])[H:15])=[N:7]1)[H:11])([H:8])([H:9])[H:10]"
C        2.88150660      -0.24979707       0.23933360
N        1.51873933      -0.35090175      -0.22377280
C        0.81449515       0.71396731      -0.31521740
C       -0.58772788       0.69917655      -0.47595360
C       -1.38459009      -0.43574619      -0.03153929
C       -2.85582547      -0.35414564       0.25605480
N       -0.68223556      -1.45032574      -0.15825992
H        3.21664386       0.78258258       0.40330765
H        3.54809773      -0.73868208      -0.47380262
H        2.96818660      -0.79222926       1.18412901
H        1.27855351       1.70784524      -0.27167075
H       -1.06978256       1.42931529      -1.12070529
H       -3.36990568       0.13518148      -0.57232008
H       -3.00015601       0.25032022       1.15285150
H       -3.27599954      -1.34656096       0.40756519
15
Frame=2 idx=009069 GeodesicLength=0.1519548309169376 rxn_smarts="[C:1]([n:2]1[c:3]([H:11])[c:4]([H:12])[c:5]([C:6]([H:13])([H:14])[H:15])[n:7]1)([H:8])([H:9])[H:10]>>[C:1](/[N:2]=[C:3](/[C@:4]1([H:12])[C:5]([C:6]([H:13])([H:14])[H:15])=[N:7]1)[H:11])([H:8])([H:9])[H:10]"
C        2.86139810      -0.26021862       0.25814432
N        1.49384430      -0.34181330      -0.19380237
C        0.80931936       0.73528961      -0.31132955
C       -0.58880313       0.71192814      -0.50864006
C       -1.37748696      -0.42157830      -0.05480473
C       -2.83963380      -0.36483581       0.27197205
N       -0.65998963      -1.42021060      -0.23422177
H        3.21665131       0.76878734       0.39728402
H        3.51348298      -0.77609257      -0.44931122
H        2.94364044      -0.78482449       1.21324812
H        1.28962725       1.72130002      -0.30630001
H       -1.06928327       1.44546848      -1.14956251
H       -3.38379240       0.13183928      -0.53252737
H       -2.96800190       0.22110667       1.18338685
H       -3.24097264      -1.36614584       0.41646422
15
Frame=3 idx=009069 GeodesicLength=0.22869816902180876 rxn_smarts="[C:1]([n:2]1[c:3]([H:11])[c:4]([H:12])[c:5]([C:6]([H:13])([H:14])[H:15])[n:7]1)([H:8])([H:9])[H:10]>>[C:1](/[N:2]=[C:3](/[C@:4]1([H:12])[C:5]([C:6]([H:13])([H:14])[H:15])=[N:7]1)[H:11])([H:8])([H:9])[H:10]"
C        2.84052820      -0.27102543       0.27540347
N        1.46797584      -0.33083078      -0.16384137
C        0.80353089       0.75803035      -0.30464354
C       -0.58969130       0.72595094      -0.53829025
C       -1.37043233      -0.40651428      -0.07633838
C       -2.82295562      -0.37631908       0.28595833
N       -0.63732306      -1.38733938      -0.30099391
H        3.21700215       0.75318013       0.38956899
H        3.47589941      -0.81381202      -0.42703136
H        2.91961380      -0.77815518       1.24004347
H        1.30172706       1.73349644      -0.34119942
H       -1.06827343       1.46235007      -1.17628400
H       -3.39536146       0.12493719      -0.49583529
H       -2.93752127       0.19237507       1.21007895
H       -3.20471887      -1.38632404       0.42340431
15
Frame=4 idx=009069 GeodesicLength=0.3061454070355176 rxn_smarts="[C:1]([n:2]1[c:3]([H:11])[c:4]([H:12])[c:5]([C:6]([H:13])([H:14])[H:15])[n:7]1)([H:8])([H:9])[H:10]>>[C:1](/[N:2]=[C:3](/[C@:4]1([H:12])[C:5]([C:6]([H:13])([H:14])[H:15])=[N:7]1)[H:11])([H:8])([H:9])[H:10]"
C        2.81777112      -0.28221820       0.29235240
N        1.44181277      -0.31815432      -0.13788772
C        0.79753407       0.78201264      -0.29942412
C       -0.59035469       0.74109074      -0.56710494
C       -1.36288437      -0.39064082      -0.09729064
C       -2.80460974      -0.38833270       0.29966956
N       -0.61406246      -1.35233707      -0.36205688
H        3.21531749       0.73589901       0.38488140
H        3.43715213      -0.84996101      -0.40454316
H        2.89180250      -0.77411267       1.26513666
H        1.31456314       1.74425750      -0.37750211
H       -1.06747675       1.47990745      -1.20237772
H       -3.40484809       0.11538275      -0.45940046
H       -2.90566910       0.16397949       1.23524482
H       -3.16604803      -1.40677280       0.43030289
15
Frame=5 idx=009069 GeodesicLength=0.3841918859770742 rxn_smarts="[C:1]([n:2]1[c:3]([H:11])[c:4]([H:12])[c:5]([C:6]([H:13])([H:14])[H:15])[n:7]1)([H:8])([H:9])[H:10]>>[C:1](/[N:2]=[C:3](/[C@:4]1([H:12])[C:5]([C:6]([H:13])([H:14])[H:15])=[N:7]1)[H:11])([H:8])([H:9])[H:10]"
C        2.79369474      -0.29359552       0.30867425
N        1.41542310      -0.30417637      -0.11462087
C        0.79137074       0.80681770      -0.29511985
C       -0.59084389       0.75700455      -0.59486487
C       -1.35515736      -0.37410185      -0.11746376
C       -2.78503551      -0.40063523       0.31285708
N       -0.59056285      -1.31581992      -0.41771154
H        3.21230521       0.71735292       0.38158956
H        3.39710112      -0.88495393      -0.38249116
H        2.86178417      -0.77160804       1.28867107
H        1.32763424       1.75354497      -0.41318915
H       -1.06659565       1.49758932      -1.22816120
H       -3.41244578       0.10345373      -0.42373815
H       -2.87308865       0.13628254       1.25866906
H       -3.12558362      -1.42715485       0.43689953
15
Frame=6 idx=009069 GeodesicLength=0.4627832245803132 rxn_smarts="[C:1]([n:2]1[c:3]([H:11])[c:4]([H:12])[c:5]([C:6]([H:13])([H:14])[H:15])[n:7]1)([H:8])([H:9])[H:10]>>[C:1](/[N:2]=[C:3](/[C@:4]1([H:12])[C:5]([C:6]([H:13])([H:14])[H:15])=[N:7]1)[H:11])([H:8])([H:9])[H:10]"
C        2.76891600      -0.30503392       0.32384044
N        1.38875533      -0.28905598      -0.09210505
C        0.78508776       0.83215947      -0.29074187
C       -0.59112916       0.77339711      -0.62114851
C       -1.34751837      -0.35702618      -0.13656459
C       -2.76479910      -0.41308473       0.32505426
N       -0.56696719      -1.27823456      -0.46778652
H        3.20908527       0.69762434       0.37680287
H        3.35498174      -0.91994916      -0.36152205
H        2.83164335      -0.76893693       1.31078067
H        1.34034514       1.76176712      -0.44557312
H       -1.06517201       1.51483823      -1.25385782
H       -3.41833216       0.08922126      -0.38978738
H       -2.84087416       0.10956006       1.27987668
H       -3.08402245      -1.44724611       0.44273200
15
Frame=7 idx=009069 GeodesicLength=0.5420193197232733 rxn_smarts="[C:1]([n:2]1[c:3]([H:11])[c:4]([H:12])[c:5]([C:6]([H:13])([H:14])[H:15])[n:7]1)([H:8])([H:9])[H:10]>>[C:1](/[N:2]=[C:3](/[C@:4]1([H:12])[C:5]([C:6]([H:13])([H:14])[H:15])=[N:7]1)[H:11])([H:8])([H:9])[H:10]"
C        2.74246848      -0.31656039       0.33898539
N        1.36229395      -0.27331334      -0.07396603
C        0.77896697       0.85767735      -0.28950444
C       -0.59135179       0.79024307      -0.64748772
C       -1.33966713      -0.33950767      -0.15552234
C       -2.74283956      -0.42553290       0.33760508
N       -0.54358322      -1.23989735      -0.51501442
H        3.20343171       0.67712973       0.37567753
H        3.31281767      -0.95278578      -0.34005232
H        2.79750956      -0.76846162       1.33179690
H        1.35298302       1.76899416      -0.47710731
H       -1.06389183       1.53188717      -1.28024873
H       -3.42242058       0.07355652      -0.35492300
H       -2.80629383       0.08345933       1.30069392
H       -3.04042341      -1.46688827       0.44906749
15
Frame=8 idx=009069 GeodesicLength=0.6218309218300131 rxn_smarts="[C:1]([n:2]1[c:3]([H:11])[c:4]([H:12])[c:5]([C:6]([H:13])([H:14])[H:15])[n:7]1)([H:8])([H:9])[H:10]>>[C:1](/[N:2]=[C:3](/[C@:4]1([H:12])[C:5]([C:6]([H:13])([H:14])[H:15])=[N:7]1)[H:11])([H:8])([H:9])[H:10]"
C        2.71470171      -0.32807677       0.35392371
N        1.33597978      -0.25714967      -0.05902999
C        0.77300146       0.88315586      -0.29053177
C       -0.59155822       0.80737352      -0.67361781
C       -1.33185201      -0.32166160      -0.17430334
C       -2.71946884      -0.43792180       0.35025979
N       -0.52062248      -1.20107808      -0.55955902
H        3.19597156       0.65604695       0.37678603
H        3.27029046      -0.98407660      -0.31840495
H        2.76050158      -0.76920612       1.35190429
H        1.36541650       1.77542644      -0.50710566
H       -1.06251906       1.54853913      -1.30730773
H       -3.42481280       0.05670199      -0.31940586
H       -2.76976442       0.05791333       1.32095868
H       -2.99526523      -1.48598656       0.45543362
15
Frame=9 idx=009069 GeodesicLength=0.7020590141192692 rxn_smarts="[C:1]([n:2]1[c:3]([H:11])[c:4]([H:12])[c:5]([C:6]([H:13])([H:14])[H:15])[n:7]1)([H:8])([H:9])[H:10]>>[C:1](/[N:2]=[C:3](/[C@:4]1([H:12])[C:5]([C:6]([H:13])([H:14])[H:15])=[N:7]1)[H:11])([H:8])([H:9])[H:10]"
C        2.68681462      -0.33951424       0.36749506
N        1.30952324      -0.24030709      -0.04336750
C        0.76687190       0.90868442      -0.29058542
C       -0.59162222       0.82442385      -0.69829483
C       -1.32443220      -0.30361995      -0.19187024
C       -2.69593791      -0.45014762       0.36182066
N       -0.49786044      -1.16215207      -0.59921533
H        3.18878172       0.63412733       0.37515920
H        3.22559461      -1.01555613      -0.29853045
H        2.72518267      -0.76906554       1.37069010
H        1.37701365       1.78173605      -0.53233971
H       -1.06012360       1.56391284      -1.33502963
H       -3.42577241       0.03797642      -0.28609894
H       -2.73431357       0.03390088       1.33900253
H       -2.94972005      -1.50439914       0.46116451
15
Frame=10 idx=009069 GeodesicLength=0.7828030167662142 rxn_smarts="[C:1]([n:2]1[c:3]([H:11])[c:4]([H:12])[c:5]([C:6]([H:13])([H:14])[H:15])[n:7]1)([H:8])([H:9])[H:10]>>[C:1](/[N:2]=[C:3](/[C@:4]1([H:12])[C:5]([C:6]([H:13])([H:14])[H:15])=[N:7]1)[H:11])([H:8])([H:9])[H:10]"
C        2.65798483      -0.35088693       0.38063176
N        1.28328824      -0.22326143      -0.03003203
C        0.76079496       0.93395547      -0.29197252
C       -0.59165733       0.84139267      -0.72271950
C       -1.31721359      -0.28545609      -0.20910823
C       -2.67135366      -0.46213089       0.37333320
N       -0.47560733      -1.12325538      -0.63628257
H        3.18008275       0.61180088       0.37512005
H        3.18052132      -1.04546088      -0.27914413
H        2.68811213      -0.76999268       1.38838555
H        1.38813309       1.78780550      -0.55521205
H       -1.05729028       1.57843617      -1.36366804
H       -3.42518138       0.01816780      -0.25267838
H       -2.69756613       0.01092829       1.35628670
H       -2.90304762      -1.52204249       0.46706021
15
Frame=11 idx=009069 GeodesicLength=0.8640363435752715 rxn_smarts="[C:1]([n:2]1[c:3]([H:11])[c:4]([H:12])[c:5]([C:6]([H:13])([H:14])[H:15])[n:7]1)([H:8])([H:9])[H:10]>>[C:1](/[N:2]=[C:3](/[C@:4]1([H:12])[C:5]([C:6]([H:13])([H:14])[H:15])=[N:7]1)[H:11])([H:8])([H:9])[H:10]"
C        2.62851869      -0.36217622       0.39310592
N        1.25719009      -0.20598517      -0.01787596
C        0.75468841       0.95897222      -0.29380023
C       -0.59163848       0.85818352      -0.74657923
C       -1.31029466      -0.26724590      -0.22583126
C       -2.64604086      -0.47385724       0.38450726
N       -0.45380869      -1.08453019      -0.67053014
H        3.17044313       0.58901469       0.37523099
H        3.13456026      -1.07439247      -0.26059069
H        2.65047801      -0.77126936       1.40504679
H        1.39865650       1.79386130      -0.57522299
H       -1.05379803       1.59199518      -1.39306058
H       -3.42314374      -0.00282607      -0.21980434
H       -2.66026509      -0.01083765       1.37248273
H       -2.85554554      -1.53890665       0.47292174
15
Frame=12 idx=009069 GeodesicLength=0.9457897671057383 rxn_smarts="[C:1]([n:2]1[c:3]([H:11])[c:4]([H:12])[c:5]([C:6]([H:13])([H:14])[H:15])[n:7]1)([H:8])([H:9])[H:10]>>[C:1](/[N:2]=[C:3](/[C@:4]1([H:12])[C:5]([C:6]([H:13])([H:14])[H:15])=[N:7]1)[H:11])([H:8])([H:9])[H:10]"
C        2.59828246      -0.37336499       0.40513411
N        1.23129496      -0.18866354      -0.00740953
C        0.74856173       0.98362368      -0.29640034
C       -0.59161035       0.87474264      -0.77014964
C       -1.30368425      -0.24905055      -0.24227282
C       -2.61983282      -0.48528691       0.39555985
N       -0.43258555      -1.04607677      -0.70264341
H        3.15951031       0.56595898       0.37639473
H        3.08817158      -1.10199535      -0.24265144
H        2.61161344      -0.77324733       1.42076513
H        1.40865642       1.79988806      -0.59298536
H       -1.04973789       1.60466465      -1.42321630
H       -3.41962700      -0.02468445      -0.18689075
H       -2.62186666      -0.03155752       1.38794154
H       -2.80714637      -1.55495061       0.47882424
15
Frame=13 idx=009069 GeodesicLength=1.0280441590477913 rxn_smarts="[C:1]([n:2]1[c:3]([H:11])[c:4]([H:12])[c:5]([C:6]([H:13])([H:14])[H:15])[n:7]1)([H:8])([H:9])[H:10]>>[C:1](/[N:2]=[C:3](/[C@:4]1([H:12])[C:5]([C:6]([H:13])([H:14])[H:15])=[N:7]1)[H:11])([H:8])([H:9])[H:10]"
C        2.56775565      -0.38446194       0.41625411
N        1.20548954      -0.17111135       0.00300060
C        0.74227540       1.00801349      -0.29852009
C       -0.59146882       0.89091990      -0.79294151
C       -1.29743303      -0.23094826      -0.25797940
C       -2.59327656      -0.49638560       0.40602451
N       -0.41171274      -1.00804556      -0.73177071
H        3.14811680       0.54241718       0.37645754
H        3.04051490      -1.12902436      -0.22601665
H        2.57343931      -0.77510998       1.43541272
H        1.41789538       1.80625676      -0.60738440
H       -1.04473130       1.61614875      -1.45397791
H       -3.41481278      -0.04790792      -0.15534296
H       -2.58386610      -0.05061991       1.40196920
H       -2.75818564      -1.57014121       0.48481496
15
Frame=14 idx=009069 GeodesicLength=1.110833317326459 rxn_smarts="[C:1]([n:2]1[c:3]([H:11])[c:4]([H:12])[c:5]([C:6]([H:13])([H:14])[H:15])[n:7]1)([H:8])([H:9])[H:10]>>[C:1](/[N:2]=[C:3](/[C@:4]1([H:12])[C:5]([C:6]([H:13])([H:14])[H:15])=[N:7]1)[H:11])([H:8])([H:9])[H:10]"
C        2.53658648      -0.39545054       0.42691597
N        1.17990097      -0.15363890       0.01205054
C        0.73590380       1.03196799      -0.30109244
C       -0.59131343       0.90673168      -0.81546669
C       -1.29151844      -0.21298333      -0.27341588
C       -2.56595181      -0.50712482       0.41634247
N       -0.39141670      -0.97047294      -0.75909822
H        3.13551584       0.51872141       0.37737857
H        2.99251440      -1.15476583      -0.21012970
H        2.53433993      -0.77762613       1.44916382
H        1.42655865       1.81277316      -0.61962462
H       -1.03907367       1.62670795      -1.48534654
H       -3.40858727      -0.07188875      -0.12388446
H       -2.54501670      -0.06849346       1.41527907
H       -2.70844204      -1.58445749       0.49092811
15
Frame=15 idx=009069 GeodesicLength=1.1941757631239105 rxn_smarts="[C:1]([n:2]1[c:3]([H:11])[c:4]([H:12])[c:5]([C:6]([H:13])([H:14])[H:15])[n:7]1)([H:8])([H:9])[H:10]>>[C:1](/[N:2]=[C:3](/[C@:4]1([H:12])[C:5]([C:6]([H:13])([H:14])[H:15])=[N:7]1)[H:11])([H:8])([H:9])[H:10]"
C        2.50490858      -0.40634266       0.43701961
N        1.15449911      -0.13623753       0.02020457
C        0.72940759       1.05549925      -0.30376091
C       -0.59111905       0.92213432      -0.83759803
C       -1.28594626      -0.19520342      -0.28848863
C       -2.53801079      -0.51749260       0.42639247
N       -0.37163743      -0.93340973      -0.78457130
H        3.12194298       0.49482530       0.37853294
H        2.94397003      -1.17948996      -0.19511539
H        2.49481331      -0.78052938       1.46203987
H        1.43459602       1.81955137      -0.62955343
H       -1.03269144       1.63634914      -1.51712582
H       -3.40100775      -0.09679591      -0.09291695
H       -2.50576715      -0.08496811       1.42769129
H       -2.65795774      -1.59789010       0.49724972
15
Frame=16 idx=009069 GeodesicLength=1.2780875201533395 rxn_smarts="[C:1]([n:2]1[c:3]([H:11])[c:4]([H:12])[c:5]([C:6]([H:13])([H:14])[H:15])[n:7]1)([H:8])([H:9])[H:10]>>[C:1](/[N:2]=[C:3](/[C@:4]1([H:12])[C:5]([C:6]([H:13])([H:14])[H:15])=[N:7]1)[H:11])([H:8])([H:9])[H:10]"
C        2.47266536      -0.41712913       0.44669080
N        1.12931788      -0.11904078       0.02718851
C        0.72279788       1.07853925      -0.30670607
C       -0.59092517       0.93711895      -0.85944659
C       -1.28071719      -0.17764588      -0.30330423
C       -2.50937210      -0.52747084       0.43627484
N       -0.35245163      -0.89688590      -0.80859808
H        3.10724092       0.47087518       0.38040411
H        2.89518978      -1.20304834      -0.18084465
H        2.45446796      -0.78398321       1.47411547
H        1.44206192       1.82651734      -0.63759556
H       -1.02567938       1.64517270      -1.54920833
H       -3.39203532      -0.12241356      -0.06211230
H       -2.46584463      -0.10017918       1.43939565
H       -2.60671629      -1.61042661       0.50374641
