9
Frame=0 idx=004236 GeodesicLength=0.0 rxn_smarts="[O:1]([C@@:2]([C:3](=[O:4])[H:9])([C:5]#[N:6])[H:8])[H:7]>>[H:8][H:9].[O:1]([C:2](=[C:3]=[O:4])[C:5]#[N:6])[H:7]"
O        0.14148808       1.39134859      -1.09099854
C        0.23607554       0.31842783      -0.29353121
C       -0.87249297      -0.19203839       0.33637854
O       -2.05843854       0.06016262       0.40036916
C        1.52802294      -0.25830546      -0.13402245
N        2.56190960      -0.74134835       0.00878500
H       -0.78105524       1.67578419      -1.11066008
H       -0.29711253      -0.84651711       1.30910675
H       -0.45839686      -1.40751391       0.57457285
9
Frame=1 idx=004236 GeodesicLength=0.10639304235044963 rxn_smarts="[O:1]([C@@:2]([C:3](=[O:4])[H:9])([C:5]#[N:6])[H:8])[H:7]>>[H:8][H:9].[O:1]([C:2](=[C:3]=[O:4])[C:5]#[N:6])[H:7]"
O        0.15321205       1.44159619      -1.02221803
C        0.23808953       0.33436497      -0.26738189
C       -0.88888656      -0.21411751       0.30054451
O       -2.07856538       0.01194826       0.32495408
C        1.52087226      -0.27789747      -0.17031961
N        2.54745569      -0.77728031      -0.03152668
H       -0.77811889       1.67510691      -1.12265902
H       -0.27532985      -0.78465191       1.34314040
H       -0.43872884      -1.40906913       0.64546623
9
Frame=2 idx=004236 GeodesicLength=0.21328767662581793 rxn_smarts="[O:1]([C@@:2]([C:3](=[O:4])[H:9])([C:5]#[N:6])[H:8])[H:7]>>[H:8][H:9].[O:1]([C:2](=[C:3]=[O:4])[C:5]#[N:6])[H:7]"
O        0.15996440       1.48539060      -0.95444869
C        0.23970919       0.34764091      -0.24099351
C       -0.90161246      -0.23653512       0.26740539
O       -2.09268452      -0.03310003       0.25378586
C        1.51230518      -0.29471099      -0.20578775
N        2.53289869      -0.80732593      -0.07080555
H       -0.76964775       1.67314980      -1.13472767
H       -0.25571086      -0.72697620       1.37271679
H       -0.42522187      -1.40753304       0.71285513
9
Frame=3 idx=004236 GeodesicLength=0.3204274156611042 rxn_smarts="[O:1]([C@@:2]([C:3](=[O:4])[H:9])([C:5]#[N:6])[H:8])[H:7]>>[H:8][H:9].[O:1]([C:2](=[C:3]=[O:4])[C:5]#[N:6])[H:7]"
O        0.16284535       1.52009801      -0.89217952
C        0.24058805       0.35724988      -0.21547646
C       -0.91192532      -0.25754518       0.23808952
O       -2.10215028      -0.07203974       0.18949298
C        1.50225547      -0.30972678      -0.23824735
N        2.52073594      -0.82775537      -0.10813661
H       -0.75603902       1.67153403      -1.14605740
H       -0.23671993      -0.67691435       1.39802612
H       -0.41959025      -1.40490049       0.77448873
9
Frame=4 idx=004236 GeodesicLength=0.42769912893499956 rxn_smarts="[O:1]([C@@:2]([C:3](=[O:4])[H:9])([C:5]#[N:6])[H:8])[H:7]>>[H:8][H:9].[O:1]([C:2](=[C:3]=[O:4])[C:5]#[N:6])[H:7]"
O        0.16208911       1.54952800      -0.83420742
C        0.24101471       0.36568674      -0.19004098
C       -0.91998112      -0.27751785       0.21091571
O       -2.10791210      -0.10858583       0.12819716
C        1.49293812      -0.31867414      -0.26512293
N        2.50710231      -0.84778458      -0.14645823
H       -0.73981111       1.66909834      -1.15655656
H       -0.21799691      -0.63135210       1.42117977
H       -0.41744300      -1.40039858       0.83209350
9
Frame=5 idx=004236 GeodesicLength=0.5353395309057409 rxn_smarts="[O:1]([C@@:2]([C:3](=[O:4])[H:9])([C:5]#[N:6])[H:8])[H:7]>>[H:8][H:9].[O:1]([C:2](=[C:3]=[O:4])[C:5]#[N:6])[H:7]"
O        0.15919802       1.57279328      -0.78130179
C        0.24058770       0.37082574      -0.16680620
C       -0.92718736      -0.29639830       0.18580452
O       -2.11145367      -0.14072886       0.07140711
C        1.48318170      -0.32665782      -0.28969968
N        2.49564251      -0.86141375      -0.18266614
H       -0.72111515       1.66805893      -1.16531915
H       -0.19798270      -0.59110461       1.44218545
H       -0.42087105      -1.39537462       0.88639587
9
Frame=6 idx=004236 GeodesicLength=0.6431824322043814 rxn_smarts="[O:1]([C@@:2]([C:3](=[O:4])[H:9])([C:5]#[N:6])[H:8])[H:7]>>[H:8][H:9].[O:1]([C:2](=[C:3]=[O:4])[C:5]#[N:6])[H:7]"
O        0.15431180       1.59237097      -0.73210528
C        0.23969922       0.37458313      -0.14458903
C       -0.93321874      -0.31472786       0.16150384
O       -2.11282240      -0.17168339       0.01584128
C        1.47409231      -0.33167463      -0.31100841
N        2.48380749      -0.87433519      -0.21908581
H       -0.70146423       1.66773608      -1.17189113
H       -0.17693890      -0.55359623       1.46232265
H       -0.42746655      -1.38867288       0.93901189
9
Frame=7 idx=004236 GeodesicLength=0.7512342917160526 rxn_smarts="[O:1]([C@@:2]([C:3](=[O:4])[H:9])([C:5]#[N:6])[H:8])[H:7]>>[H:8][H:9].[O:1]([C:2](=[C:3]=[O:4])[C:5]#[N:6])[H:7]"
O        0.14796771       1.60828089      -0.68590918
C        0.23821282       0.37630126      -0.12366325
C       -0.93878902      -0.33259933       0.13787183
O       -2.11279525      -0.20006661      -0.03737730
C        1.46497836      -0.33585433      -0.33074654
N        2.47317215      -0.88371091      -0.25452187
H       -0.68054691       1.66799272      -1.17726369
H       -0.15401726      -0.51957026       1.48153242
H       -0.43818259      -1.38077342       0.99007758
9
Frame=8 idx=004236 GeodesicLength=0.8595420153886187 rxn_smarts="[O:1]([C@@:2]([C:3](=[O:4])[H:9])([C:5]#[N:6])[H:8])[H:7]>>[H:8][H:9].[O:1]([C:2](=[C:3]=[O:4])[C:5]#[N:6])[H:7]"
O        0.13990901       1.62176006      -0.64115687
C        0.23620331       0.37670228      -0.10328329
C       -0.94373651      -0.35038126       0.11444940
O       -2.11124221      -0.22760934      -0.09019760
C        1.45615310      -0.33843353      -0.34862066
N        2.46258612      -0.89167730      -0.29081343
H       -0.65821814       1.66831117      -1.18175992
H       -0.12916288      -0.48787414       1.50056146
H       -0.45249179      -1.37079795       1.04082091
9
Frame=9 idx=004236 GeodesicLength=0.9679353719152678 rxn_smarts="[O:1]([C@@:2]([C:3](=[O:4])[H:9])([C:5]#[N:6])[H:8])[H:7]>>[H:8][H:9].[O:1]([C:2](=[C:3]=[O:4])[C:5]#[N:6])[H:7]"
O        0.13076577       1.63255102      -0.59841180
C        0.23376087       0.37541022      -0.08405809
C       -0.94811223      -0.36846944       0.09054437
O       -2.10831981      -0.25445903      -0.14279225
C        1.44762386      -0.34033485      -0.36540271
N        2.45249251      -0.89799849      -0.32698522
H       -0.63563747       1.66947954      -1.18381136
H       -0.10195391      -0.45810915       1.51924322
H       -0.47061960      -1.35806983       1.09167384
9
Frame=10 idx=004236 GeodesicLength=1.0766078606335503 rxn_smarts="[O:1]([C@@:2]([C:3](=[O:4])[H:9])([C:5]#[N:6])[H:8])[H:7]>>[H:8][H:9].[O:1]([C:2](=[C:3]=[O:4])[C:5]#[N:6])[H:7]"
O        0.12031602       1.64088563      -0.55658635
C        0.23083266       0.37237419      -0.06551376
C       -0.95203733      -0.38711608       0.06607610
O       -2.10411341      -0.28079841      -0.19564781
C        1.43928672      -0.34173789      -0.38130314
N        2.44309942      -0.90223117      -0.36392137
H       -0.61220481       1.67105363      -1.18424167
H       -0.07177051      -0.43059941       1.53778815
H       -0.49340875      -1.34183048       1.14334985
9
Frame=11 idx=004236 GeodesicLength=1.185314527717943 rxn_smarts="[O:1]([C@@:2]([C:3](=[O:4])[H:9])([C:5]#[N:6])[H:8])[H:7]>>[H:8][H:9].[O:1]([C:2](=[C:3]=[O:4])[C:5]#[N:6])[H:7]"
O        0.10897452       1.64679257      -0.51580268
C        0.22756622       0.36755373      -0.04778976
C       -0.95526817      -0.40669850       0.04043044
O       -2.09843994      -0.30725948      -0.24932829
C        1.43138606      -0.34277150      -0.39650863
N        2.43424774      -0.90507785      -0.40149336
H       -0.58906412       1.67328262      -1.18176026
H       -0.03838221      -0.40511518       1.55611807
H       -0.52102010      -1.32070641       1.19613447
9
Frame=12 idx=004236 GeodesicLength=1.2943741107473494 rxn_smarts="[O:1]([C@@:2]([C:3](=[O:4])[H:9])([C:5]#[N:6])[H:8])[H:7]>>[H:8][H:9].[O:1]([C:2](=[C:3]=[O:4])[C:5]#[N:6])[H:7]"
O        0.09618337       1.65018249      -0.47474572
C        0.22387907       0.36068116      -0.03024698
C       -0.95782245      -0.42759346       0.01368792
O       -2.09107247      -0.33425253      -0.30468761
C        1.42383485      -0.34345652      -0.41112341
N        2.42619386      -0.90569982      -0.44122375
H       -0.56519794       1.67559218      -1.17715952
H       -0.00073629      -0.38267705       1.57436395
H       -0.55526200      -1.29277644       1.25113511
9
Frame=13 idx=004236 GeodesicLength=1.4036533301611478 rxn_smarts="[O:1]([C@@:2]([C:3](=[O:4])[H:9])([C:5]#[N:6])[H:8])[H:7]>>[H:8][H:9].[O:1]([C:2](=[C:3]=[O:4])[C:5]#[N:6])[H:7]"
O        0.08201874       1.65086361      -0.43309331
C        0.21988818       0.35147600      -0.01280895
C       -0.95940390      -0.45034442      -0.01457488
O       -2.08165753      -0.36242633      -0.36224144
C        1.41686986      -0.34384645      -0.42533481
N        2.41893232      -0.90422262      -0.48346045
H       -0.54126103       1.67791496      -1.16947334
H        0.04165749      -0.36414671       1.59231050
H       -0.59704413      -1.25526804       1.30867668
9
Frame=14 idx=004236 GeodesicLength=1.5131457685652818 rxn_smarts="[O:1]([C@@:2]([C:3](=[O:4])[H:9])([C:5]#[N:6])[H:8])[H:7]>>[H:8][H:9].[O:1]([C:2](=[C:3]=[O:4])[C:5]#[N:6])[H:7]"
O        0.06634479       1.64829448      -0.39005282
C        0.21573523       0.33930597       0.00472427
C       -0.95967155      -0.47570312      -0.04454832
O       -2.06960099      -0.39259949      -0.42271160
C        1.41068695      -0.34410557      -0.43953507
N        2.41282212      -0.89999062      -0.52902460
H       -0.51764798       1.67999908      -1.15778684
H        0.08972751      -0.35164087       1.60948013
H       -0.64839608      -1.20355986       1.36945484
9
Frame=15 idx=004236 GeodesicLength=1.6230525381456335 rxn_smarts="[O:1]([C@@:2]([C:3](=[O:4])[H:9])([C:5]#[N:6])[H:8])[H:7]>>[H:8][H:9].[O:1]([C:2](=[C:3]=[O:4])[C:5]#[N:6])[H:7]"
O        0.04893804       1.64183370      -0.34454215
C        0.21171969       0.32340441       0.02268975
C       -0.95807136      -0.50474984      -0.07621133
O       -2.05398802      -0.42614390      -0.48687690
C        1.40570679      -0.34413900      -0.45409964
N        2.40808645      -0.89247353      -0.57906963
H       -0.49504268       1.68149876      -1.14085402
H        0.14390428      -0.34877618       1.62521153
H       -0.71125319      -1.13045442       1.43375238
9
Frame=16 idx=004236 GeodesicLength=1.7317073854415956 rxn_smarts="[O:1]([C@@:2]([C:3](=[O:4])[H:9])([C:5]#[N:6])[H:8])[H:7]>>[H:8][H:9].[O:1]([C:2](=[C:3]=[O:4])[C:5]#[N:6])[H:7]"
O        0.03065787       1.63069581      -0.29702575
C        0.20815123       0.30333495       0.04073266
C       -0.95418618      -0.53762310      -0.10912545
O       -2.03480355      -0.46256897      -0.55221104
C        1.40223061      -0.34424780      -0.46909771
N        2.40487045      -0.88192150      -0.63159167
H       -0.47586911       1.68165896      -1.11693750
H        0.20043563      -0.35821242       1.63820734
H       -0.78148695      -1.03111592       1.49704913
