16
Frame=0 idx=001860 GeodesicLength=0.0 rxn_smarts="[C:1]([C:2]([C:3]1([O:4][H:12])[C:5]([H:13])([H:14])[C:6]1([H:15])[H:16])([H:10])[H:11])([H:7])([H:8])[H:9]>>[C:1]([C:2](/[C:3]([O:4][H:12])=[C:6](/[C:5]([H:13])([H:14])[H:15])[H:16])([H:10])[H:11])([H:7])([H:8])[H:9]"
C        1.93788216       0.27680956       0.12801283
C        0.79247710      -0.21817187      -0.74572120
C       -0.48750328      -0.49111334       0.02540312
O       -0.21820928      -1.37291305       1.08675787
C       -1.26007930       0.79177887       0.47466498
C       -1.77961585      -0.64955712      -0.60243833
H        2.84201013       0.42059827      -0.46584191
H        2.15740963      -0.44233289       0.91671176
H        1.69534826       1.23124953       0.60174677
H        1.08306530      -1.15194999      -1.23400380
H        0.57610192       0.50368801      -1.53764193
H       -1.00250077      -1.92312970       1.17384852
H       -1.34675693       0.79329109       1.55548702
H       -0.87135245       1.70358053       0.03469403
H       -2.34775999       0.64678495       0.15252900
H       -1.77051660      -0.11861286      -1.56420874
16
Frame=1 idx=001860 GeodesicLength=0.10592162258131194 rxn_smarts="[C:1]([C:2]([C:3]1([O:4][H:12])[C:5]([H:13])([H:14])[C:6]1([H:15])[H:16])([H:10])[H:11])([H:7])([H:8])[H:9]>>[C:1]([C:2](/[C:3]([O:4][H:12])=[C:6](/[C:5]([H:13])([H:14])[H:15])[H:16])([H:10])[H:11])([H:7])([H:8])[H:9]"
C        1.94859546       0.27301678       0.12262346
C        0.80147361      -0.22538692      -0.74708156
C       -0.47782737      -0.49028533       0.02573528
O       -0.21491026      -1.37083820       1.08764384
C       -1.28088304       0.79349137       0.47797366
C       -1.77048257      -0.62130502      -0.60045503
H        2.85287230       0.41053051      -0.47253072
H        2.16747919      -0.44101986       0.91617827
H        1.70798382       1.23112524       0.58972207
H        1.09061390      -1.16264714      -1.23001127
H        0.58717336       0.49202399      -1.54353303
H       -0.99953288      -1.91973185       1.17688575
H       -1.36951433       0.78736775       1.55881683
H       -0.89798718       1.71285967       0.04823128
H       -2.38379359       0.63439477       0.15793854
H       -1.76126043      -0.10359577      -1.56813736
16
Frame=2 idx=001860 GeodesicLength=0.21195035670693355 rxn_smarts="[C:1]([C:2]([C:3]1([O:4][H:12])[C:5]([H:13])([H:14])[C:6]1([H:15])[H:16])([H:10])[H:11])([H:7])([H:8])[H:9]>>[C:1]([C:2](/[C:3]([O:4][H:12])=[C:6](/[C:5]([H:13])([H:14])[H:15])[H:16])([H:10])[H:11])([H:7])([H:8])[H:9]"
C        1.95959407       0.26907361       0.11696828
C        0.81055948      -0.23271055      -0.74844212
C       -0.46812490      -0.48886169       0.02619253
O       -0.21164340      -1.36818460       1.08866168
C       -1.30205117       0.79551543       0.48164699
C       -1.76079910      -0.59269036      -0.59851999
H        2.86400074       0.39987882      -0.47954319
H        2.17770594      -0.43961936       0.91556227
H        1.72117077       1.23101341       0.57710748
H        1.09795986      -1.17364103      -1.22573421
H        0.59846455       0.48002229      -1.54960917
H       -0.99646741      -1.91595508       1.17988437
H       -1.39348587       0.78091901       1.56237425
H       -0.92513545       1.72258327       0.06279818
H       -2.41990485       0.62049110       0.16238329
H       -1.75184326      -0.08783427      -1.57173063
16
Frame=3 idx=001860 GeodesicLength=0.31806110988056097 rxn_smarts="[C:1]([C:2]([C:3]1([O:4][H:12])[C:5]([H:13])([H:14])[C:6]1([H:15])[H:16])([H:10])[H:11])([H:7])([H:8])[H:9]>>[C:1]([C:2](/[C:3]([O:4][H:12])=[C:6](/[C:5]([H:13])([H:14])[H:15])[H:16])([H:10])[H:11])([H:7])([H:8])[H:9]"
C        1.97088294       0.26497392       0.11102851
C        0.81972536      -0.24014808      -0.74979757
C       -0.45838999      -0.48680944       0.02679448
O       -0.20841054      -1.36491859       1.08983195
C       -1.32359427       0.79787286       0.48572344
C       -1.75056899      -0.56365782      -0.59659560
H        2.87539062       0.38861363      -0.48690198
H        2.18809712      -0.43811668       0.91485440
H        1.73493037       1.23091087       0.56386060
H        1.10507287      -1.18494499      -1.22114686
H        0.60996396       0.46765399      -1.55587680
H       -0.99330148      -1.91178094       1.18284400
H       -1.41872645       0.77389428       1.56616137
H       -0.95282718       1.73276977       0.07847141
H       -2.45601078       0.60495823       0.16571498
H       -1.74223355      -0.07127101      -1.57496633
16
Frame=4 idx=001860 GeodesicLength=0.4242343659157505 rxn_smarts="[C:1]([C:2]([C:3]1([O:4][H:12])[C:5]([H:13])([H:14])[C:6]1([H:15])[H:16])([H:10])[H:11])([H:7])([H:8])[H:9]>>[C:1]([C:2](/[C:3]([O:4][H:12])=[C:6](/[C:5]([H:13])([H:14])[H:15])[H:16])([H:10])[H:11])([H:7])([H:8])[H:9]"
C        1.98246674       0.26071181       0.10478574
C        0.82896202      -0.24770650      -0.75114187
C       -0.44861433      -0.48409372       0.02756194
O       -0.20521332      -1.36100619       1.09117528
C       -1.34553191       0.80057821       0.49023900
C       -1.73979625      -0.53413313      -0.59463549
H        2.88703607       0.37670364      -0.49462799
H        2.19866117      -0.43649496       0.91404537
H        1.74928220       1.23081389       0.54993605
H        1.11192190      -1.19657383      -1.21621919
H        0.62165987       0.45488601      -1.56234288
H       -0.99003001      -1.90719148       1.18576301
H       -1.44528345       0.76623715       1.57016709
H       -0.98110484       1.74342785       0.09532749
H       -2.49201462       0.58768624       0.16778179
H       -1.73240125      -0.05384498      -1.57781533
16
Frame=5 idx=001860 GeodesicLength=0.53038369799169 rxn_smarts="[C:1]([C:2]([C:3]1([O:4][H:12])[C:5]([H:13])([H:14])[C:6]1([H:15])[H:16])([H:10])[H:11])([H:7])([H:8])[H:9]>>[C:1]([C:2](/[C:3]([O:4][H:12])=[C:6](/[C:5]([H:13])([H:14])[H:15])[H:16])([H:10])[H:11])([H:7])([H:8])[H:9]"
C        1.99434504       0.25627873       0.09822123
C        0.83825446      -0.25539061      -0.75246654
C       -0.43879042      -0.48068346       0.02852044
O       -0.20204978      -1.35641072       1.09271829
C       -1.36789331       0.80364195       0.49522296
C       -1.72849484      -0.50405055      -0.59258277
H        2.89892630       0.36412980      -0.50274578
H        2.20940868      -0.43474856       0.91311647
H        1.76423916       1.23071056       0.53530166
H        1.11846857      -1.20853592      -1.21092508
H        0.63352771       0.44168859      -1.56900604
H       -0.98664323      -1.90217175       1.18864534
H       -1.47320582       0.75789439       1.57437003
H       -1.01001288       1.75456132       0.11343637
H       -2.52778038       0.56858914       0.16843361
H       -1.72229926      -0.03550289      -1.58026017
16
Frame=6 idx=001860 GeodesicLength=0.6365606645318415 rxn_smarts="[C:1]([C:2]([C:3]1([O:4][H:12])[C:5]([H:13])([H:14])[C:6]1([H:15])[H:16])([H:10])[H:11])([H:7])([H:8])[H:9]>>[C:1]([C:2](/[C:3]([O:4][H:12])=[C:6](/[C:5]([H:13])([H:14])[H:15])[H:16])([H:10])[H:11])([H:7])([H:8])[H:9]"
C        2.00652584       0.25166532       0.09131252
C        0.84759188      -0.26320873      -0.75376469
C       -0.42890785      -0.47653687       0.02969221
O       -0.19892279      -1.35109078       1.09448647
C       -1.39069714       0.80708066       0.50071629
C       -1.71665271      -0.47331971      -0.59038862
H        2.91105353       0.35085115      -0.51128066
H        2.22035316      -0.43285863       0.91205525
H        1.77982663       1.23059391       0.51990522
H        1.12467712      -1.22084731      -1.20522714
H        0.64555363       0.42802394      -1.57587368
H       -0.98313852      -1.89669369       1.19149314
H       -1.50254429       0.74880223       1.57875276
H       -1.03960533       1.76617519       0.13288847
H       -2.56320268       0.54753220       0.16747889
H       -1.71191048      -0.01616889      -1.58224642
16
Frame=7 idx=001860 GeodesicLength=0.7427874369769811 rxn_smarts="[C:1]([C:2]([C:3]1([O:4][H:12])[C:5]([H:13])([H:14])[C:6]1([H:15])[H:16])([H:10])[H:11])([H:7])([H:8])[H:9]>>[C:1]([C:2](/[C:3]([O:4][H:12])=[C:6](/[C:5]([H:13])([H:14])[H:15])[H:16])([H:10])[H:11])([H:7])([H:8])[H:9]"
C        2.01901140       0.24686018       0.08403649
C        0.85695806      -0.27116615      -0.75502591
C       -0.41895318      -0.47161531       0.03110804
O       -0.19582684      -1.34500116       1.09651396
C       -1.41397844       0.81090048       0.50674779
C       -1.70427586      -0.44184513      -0.58798138
H        2.92340262       0.33683743      -0.52026578
H        2.23151217      -0.43081792       0.91083839
H        1.79606400       1.23044543       0.50370458
H        1.13050180      -1.23351834      -1.19909161
H        0.65770990       0.41385580      -1.58294548
H       -0.97950020      -1.89072984       1.19432288
H       -1.53335685       0.73889658       1.58328684
H       -1.06993354       1.77826197       0.15377852
H       -2.59813955       0.52440200       0.16470741
H       -1.70119550       0.00423397      -1.58373475
16
Frame=8 idx=001860 GeodesicLength=0.8490647013413642 rxn_smarts="[C:1]([C:2]([C:3]1([O:4][H:12])[C:5]([H:13])([H:14])[C:6]1([H:15])[H:16])([H:10])[H:11])([H:7])([H:8])[H:9]>>[C:1]([C:2](/[C:3]([O:4][H:12])=[C:6](/[C:5]([H:13])([H:14])[H:15])[H:16])([H:10])[H:11])([H:7])([H:8])[H:9]"
C        2.03179986       0.24185068       0.07636659
C        0.86633237      -0.27926691      -0.75623774
C       -0.40891392      -0.46587770       0.03279861
O       -0.19275746      -1.33809507       1.09883608
C       -1.43776882       0.81510832       0.51336195
C       -1.69136816      -0.40952192      -0.58528973
H        2.93594605       0.32205678      -0.52972950
H        2.24290233      -0.42861807       0.90943887
H        1.81296064       1.23024397       0.48665218
H        1.13589471      -1.24655583      -1.19247741
H        0.66996109       0.39915053      -1.59021782
H       -0.97571752      -1.88425107       1.19714549
H       -1.56569233       0.72810973       1.58793113
H       -1.10105648       1.79080592       0.17620079
H       -2.63239981       0.49909092       0.15988527
H       -1.69012256       0.02576972      -1.58466477
16
Frame=9 idx=001860 GeodesicLength=0.9547461200042755 rxn_smarts="[C:1]([C:2]([C:3]1([O:4][H:12])[C:5]([H:13])([H:14])[C:6]1([H:15])[H:16])([H:10])[H:11])([H:7])([H:8])[H:9]>>[C:1]([C:2](/[C:3]([O:4][H:12])=[C:6](/[C:5]([H:13])([H:14])[H:15])[H:16])([H:10])[H:11])([H:7])([H:8])[H:9]"
C        2.04487278       0.23663834       0.06830355
C        0.87570117      -0.28754024      -0.75738332
C       -0.39875327      -0.45929351       0.03477770
O       -0.18971193      -1.33035300       1.10146310
C       -1.46229673       0.81954740       0.52048259
C       -1.67792344      -0.37622241      -0.58224930
H        2.94865617       0.30650885      -0.53964597
H        2.25453060      -0.42620532       0.90786444
H        1.83047150       1.22997626       0.46871238
H        1.14082427      -1.25997557      -1.18530989
H        0.68228058       0.38380683      -1.59769610
H       -0.97173648      -1.87729997       1.19989962
H       -1.59941520       0.71634664       1.59248465
H       -1.13326899       1.80361154       0.20016752
H       -2.66564639       0.47199356       0.15320199
H       -1.67858465       0.04846059      -1.58507295
16
Frame=10 idx=001860 GeodesicLength=1.0604362957812419 rxn_smarts="[C:1]([C:2]([C:3]1([O:4][H:12])[C:5]([H:13])([H:14])[C:6]1([H:15])[H:16])([H:10])[H:11])([H:7])([H:8])[H:9]>>[C:1]([C:2](/[C:3]([O:4][H:12])=[C:6](/[C:5]([H:13])([H:14])[H:15])[H:16])([H:10])[H:11])([H:7])([H:8])[H:9]"
C        2.05825278       0.23118855       0.05978714
C        0.88502683      -0.29596716      -0.75844423
C       -0.38847249      -0.45179103       0.03711003
O       -0.18667931      -1.32167680       1.10447657
C       -1.48745925       0.82433932       0.52823288
C       -1.66391708      -0.34185734      -0.57876244
H        2.96151555       0.29010687      -0.55012046
H        2.26643701      -0.42361378       0.90604671
H        1.84868944       1.22960901       0.44981235
H        1.14520208      -1.27376930      -1.17756916
H        0.69460111       0.36783873      -1.60535318
H       -0.96756095      -1.86977121       1.20267964
H       -1.63479151       0.70352020       1.59701841
H       -1.16647149       1.81679062       0.22586901
H       -2.69777671       0.44261278       0.14402620
H       -1.66659602       0.07244055      -1.58480949
16
Frame=11 idx=001860 GeodesicLength=1.16610370777567 rxn_smarts="[C:1]([C:2]([C:3]1([O:4][H:12])[C:5]([H:13])([H:14])[C:6]1([H:15])[H:16])([H:10])[H:11])([H:7])([H:8])[H:9]>>[C:1]([C:2](/[C:3]([O:4][H:12])=[C:6](/[C:5]([H:13])([H:14])[H:15])[H:16])([H:10])[H:11])([H:7])([H:8])[H:9]"
C        2.07193828       0.22548092       0.05078423
C        0.89427271      -0.30455002      -0.75939968
C       -0.37805646      -0.44331999       0.03984112
O       -0.18364997      -1.31199761       1.10793246
C       -1.51332414       0.82946898       0.53663327
C       -1.64933949      -0.30631746      -0.57472966
H        2.97449253       0.27280718      -0.56120312
H        2.27864867      -0.42084505       0.90394394
H        1.86763737       1.22911139       0.42990424
H        1.14895127      -1.28793584      -1.16920784
H        0.70685629       0.35121258      -1.61316797
H       -0.96316614      -1.86162573       1.20551670
H       -1.67189183       0.68954091       1.60144341
H       -1.20076759       1.83030359       0.25342306
H       -2.72849396       0.41088192       0.13209297
H       -1.65410752       0.09778423      -1.58380714
16
Frame=12 idx=001860 GeodesicLength=1.2717905323161927 rxn_smarts="[C:1]([C:2]([C:3]1([O:4][H:12])[C:5]([H:13])([H:14])[C:6]1([H:15])[H:16])([H:10])[H:11])([H:7])([H:8])[H:9]>>[C:1]([C:2](/[C:3]([O:4][H:12])=[C:6](/[C:5]([H:13])([H:14])[H:15])[H:16])([H:10])[H:11])([H:7])([H:8])[H:9]"
C        2.08592171       0.21948767       0.04125039
C        0.90339992      -0.31329062      -0.76022107
C       -0.36747725      -0.43381611       0.04303324
O       -0.18060182      -1.30123709       1.11190369
C       -1.53997000       0.83489893       0.54571063
C       -1.63417571      -0.26945100      -0.57003571
H        2.98753631       0.25454613      -0.57295384
H        2.29119781      -0.41789599       0.90150522
H        1.88733432       1.22844629       0.40890888
H        1.15199034      -1.30247224      -1.16015884
H        0.71896678       0.33388809      -1.62111187
H       -0.95850489      -1.85281520       1.20845556
H       -1.71080323       0.67428239       1.60565589
H       -1.23628155       1.84407239       0.28296375
H       -2.75748111       0.37676898       0.11707994
H       -1.64105162       0.12458739      -1.58198586
16
Frame=13 idx=001860 GeodesicLength=1.3771250210616552 rxn_smarts="[C:1]([C:2]([C:3]1([O:4][H:12])[C:5]([H:13])([H:14])[C:6]1([H:15])[H:16])([H:10])[H:11])([H:7])([H:8])[H:9]>>[C:1]([C:2](/[C:3]([O:4][H:12])=[C:6](/[C:5]([H:13])([H:14])[H:15])[H:16])([H:10])[H:11])([H:7])([H:8])[H:9]"
C        2.10021271       0.21318168       0.03116145
C        0.91236263      -0.32219189      -0.76087772
C       -0.35669764      -0.42321719       0.04673709
O       -0.17751474      -1.28930981       1.11644960
C       -1.56760832       0.84049595       0.55540136
C       -1.61839016      -0.23111973      -0.56455360
H        3.00061748       0.23527976      -0.58540706
H        2.30414097      -0.41476386       0.89868876
H        1.90781213       1.22755364       0.38680083
H        1.15421442      -1.31735642      -1.15036940
H        0.73083920       0.31580603      -1.62914511
H       -0.95350242      -1.84332369       1.21151080
H       -1.75155285       0.65759902       1.60940676
H       -1.27332402       1.85792290       0.31454537
H       -2.78428771       0.34056587       0.09897248
H       -1.62732170       0.15287773      -1.57932163
16
Frame=14 idx=001860 GeodesicLength=1.482601799338985 rxn_smarts="[C:1]([C:2]([C:3]1([O:4][H:12])[C:5]([H:13])([H:14])[C:6]1([H:15])[H:16])([H:10])[H:11])([H:7])([H:8])[H:9]>>[C:1]([C:2](/[C:3]([O:4][H:12])=[C:6](/[C:5]([H:13])([H:14])[H:15])[H:16])([H:10])[H:11])([H:7])([H:8])[H:9]"
C        2.11479853       0.20652034       0.02043496
C        0.92109092      -0.33124044      -0.76133061
C       -0.34570974      -0.41143135       0.05104855
O       -0.17436127      -1.27609078       1.12169638
C       -1.59620406       0.84632131       0.56582354
C       -1.60196315      -0.19115715      -0.55812487
H        3.01366120       0.21489843      -0.59869512
H        2.31751079      -0.41147414       0.89540416
H        1.92911940       1.22639422       0.36345395
H        1.15549782      -1.33258483      -1.13976642
H        0.74234578       0.29696354      -1.63722191
H       -0.94813139      -1.83302630       1.21481381
H       -1.79437383       0.63933491       1.61267438
H       -1.31187848       1.87186701       0.34842162
H       -2.80850429       0.30189387       0.07699035
H       -1.61289824       0.18281137      -1.57562277
16
Frame=15 idx=001860 GeodesicLength=1.5881919961067457 rxn_smarts="[C:1]([C:2]([C:3]1([O:4][H:12])[C:5]([H:13])([H:14])[C:6]1([H:15])[H:16])([H:10])[H:11])([H:7])([H:8])[H:9]>>[C:1]([C:2](/[C:3]([O:4][H:12])=[C:6](/[C:5]([H:13])([H:14])[H:15])[H:16])([H:10])[H:11])([H:7])([H:8])[H:9]"
C        2.12966666       0.19945735       0.00901286
C        0.92950971      -0.34042762      -0.76153793
C       -0.33449091      -0.39837448       0.05605642
O       -0.17110979      -1.26145481       1.12775668
C       -1.62587672       0.85230511       0.57697397
C       -1.58486624      -0.14940129      -0.55058174
H        3.02659246       0.19332272      -0.61291394
H        2.33135726      -0.40805730       0.89156830
H        1.95129062       1.22490241       0.33880307
H        1.15569855      -1.34813376      -1.12828310
H        0.75334169       0.27733726      -1.64528031
H       -0.94232086      -1.82183762       1.21846752
H       -1.83938261       0.61931303       1.61524225
H       -1.35216579       1.88577150       0.38473490
H       -2.82954382       0.26079716       0.05074646
H       -1.59770023       0.21448035      -1.57076542
16
Frame=16 idx=001860 GeodesicLength=1.6939008909264501 rxn_smarts="[C:1]([C:2]([C:3]1([O:4][H:12])[C:5]([H:13])([H:14])[C:6]1([H:15])[H:16])([H:10])[H:11])([H:7])([H:8])[H:9]>>[C:1]([C:2](/[C:3]([O:4][H:12])=[C:6](/[C:5]([H:13])([H:14])[H:15])[H:16])([H:10])[H:11])([H:7])([H:8])[H:9]"
C        2.14481638       0.19194403      -0.00318252
C        0.93753298      -0.34974811      -0.76145030
C       -0.32301554      -0.38394117       0.06187551
O       -0.16773482      -1.24524992       1.13478270
C       -1.65680339       0.85833955       0.58883926
C       -1.56705625      -0.10563271      -0.54172312
H        3.03934154       0.17044597      -0.62819614
H        2.34574615      -0.40453712       0.88708551
H        1.97438479       1.22302182       0.31275156
H        1.15464746      -1.36399707      -1.11584134
H        0.76366458       0.25689425      -1.65325638
H       -0.93599378      -1.80965470       1.22260343
H       -1.88673836       0.59729079       1.61682153
H       -1.39447594       1.89944572       0.42367889
H       -2.84669287       0.21739665       0.01981062
H       -1.58162292       0.24798201      -1.56459921
