13
Frame=0 idx=008550 GeodesicLength=0.0 rxn_smarts="[C:1]([c:2]1[n:3][o:4][c:5]([N:6]([H:11])[H:12])[c:7]1[H:13])([H:8])([H:9])[H:10]>>[C:1]([C:2]1=[N:3][O:4]/[C:5](=[N:6]\[H:12])[C:7]1([H:11])[H:13])([H:8])([H:9])[H:10]"
C       -2.14750427       0.38247537      -0.09248806
C       -0.74980236      -0.11818056      -0.19557652
N       -0.50562891      -1.11980565      -0.97286193
O        0.91089243      -1.41302568      -0.87177986
C        1.41592782      -0.49649980      -0.07577051
N        2.60320501       0.01920586       0.02946850
C        0.42351016       0.33583763       0.54082691
H       -2.81177612      -0.21151677      -0.71768231
H       -2.48983697       0.32943474       0.94287779
H       -2.19563857       1.42717503      -0.40256717
H        1.73638370       0.99556118       0.42968307
H        3.44854342      -0.46317331      -0.24031512
H        0.36172465       0.33251191       1.62618523
13
Frame=1 idx=008550 GeodesicLength=0.039894491295685466 rxn_smarts="[C:1]([c:2]1[n:3][o:4][c:5]([N:6]([H:11])[H:12])[c:7]1[H:13])([H:8])([H:9])[H:10]>>[C:1]([C:2]1=[N:3][O:4]/[C:5](=[N:6]\[H:12])[C:7]1([H:11])[H:13])([H:8])([H:9])[H:10]"
C       -2.14575714       0.38156438      -0.09485333
C       -0.74774091      -0.11879011      -0.19543385
N       -0.50070829      -1.12083676      -0.97098445
O        0.91351814      -1.40939630      -0.87031040
C        1.41740476      -0.50974565      -0.05154184
N        2.60459883       0.01316964       0.03779810
C        0.42270319       0.33464442       0.54572855
H       -2.80721044      -0.20771420      -0.72750719
H       -2.49382641       0.32101577       0.93822649
H       -2.19261057       1.42841980      -0.39798633
H        1.73921435       1.00494106       0.43374803
H        3.43723345      -0.46396698      -0.27729519
H        0.35318105       0.34669493       1.63041142
13
Frame=2 idx=008550 GeodesicLength=0.07975795702546415 rxn_smarts="[C:1]([c:2]1[n:3][o:4][c:5]([N:6]([H:11])[H:12])[c:7]1[H:13])([H:8])([H:9])[H:10]>>[C:1]([C:2]1=[N:3][O:4]/[C:5](=[N:6]\[H:12])[C:7]1([H:11])[H:13])([H:8])([H:9])[H:10]"
C       -2.14384433       0.38069804      -0.09717050
C       -0.74555584      -0.11935465      -0.19543526
N       -0.49571425      -1.12177610      -0.96931252
O        0.91605152      -1.40627312      -0.86800080
C        1.41873761      -0.52246296      -0.02836923
N        2.60593469       0.00683637       0.04594521
C        0.42210286       0.33328426       0.55046760
H       -2.80250671      -0.20384568      -0.73712735
H       -2.49746654       0.31269531       0.93359165
H       -2.18948386       1.42964161      -0.39336072
H        1.74226793       1.01426631       0.43770983
H        3.42435725      -0.46387618      -0.31317134
H        0.34511966       0.36016679       1.63423343
13
Frame=3 idx=008550 GeodesicLength=0.11966864236135435 rxn_smarts="[C:1]([c:2]1[n:3][o:4][c:5]([N:6]([H:11])[H:12])[c:7]1[H:13])([H:8])([H:9])[H:10]>>[C:1]([C:2]1=[N:3][O:4]/[C:5](=[N:6]\[H:12])[C:7]1([H:11])[H:13])([H:8])([H:9])[H:10]"
C       -2.14187548       0.37981598      -0.09930074
C       -0.74330818      -0.11984865      -0.19563077
N       -0.49072360      -1.12254294      -0.96801185
O        0.91847753      -1.40345530      -0.86535766
C        1.41998505      -0.53451923      -0.00654817
N        2.60722995       0.00061366       0.05326890
C        0.42170789       0.33185570       0.55488076
H       -2.79783264      -0.20003820      -0.74631083
H       -2.50074621       0.30439575       0.92916990
H       -2.18647821       1.43079483      -0.38855615
H        1.74549705       1.02378387       0.44129312
H        3.41040784      -0.46380259      -0.34643501
H        0.33765902       0.37294710       1.63753851
13
Frame=4 idx=008550 GeodesicLength=0.15964432733061834 rxn_smarts="[C:1]([c:2]1[n:3][o:4][c:5]([N:6]([H:11])[H:12])[c:7]1[H:13])([H:8])([H:9])[H:10]>>[C:1]([C:2]1=[N:3][O:4]/[C:5](=[N:6]\[H:12])[C:7]1([H:11])[H:13])([H:8])([H:9])[H:10]"
C       -2.13992165       0.37889714      -0.10120481
C       -0.74104017      -0.12026701      -0.19602422
N       -0.48577573      -1.12311135      -0.96713310
O        0.92080949      -1.40079969      -0.86267987
C        1.42119532      -0.54589340       0.01388536
N        2.60848648      -0.00531661       0.05958694
C        0.42149804       0.33039791       0.55894691
H       -2.79329624      -0.19636766      -0.75496605
H       -2.50367746       0.29614590       0.92503928
H       -2.18371786       1.43184251      -0.38358758
H        1.74883377       1.03361103       0.44443422
H        3.39578348      -0.46420063      -0.37665379
H        0.33082255       0.38506187       1.64035672
13
Frame=5 idx=008550 GeodesicLength=0.19951356015331548 rxn_smarts="[C:1]([c:2]1[n:3][o:4][c:5]([N:6]([H:11])[H:12])[c:7]1[H:13])([H:8])([H:9])[H:10]>>[C:1]([C:2]1=[N:3][O:4]/[C:5](=[N:6]\[H:12])[C:7]1([H:11])[H:13])([H:8])([H:9])[H:10]"
C       -2.13789974       0.37791125      -0.10287953
C       -0.73874473      -0.12058874      -0.19659815
N       -0.48086799      -1.12336233      -0.96667007
O        0.92298799      -1.39826026      -0.85996518
C        1.42225332      -0.55658784       0.03306090
N        2.60959143      -0.01094628       0.06502868
C        0.42141876       0.32891482       0.56264837
H       -2.78879499      -0.19287389      -0.76302615
H       -2.50619801       0.28790793       0.92115339
H       -2.18106878       1.43272994      -0.37846582
H        1.75220895       1.04375765       0.44715708
H        3.38064016      -0.46514849      -0.40405820
H        0.32447363       0.39654625       1.64261467
13
Frame=6 idx=008550 GeodesicLength=0.2393947580244324 rxn_smarts="[C:1]([c:2]1[n:3][o:4][c:5]([N:6]([H:11])[H:12])[c:7]1[H:13])([H:8])([H:9])[H:10]>>[C:1]([C:2]1=[N:3][O:4]/[C:5](=[N:6]\[H:12])[C:7]1([H:11])[H:13])([H:8])([H:9])[H:10]"
C       -2.13582243       0.37702340      -0.10453071
C       -0.73644267      -0.12102800      -0.19715329
N       -0.47604846      -1.12376709      -0.96619540
O        0.92508983      -1.39590152      -0.85714257
C        1.42332595      -0.56689696       0.05129815
N        2.61061773      -0.01632217       0.06991422
C        0.42143782       0.32714786       0.56636877
H       -2.78438261      -0.18945812      -0.77069919
H       -2.50850819       0.28025999       0.91732833
H       -2.17830984       1.43356520      -0.37373545
H        1.75555175       1.05405371       0.44990476
H        3.36495634      -0.46574445      -0.43016178
H        0.31853478       0.40706814       1.64480415
13
Frame=7 idx=008550 GeodesicLength=0.27931072094824777 rxn_smarts="[C:1]([c:2]1[n:3][o:4][c:5]([N:6]([H:11])[H:12])[c:7]1[H:13])([H:8])([H:9])[H:10]>>[C:1]([C:2]1=[N:3][O:4]/[C:5](=[N:6]\[H:12])[C:7]1([H:11])[H:13])([H:8])([H:9])[H:10]"
C       -2.13370128       0.37615422      -0.10607274
C       -0.73412563      -0.12148101      -0.19776929
N       -0.47128151      -1.12412837      -0.96589108
O        0.92708490      -1.39377220      -0.85424298
C        1.42436907      -0.57678407       0.06864349
N        2.61151772      -0.02139643       0.07408866
C        0.42154719       0.32525784       0.56996083
H       -2.78000558      -0.18606334      -0.77806676
H       -2.51060717       0.27275831       0.91362227
H       -2.17555172       1.43435925      -0.36899304
H        1.75885104       1.06464595       0.45244654
H        3.34893121      -0.46651049      -0.45449195
H        0.31297175       0.41696033       1.64676606
13
Frame=8 idx=008550 GeodesicLength=0.3192396953644522 rxn_smarts="[C:1]([c:2]1[n:3][o:4][c:5]([N:6]([H:11])[H:12])[c:7]1[H:13])([H:8])([H:9])[H:10]>>[C:1]([C:2]1=[N:3][O:4]/[C:5](=[N:6]\[H:12])[C:7]1([H:11])[H:13])([H:8])([H:9])[H:10]"
C       -2.13156625       0.37527981      -0.10749314
C       -0.73179706      -0.12190997      -0.19847536
N       -0.46655760      -1.12438645      -0.96579345
O        0.92898316      -1.39183441      -0.85126767
C        1.42539415      -0.58628745       0.08518376
N        2.61231868      -0.02617773       0.07759341
C        0.42174443       0.32329661       0.57339210
H       -2.77567521      -0.18265588      -0.78518265
H       -2.51252854       0.26525671       0.91003491
H       -2.17285717       1.43510607      -0.36411325
H        1.76211560       1.07555146       0.45471036
H        3.33267455      -0.46760727      -0.47706280
H        0.30775128       0.42636850       1.64847378
13
Frame=9 idx=008550 GeodesicLength=0.3591712234714876 rxn_smarts="[C:1]([c:2]1[n:3][o:4][c:5]([N:6]([H:11])[H:12])[c:7]1[H:13])([H:8])([H:9])[H:10]>>[C:1]([C:2]1=[N:3][O:4]/[C:5](=[N:6]\[H:12])[C:7]1([H:11])[H:13])([H:8])([H:9])[H:10]"
C       -2.12935953       0.37446773      -0.10888547
C       -0.72944617      -0.12239823      -0.19919159
N       -0.46189651      -1.12472731      -0.96570465
O        0.93078664      -1.39013017      -0.84818614
C        1.42640668      -0.59554357       0.10108684
N        2.61299814      -0.03078850       0.08072937
C        0.42200347       0.32113758       0.57681767
H       -2.77135686      -0.17925272      -0.79205909
H       -2.51428024       0.25806670       0.90647661
H       -2.17004950       1.43583041      -0.35940910
H        1.76531378       1.08666324       0.45693459
H        3.31609237      -0.46847545      -0.49870287
H        0.30278775       0.43515028       1.65009384
13
Frame=10 idx=008550 GeodesicLength=0.3991138035176207 rxn_smarts="[C:1]([c:2]1[n:3][o:4][c:5]([N:6]([H:11])[H:12])[c:7]1[H:13])([H:8])([H:9])[H:10]>>[C:1]([C:2]1=[N:3][O:4]/[C:5](=[N:6]\[H:12])[C:7]1([H:11])[H:13])([H:8])([H:9])[H:10]"
C       -2.12712854       0.37367116      -0.11019261
C       -0.72708875      -0.12289536      -0.19996107
N       -0.45729832      -1.12505565      -0.96571748
O        0.93250498      -1.38856263      -0.84511535
C        1.42741172      -0.60452358       0.11633378
N        2.61356622      -0.03515464       0.08337153
C        0.42232499       0.31887055       0.58015051
H       -2.76707793      -0.17583627      -0.79871328
H       -2.51588115       0.25096949       0.90300156
H       -2.16724528       1.43652053      -0.35466576
H        1.76843301       1.09807368       0.45894613
H        3.29938566      -0.46954329      -0.51898541
H        0.29809340       0.44346602       1.65154745
13
Frame=11 idx=008550 GeodesicLength=0.439081179644618 rxn_smarts="[C:1]([c:2]1[n:3][o:4][c:5]([N:6]([H:11])[H:12])[c:7]1[H:13])([H:8])([H:9])[H:10]>>[C:1]([C:2]1=[N:3][O:4]/[C:5](=[N:6]\[H:12])[C:7]1([H:11])[H:13])([H:8])([H:9])[H:10]"
C       -2.12486928       0.37288397      -0.11142048
C       -0.72471129      -0.12338210      -0.20079109
N       -0.45273547      -1.12533594      -0.96586033
O        0.93412719      -1.38721565      -0.84195657
C        1.42841060      -0.61327650       0.13103024
N        2.61401952      -0.03932398       0.08556671
C        0.42270835       0.31652085       0.58339239
H       -2.76280155      -0.17234586      -0.80523782
H       -2.51736094       0.24384454       0.89957974
H       -2.16444780       1.43719712      -0.34978280
H        1.77148396       1.10978181       0.46072393
H        3.28253872      -0.47077368      -0.53808084
H        0.29363798       0.45142543       1.65283692
13
Frame=12 idx=008550 GeodesicLength=0.47907196824763026 rxn_smarts="[C:1]([c:2]1[n:3][o:4][c:5]([N:6]([H:11])[H:12])[c:7]1[H:13])([H:8])([H:9])[H:10]>>[C:1]([C:2]1=[N:3][O:4]/[C:5](=[N:6]\[H:12])[C:7]1([H:11])[H:13])([H:8])([H:9])[H:10]"
C       -2.12253695       0.37214848      -0.11263900
C       -0.72230537      -0.12393817      -0.20159978
N       -0.44821514      -1.12570291      -0.96597584
O        0.93564565      -1.38618533      -0.83857583
C        1.42941947      -0.62188994       0.14531231
N        2.61434830      -0.04332981       0.08740752
C        0.42314360       0.31400511       0.58665690
H       -2.75846262      -0.16870111      -0.81175146
H       -2.51877669       0.23679867       0.89610619
H       -2.16149741       1.43789568      -0.34486042
H        1.77443745       1.12173148       0.46238289
H        3.26541558      -0.47179143      -0.55654103
H        0.28938413       0.45895929       1.65407753
13
Frame=13 idx=008550 GeodesicLength=0.5192092242834725 rxn_smarts="[C:1]([c:2]1[n:3][o:4][c:5]([N:6]([H:11])[H:12])[c:7]1[H:13])([H:8])([H:9])[H:10]>>[C:1]([C:2]1=[N:3][O:4]/[C:5](=[N:6]\[H:12])[C:7]1([H:11])[H:13])([H:8])([H:9])[H:10]"
C       -2.12016401       0.37148898      -0.11388164
C       -0.71985116      -0.12455209      -0.20239783
N       -0.44367683      -1.12620011      -0.96607169
O        0.93710971      -1.38566037      -0.83481888
C        1.43050261      -0.63046157       0.15932976
N        2.61463195      -0.04729337       0.08899773
C        0.42364013       0.31134107       0.58999189
H       -2.75404643      -0.16480078      -0.81841998
H       -2.52021987       0.22974606       0.89255090
H       -2.15845203       1.43868776      -0.33982439
H        1.77732948       1.13389895       0.46394351
H        3.24789640      -0.47239012      -0.57475548
H        0.28530003       0.46619560       1.65535607
13
Frame=14 idx=008550 GeodesicLength=0.5592073479527866 rxn_smarts="[C:1]([c:2]1[n:3][o:4][c:5]([N:6]([H:11])[H:12])[c:7]1[H:13])([H:8])([H:9])[H:10]>>[C:1]([C:2]1=[N:3][O:4]/[C:5](=[N:6]\[H:12])[C:7]1([H:11])[H:13])([H:8])([H:9])[H:10]"
C       -2.11764091       0.37079243      -0.11506103
C       -0.71733785      -0.12515088      -0.20322744
N       -0.43918517      -1.12657807      -0.96621238
O        0.93835886      -1.38540824      -0.83076559
C        1.43147303      -0.63883224       0.17300609
N        2.61468008      -0.05107253       0.09025888
C        0.42419179       0.30860455       0.59322166
H       -2.74943166      -0.16067552      -0.82512210
H       -2.52152830       0.22238664       0.88887679
H       -2.15519139       1.43942667      -0.33440100
H        1.78013809       1.14635509       0.46521151
H        3.23009394      -0.47308164      -0.59213200
H        0.28137948       0.47323376       1.65634662
13
Frame=15 idx=008550 GeodesicLength=0.5993273556845329 rxn_smarts="[C:1]([c:2]1[n:3][o:4][c:5]([N:6]([H:11])[H:12])[c:7]1[H:13])([H:8])([H:9])[H:10]>>[C:1]([C:2]1=[N:3][O:4]/[C:5](=[N:6]\[H:12])[C:7]1([H:11])[H:13])([H:8])([H:9])[H:10]"
C       -2.11510076       0.37016092      -0.11623984
C       -0.71479888      -0.12581755      -0.20403769
N       -0.43470837      -1.12710237      -0.96631924
O        0.93957274      -1.38549195      -0.82656048
C        1.43252846      -0.64715225       0.18637799
N        2.61468044      -0.05477302       0.09126559
C        0.42479501       0.30572919       0.59649806
H       -2.74478161      -0.15634431      -0.83189387
H       -2.52285561       0.21507337       0.88515795
H       -2.15187751       1.44022771      -0.32889418
H        1.78284230       1.15907279       0.46631064
H        3.21206207      -0.47354620      -0.60903158
H        0.27764173       0.47996368       1.65736665
13
Frame=16 idx=008550 GeodesicLength=0.6394663813943247 rxn_smarts="[C:1]([c:2]1[n:3][o:4][c:5]([N:6]([H:11])[H:12])[c:7]1[H:13])([H:8])([H:9])[H:10]>>[C:1]([C:2]1=[N:3][O:4]/[C:5](=[N:6]\[H:12])[C:7]1([H:11])[H:13])([H:8])([H:9])[H:10]"
C       -2.11253414       0.36952939      -0.11734933
C       -0.71224495      -0.12648728      -0.20488303
N       -0.43027793      -1.12760840      -0.96650401
O        0.94070189      -1.38569538      -0.82238736
C        1.43357733      -0.65536192       0.19937881
N        2.61457648      -0.05838296       0.09207315
C        0.42544449       0.30278618       0.59970395
H       -2.74010949      -0.15190061      -0.83858930
H       -2.52410765       0.20768745       0.88144859
H       -2.14855256       1.44100604      -0.32320100
H        1.78544717       1.17209610       0.46708954
H        3.19399318      -0.47414651      -0.62503103
H        0.27408618       0.48647792       1.65825102
