14
Frame=0 idx=003354 GeodesicLength=0.0 rxn_smarts="[O:1]([C:2]([C@@:3]1([H:10])[C:4]([H:11])([H:12])[C@:5]1([O:6][H:14])[H:13])([H:8])[H:9])[H:7]>>[O:1]([C:2]([C:3](/[C:4](=[C:5](/[O:6][H:14])[H:13])[H:11])([H:10])[H:12])([H:8])[H:9])[H:7]"
O        1.72077897      -1.23109660      -0.25832566
C        1.19045687       0.00053468      -0.67108359
C        0.36470303       0.64882879       0.42705862
C       -1.41967586       1.15416649       0.33898893
C       -0.91477561      -0.12862976       0.81114673
O       -1.10518417      -1.33636618       0.09986924
H        0.97011759      -1.82019678      -0.12424719
H        0.58028022      -0.10193147      -1.57653763
H        2.03640427       0.64366847      -0.91767108
H        0.92135555       0.95806274       1.30720779
H       -1.61514295       1.04735097      -0.74486954
H       -0.04819872       1.68629051       0.08010862
H       -0.99242680      -0.34755775       1.87153590
H       -1.68869235      -1.17312410      -0.64318109
14
Frame=1 idx=003354 GeodesicLength=0.11179354988385115 rxn_smarts="[O:1]([C:2]([C@@:3]1([H:10])[C:4]([H:11])([H:12])[C@:5]1([O:6][H:14])[H:13])([H:8])[H:9])[H:7]>>[O:1]([C:2]([C:3](/[C:4](=[C:5](/[O:6][H:14])[H:13])[H:11])([H:10])[H:12])([H:8])[H:9])[H:7]"
O        1.72744308      -1.22365541      -0.26628117
C        1.19542214       0.00928326      -0.67458013
C        0.36558497       0.65128100       0.42406360
C       -1.39402700       1.14371841       0.31978038
C       -0.92551616      -0.13978141       0.81335313
O       -1.12915629      -1.34928086       0.11388770
H        0.97777102      -1.81378087      -0.13260001
H        0.58961375      -0.09221650      -1.58313362
H        2.04196888       0.65370105      -0.91605752
H        0.92079850       0.94313947       1.31115570
H       -1.60027170       1.03947247      -0.76074468
H       -0.03946477       1.71417897       0.09370928
H       -1.00328168      -0.34306953       1.87673458
H       -1.72688474      -1.19299004      -0.61928724
14
Frame=2 idx=003354 GeodesicLength=0.22363724952448386 rxn_smarts="[O:1]([C:2]([C@@:3]1([H:10])[C:4]([H:11])([H:12])[C@:5]1([O:6][H:14])[H:13])([H:8])[H:9])[H:7]>>[O:1]([C:2]([C:3](/[C:4](=[C:5](/[O:6][H:14])[H:13])[H:11])([H:10])[H:12])([H:8])[H:9])[H:7]"
O        1.73411950      -1.21641693      -0.27430821
C        1.20109543       0.01813366      -0.67809759
C        0.36699752       0.65377582       0.42082140
C       -1.36822017       1.13220053       0.30051401
C       -0.93624746      -0.15092512       0.81543294
O       -1.15392905      -1.36197839       0.12806545
H        0.98509556      -1.80724669      -0.14150098
H        0.60008160      -0.08191047      -1.59005333
H        2.04852296       0.66365271      -0.91385458
H        0.92024547       0.92886147       1.31457230
H       -1.58537540       1.03083838      -0.77658036
H       -0.03224335       1.74141116       0.10766310
H       -1.01387797      -0.33838166       1.88163684
H       -1.76626462      -1.21201446      -0.59431100
14
Frame=3 idx=003354 GeodesicLength=0.3355188960382962 rxn_smarts="[O:1]([C:2]([C@@:3]1([H:10])[C:4]([H:11])([H:12])[C@:5]1([O:6][H:14])[H:13])([H:8])[H:9])[H:7]>>[O:1]([C:2]([C:3](/[C:4](=[C:5](/[O:6][H:14])[H:13])[H:11])([H:10])[H:12])([H:8])[H:9])[H:7]"
O        1.74083254      -1.20939974      -0.28241821
C        1.20752081       0.02708030      -0.68163262
C        0.36897594       0.65629464       0.41733270
C       -1.34227257       1.11958630       0.28122035
C       -0.94695028      -0.16206776       0.81738112
O       -1.17956102      -1.37442230       0.14240625
H        0.99210554      -1.80060306      -0.15097049
H        0.61173916      -0.07098580      -1.59729106
H        2.05611017       0.67350613      -0.91103361
H        0.91972465       0.91525009       1.31748523
H       -1.57046260       1.02143632      -0.79234127
H       -0.02674116       1.76793538       0.12185714
H       -1.02417912      -0.33352219       1.88622627
H       -1.80684206      -1.23008830      -0.56822180
14
Frame=4 idx=003354 GeodesicLength=0.4474260041342303 rxn_smarts="[O:1]([C:2]([C@@:3]1([H:10])[C:4]([H:11])([H:12])[C@:5]1([O:6][H:14])[H:13])([H:8])[H:9])[H:7]>>[O:1]([C:2]([C:3](/[C:4](=[C:5](/[O:6][H:14])[H:13])[H:11])([H:10])[H:12])([H:8])[H:9])[H:7]"
O        1.74760848      -1.20261551      -0.29062658
C        1.21474078       0.03612180      -0.68518260
C        0.37155223       0.65882293       0.41359643
C       -1.31619346       1.10584312       0.26192315
C       -0.95760628      -0.17322218       0.81919202
O       -1.20611206      -1.38657949       0.15692029
H        0.99882030      -1.79385289      -0.16103088
H        0.62463891      -0.05941298      -1.60483966
H        2.06477125       0.68324645      -0.90756526
H        0.91926310       0.90231261       1.31992521
H       -1.55552928       1.01125023      -0.80799881
H       -0.02316563       1.79369931       0.13617918
H       -1.03415057      -0.32851969       1.89048822
H       -1.84863777      -1.24709371      -0.54098071
14
Frame=5 idx=003354 GeodesicLength=0.5593611320792716 rxn_smarts="[O:1]([C:2]([C@@:3]1([H:10])[C:4]([H:11])([H:12])[C@:5]1([O:6][H:14])[H:13])([H:8])[H:9])[H:7]>>[O:1]([C:2]([C:3](/[C:4](=[C:5](/[O:6][H:14])[H:13])[H:11])([H:10])[H:12])([H:8])[H:9])[H:7]"
O        1.75446882      -1.19607731      -0.29894902
C        1.22279099       0.04525399      -0.68874276
C        0.37475116       0.66134842       0.40961239
C       -1.28998692       1.09093165       0.24264870
C       -0.96819696      -0.18440946       0.82086778
O       -1.23365445      -1.39841137       0.17161369
H        1.00525503      -1.78699884      -0.17170272
H        0.63882548      -0.04716590      -1.61268722
H        2.07453628       0.69285801      -0.90342165
H        0.91888464       0.89006385       1.32191419
H       -1.54055274       1.00026771      -0.82352739
H       -0.02172755       1.81866208       0.15051631
H       -1.04374542      -0.32341314       1.89442089
H       -1.89164834      -1.26290968      -0.51256320
14
Frame=6 idx=003354 GeodesicLength=0.671307216982473 rxn_smarts="[O:1]([C:2]([C@@:3]1([H:10])[C:4]([H:11])([H:12])[C@:5]1([O:6][H:14])[H:13])([H:8])[H:9])[H:7]>>[O:1]([C:2]([C:3](/[C:4](=[C:5](/[O:6][H:14])[H:13])[H:11])([H:10])[H:12])([H:8])[H:9])[H:7]"
O        1.76144672      -1.18978569      -0.30740550
C        1.23170584       0.05447829      -0.69230988
C        0.37859381       0.66385923       0.40537815
C       -1.26365516       1.07481208       0.22342091
C       -0.97870366      -0.19565597       0.82240806
O       -1.26226044      -1.40987650       0.18650591
H        1.01144610      -1.78003782      -0.18300164
H        0.65434029      -0.03422040      -1.62081891
H        2.08542925       0.70233222      -0.89858095
H        0.91861174       0.87849077       1.32348309
H       -1.52551117       0.98845955      -0.83890388
H       -0.02262791       1.84276966       0.16474908
H       -1.05292813      -0.31824240       1.89801366
H       -1.93588729      -1.27738300      -0.48293811
14
Frame=7 idx=003354 GeodesicLength=0.7832418039206683 rxn_smarts="[O:1]([C:2]([C@@:3]1([H:10])[C:4]([H:11])([H:12])[C@:5]1([O:6][H:14])[H:13])([H:8])[H:9])[H:7]>>[O:1]([C:2]([C:3](/[C:4](=[C:5](/[O:6][H:14])[H:13])[H:11])([H:10])[H:12])([H:8])[H:9])[H:7]"
O        1.76857142      -1.18374146      -0.31601431
C        1.24151457       0.06379522      -0.69587861
C        0.38309748       0.66635175       0.40089150
C       -1.23719013       1.05743626       0.20426418
C       -0.98910720      -0.20699191       0.82381730
O       -1.29200821      -1.42093169       0.20160699
H        1.01742499      -1.77296440      -0.19493926
H        0.67121656      -0.02055514      -1.62921520
H        2.09746589       0.71166176      -0.89302278
H        0.91846237       0.86759303       1.32464935
H       -1.51037388       0.97579893      -0.85410490
H       -0.02606678       1.86595637       0.17876657
H       -1.06165161      -0.31305251       1.90126872
H       -1.98135549      -1.29035621      -0.45208956
14
Frame=8 idx=003354 GeodesicLength=0.8951441184902663 rxn_smarts="[O:1]([C:2]([C@@:3]1([H:10])[C:4]([H:11])([H:12])[C@:5]1([O:6][H:14])[H:13])([H:8])[H:9])[H:7]>>[O:1]([C:2]([C:3](/[C:4](=[C:5](/[O:6][H:14])[H:13])[H:11])([H:10])[H:12])([H:8])[H:9])[H:7]"
O        1.77587842      -1.17793930      -0.32480039
C        1.25224474       0.07321049      -0.69944358
C        0.38827710       0.66882303       0.39615151
C       -1.21057331       1.03875432       0.18520663
C       -0.99939001      -0.21845295       0.82509960
O       -1.32298720      -1.43152196       0.21694466
H        1.02323469      -1.76576947      -0.20752864
H        0.68948555      -0.00614323      -1.63785359
H        2.11065502       0.72084830      -0.88672530
H        0.91845360       0.85735276       1.32543163
H       -1.49510694       0.96224884      -0.86910628
H       -0.03224614       1.88813051       0.19244398
H       -1.06987298      -0.30788384       1.90418800
H       -2.02805253      -1.30165750      -0.42000824
14
Frame=9 idx=003354 GeodesicLength=1.006519681842264 rxn_smarts="[O:1]([C:2]([C@@:3]1([H:10])[C:4]([H:11])([H:12])[C@:5]1([O:6][H:14])[H:13])([H:8])[H:9])[H:7]>>[O:1]([C:2]([C:3](/[C:4](=[C:5](/[O:6][H:14])[H:13])[H:11])([H:10])[H:12])([H:8])[H:9])[H:7]"
O        1.78342535      -1.17223747      -0.33378540
C        1.26386740       0.08278200      -0.70301501
C        0.39400540       0.67137004       0.39106550
C       -1.18381280       1.01880122       0.16616221
C       -1.00962579      -0.23013967       0.82616039
O       -1.35528968      -1.44158850       0.23267043
H        1.02900478      -1.75834534      -0.22073966
H        0.70915751       0.00904386      -1.64669724
H        2.12491789       0.72993640      -0.87973109
H        0.91845385       0.84761535       1.32581404
H       -1.47976862       0.94772598      -0.88394350
H       -0.04072311       1.90904868       0.20590230
H       -1.07765144      -0.30278811       1.90665645
H       -2.07596074      -1.31122443      -0.38651944
14
Frame=10 idx=003354 GeodesicLength=1.1178631241789312 rxn_smarts="[O:1]([C:2]([C@@:3]1([H:10])[C:4]([H:11])([H:12])[C@:5]1([O:6][H:14])[H:13])([H:8])[H:9])[H:7]>>[O:1]([C:2]([C:3](/[C:4](=[C:5](/[O:6][H:14])[H:13])[H:11])([H:10])[H:12])([H:8])[H:9])[H:7]"
O        1.79123117      -1.16673761      -0.34299908
C        1.27645179       0.09246941      -0.70656471
C        0.40042016       0.67389977       0.38572310
C       -1.15685385       0.99742747       0.14726506
C       -1.01970454      -0.24205726       0.82709828
O       -1.38901423      -1.45105131       0.24868006
H        1.03471184      -1.75075791      -0.23461703
H        0.73026336       0.02502336      -1.65571259
H        2.14032578       0.73888743      -0.87196677
H        0.91861761       0.83848953       1.32584947
H       -1.46421433       0.93222965      -0.89853604
H       -0.05231314       1.92874156       0.21875002
H       -1.08483483      -0.29784476       1.90878401
H       -2.12508681      -1.31871933      -0.35175379
14
Frame=11 idx=003354 GeodesicLength=1.229177674364884 rxn_smarts="[O:1]([C:2]([C@@:3]1([H:10])[C:4]([H:11])([H:12])[C@:5]1([O:6][H:14])[H:13])([H:8])[H:9])[H:7]>>[O:1]([C:2]([C:3](/[C:4](=[C:5](/[O:6][H:14])[H:13])[H:11])([H:10])[H:12])([H:8])[H:9])[H:7]"
O        1.79934055      -1.16141052      -0.35246100
C        1.29001450       0.10228152      -0.71008208
C        0.40751983       0.67641767       0.38012000
C       -1.12966020       0.97456926       0.12854515
C       -1.02960357      -0.25426764       0.82791944
O       -1.42426238      -1.45981989       0.26498396
H        1.04042151      -1.74298000      -0.24915545
H        0.75281534       0.04180704      -1.66485587
H        2.15686691       0.74770144      -0.86342594
H        0.91895564       0.82995925       1.32555166
H       -1.44839611       0.91572089      -0.91285459
H       -0.06722275       1.94708350       0.23084148
H       -1.09136147      -0.29315187       1.91056823
H       -2.17542778      -1.32391065      -0.31569500
14
Frame=12 idx=003354 GeodesicLength=1.3404984555564936 rxn_smarts="[O:1]([C:2]([C@@:3]1([H:10])[C:4]([H:11])([H:12])[C@:5]1([O:6][H:14])[H:13])([H:8])[H:9])[H:7]>>[O:1]([C:2]([C:3](/[C:4](=[C:5](/[O:6][H:14])[H:13])[H:11])([H:10])[H:12])([H:8])[H:9])[H:7]"
O        1.80781194      -1.15622174      -0.36219649
C        1.30457511       0.11223051      -0.71355304
C        0.41530867       0.67892472       0.37425997
C       -1.10217966       0.95015276       0.11003742
C       -1.03929731      -0.26684129       0.82862801
O       -1.46115231      -1.46778960       0.28159505
H        1.04621657      -1.73498149      -0.26434707
H        0.77682271       0.05940985      -1.67407580
H        2.17452510       0.75639353      -0.85410306
H        0.91948389       0.82199784       1.32493948
H       -1.43226047       0.89815560      -0.92685995
H       -0.08569298       1.96391351       0.24199289
H       -1.09716648      -0.28881766       1.91200697
H       -2.22699479      -1.32652654      -0.27832437
14
Frame=13 idx=003354 GeodesicLength=1.4518676080371673 rxn_smarts="[O:1]([C:2]([C@@:3]1([H:10])[C:4]([H:11])([H:12])[C@:5]1([O:6][H:14])[H:13])([H:8])[H:9])[H:7]>>[O:1]([C:2]([C:3](/[C:4](=[C:5](/[O:6][H:14])[H:13])[H:11])([H:10])[H:12])([H:8])[H:9])[H:7]"
O        1.81671686      -1.15112649      -0.37222041
C        1.32014999       0.12233120      -0.71696307
C        0.42378777       0.68143474       0.36814264
C       -1.07433375       0.92408787       0.09177947
C       -1.04876286      -0.27985463       0.82921857
O       -1.49980417      -1.47483699       0.29849935
H        1.05219837      -1.72672961      -0.28016352
H        0.80228579       0.07783213      -1.68331764
H        2.19327563       0.76498928      -0.84399712
H        0.92021295       0.81458300       1.32402077
H       -1.41576610       0.87950755      -0.94049926
H       -0.10798238       1.97900699       0.25201419
H       -1.10216644      -0.28496967       1.91309938
H       -2.27981165      -1.32625536      -0.23961336
14
Frame=14 idx=003354 GeodesicLength=1.5632814757686646 rxn_smarts="[O:1]([C:2]([C@@:3]1([H:10])[C:4]([H:11])([H:12])[C@:5]1([O:6][H:14])[H:13])([H:8])[H:9])[H:7]>>[O:1]([C:2]([C:3](/[C:4](=[C:5](/[O:6][H:14])[H:13])[H:11])([H:10])[H:12])([H:8])[H:9])[H:7]"
O        1.82614350      -1.14606396      -0.38255438
C        1.33674492       0.13260607      -0.72029870
C        0.43294760       0.68395073       0.36177467
C       -1.04607560       0.89628961       0.07381493
C       -1.05797825      -0.29340557       0.82968343
O       -1.54035874      -1.48080825       0.31570531
H        1.05849474      -1.71819065      -0.29657135
H        0.82918157       0.09707501      -1.69252023
H        2.21307011       0.77353421      -0.83312002
H        0.92114730       0.80766779       1.32281295
H       -1.39886391       0.85971121      -0.95371931
H       -0.13429411       1.99212487       0.26069759
H       -1.10629285      -0.28175091       1.91383359
H       -2.33386629      -1.32274015      -0.19953848
14
Frame=15 idx=003354 GeodesicLength=1.6747601254788727 rxn_smarts="[O:1]([C:2]([C@@:3]1([H:10])[C:4]([H:11])([H:12])[C@:5]1([O:6][H:14])[H:13])([H:8])[H:9])[H:7]>>[O:1]([C:2]([C:3](/[C:4](=[C:5](/[O:6][H:14])[H:13])[H:11])([H:10])[H:12])([H:8])[H:9])[H:7]"
O        1.83619645      -1.14096239      -0.39320562
C        1.35436333       0.14308078      -0.72354450
C        0.44277212       0.68648458       0.35515794
C       -1.01733123       0.86665361       0.05618967
C       -1.06691998      -0.30760757       0.83000685
O       -1.58296545      -1.48551994       0.33319370
H        1.06525420      -1.70932911      -0.31351371
H        0.85747807       0.11712552      -1.70161841
H        2.23385189       0.78209292      -0.82149406
H        0.92228384       0.80121319       1.32132148
H       -1.38151464       0.83871043      -0.96645289
H       -0.16485594       2.00295977       0.26782413
H       -1.10945230      -0.27934015       1.91419945
H       -2.38916036      -1.31556165      -0.15806405
14
Frame=16 idx=003354 GeodesicLength=1.7863404355167878 rxn_smarts="[O:1]([C:2]([C@@:3]1([H:10])[C:4]([H:11])([H:12])[C@:5]1([O:6][H:14])[H:13])([H:8])[H:9])[H:7]>>[O:1]([C:2]([C:3](/[C:4](=[C:5](/[O:6][H:14])[H:13])[H:11])([H:10])[H:12])([H:8])[H:9])[H:7]"
O        1.84700874      -1.13572788      -0.40417395
C        1.37301066       0.15379260      -0.72668322
C        0.45323116       0.68904657       0.34828718
C       -0.98802123       0.83505408       0.03894491
C       -1.07556136      -0.32260943       0.83015594
O       -1.62778727      -1.48875274       0.35092360
H        1.07266278      -1.70010194      -0.33091981
H        0.88714396       0.13797092      -1.71054659
H        2.25555611       0.79075525      -0.80913983
H        0.92360760       0.79517128       1.31954787
H       -1.36367823       0.81642258      -0.97863308
H       -0.19989958       2.01114603       0.27315500
H       -1.11153983      -0.27796793       1.91416709
H       -2.44573351      -1.30419939      -0.11508512
