12
Frame=0 idx=011818 GeodesicLength=0.0 rxn_smarts="[O:1]([C@@:2]([C:3]([C:4]#[N:5])([H:10])[H:11])([C:6]#[C:7][H:12])[H:9])[H:8]>>[O:1](/[C:2]([C:3]([C:4]#[N:5])([H:10])[H:11])=[C:6](\[C:7][H:12])[H:9])[H:8]"
O        0.23955798       0.45586728      -1.80606831
C        0.10221882       0.11699802      -0.51843547
C       -1.30281602      -0.36529361      -0.26019174
C       -1.60641924      -0.60971405       1.14342189
N       -1.87495810      -0.79572966       2.24142265
C        1.11091529       0.25658225       0.40620032
C        2.31722837       0.50019102       0.83540562
H        1.16725284       0.65270438      -1.97969250
H        0.24406874       1.02992160       0.74140901
H       -2.02916566       0.34267676      -0.66754266
H       -1.42684957      -1.29751807      -0.81907258
H        3.05896650      -0.28668587       0.68314372
12
Frame=1 idx=011818 GeodesicLength=0.04603061906719485 rxn_smarts="[O:1]([C@@:2]([C:3]([C:4]#[N:5])([H:10])[H:11])([C:6]#[C:7][H:12])[H:9])[H:8]>>[O:1](/[C:2]([C:3]([C:4]#[N:5])([H:10])[H:11])=[C:6](\[C:7][H:12])[H:9])[H:8]"
O        0.24947246       0.45570674      -1.79600601
C        0.09622850       0.13657106      -0.50453772
C       -1.30227615      -0.37003570      -0.25959129
C       -1.62170140      -0.60426686       1.14225938
N       -1.89959192      -0.77842848       2.23990514
C        1.10666744       0.25178439       0.42429340
C        2.32232910       0.48054649       0.83191115
H        1.17782619       0.65917217      -1.95943724
H        0.23339467       1.03837111       0.75363860
H       -2.03292994       0.32323547      -0.68408735
H       -1.40360513      -1.30973246      -0.81022603
H        3.07418617      -0.28292392       0.62187796
12
Frame=2 idx=011818 GeodesicLength=0.09197158030447929 rxn_smarts="[O:1]([C@@:2]([C:3]([C:4]#[N:5])([H:10])[H:11])([C:6]#[C:7][H:12])[H:9])[H:8]>>[O:1](/[C:2]([C:3]([C:4]#[N:5])([H:10])[H:11])=[C:6](\[C:7][H:12])[H:9])[H:8]"
O        0.25905555       0.45575699      -1.78600266
C        0.09030035       0.15651550      -0.49101136
C       -1.30100176      -0.37476716      -0.25879191
C       -1.63606807      -0.59894498       1.14107279
N       -1.92334345      -0.76132444       2.23813777
C        1.10260423       0.24756788       0.44139752
C        2.32720588       0.45944984       0.82785179
H        1.18773561       0.66614565      -1.93983754
H        0.22292466       1.04738179       0.76542610
H       -2.03582294       0.30327768      -0.70026753
H       -1.37954529      -1.32158839      -0.80061431
H        3.08595523      -0.27947035       0.56263934
12
Frame=3 idx=011818 GeodesicLength=0.1378356838435136 rxn_smarts="[O:1]([C@@:2]([C:3]([C:4]#[N:5])([H:10])[H:11])([C:6]#[C:7][H:12])[H:9])[H:8]>>[O:1](/[C:2]([C:3]([C:4]#[N:5])([H:10])[H:11])=[C:6](\[C:7][H:12])[H:9])[H:8]"
O        0.26832404       0.45595716      -1.77603721
C        0.08448676       0.17652710      -0.47786815
C       -1.29907667      -0.37944281      -0.25779616
C       -1.64958730      -0.59380244       1.13985655
N       -1.94621332      -0.74459614       2.23611694
C        1.09871790       0.24386575       0.45755974
C        2.33177359       0.43708797       0.82322862
H        1.19703320       0.67349267      -1.92088100
H        0.21258721       1.05693247       0.77659795
H       -2.03779406       0.28307383      -0.71595287
H       -1.35501119      -1.33294319      -0.79036362
H        3.09475983      -0.27615238       0.50553923
12
Frame=4 idx=011818 GeodesicLength=0.1836951105013055 rxn_smarts="[O:1]([C@@:2]([C:3]([C:4]#[N:5])([H:10])[H:11])([C:6]#[C:7][H:12])[H:9])[H:8]>>[O:1](/[C:2]([C:3]([C:4]#[N:5])([H:10])[H:11])=[C:6](\[C:7][H:12])[H:9])[H:8]"
O        0.27731504       0.45624703      -1.76610728
C        0.07884117       0.19634759      -0.46511640
C       -1.29661182      -0.38404642      -0.25661749
C       -1.66237527      -0.58885996       1.13861330
N       -1.96821341      -0.72837670       2.23387623
C        1.09502097       0.24065140       0.47285249
C        2.33601049       0.41360473       0.81808239
H        1.20579544       0.68115986      -1.90254110
H        0.20231657       1.06705381       0.78702550
H       -2.03886839       0.26283265      -0.73106107
H       -1.33030866      -1.34375937      -0.77959942
H        3.10107787      -0.27285463       0.45059284
12
Frame=5 idx=011818 GeodesicLength=0.22931236237068534 rxn_smarts="[O:1]([C@@:2]([C:3]([C:4]#[N:5])([H:10])[H:11])([C:6]#[C:7][H:12])[H:9])[H:8]>>[O:1](/[C:2]([C:3]([C:4]#[N:5])([H:10])[H:11])=[C:6](\[C:7][H:12])[H:9])[H:8]"
O        0.28587219       0.45683716      -1.75620482
C        0.07336682       0.21570380      -0.45279494
C       -1.29370299      -0.38833777      -0.25529240
C       -1.67425647      -0.58428653       1.13730069
N       -1.98887113      -0.71330691       2.23139097
C        1.09144582       0.23787418       0.48732225
C        2.33967354       0.38941025       0.81244993
H        1.21415340       0.68781926      -1.88502432
H        0.19200610       1.07765206       0.79649537
H       -2.03899581       0.24323755      -0.74526456
H       -1.30597048      -1.35351532      -0.76873466
H        3.10527900      -0.26908774       0.39835649
12
Frame=6 idx=011818 GeodesicLength=0.2749167686240557 rxn_smarts="[O:1]([C@@:2]([C:3]([C:4]#[N:5])([H:10])[H:11])([C:6]#[C:7][H:12])[H:9])[H:8]>>[O:1](/[C:2]([C:3]([C:4]#[N:5])([H:10])[H:11])=[C:6](\[C:7][H:12])[H:9])[H:8]"
O        0.29411877       0.45767022      -1.74634393
C        0.06813246       0.23451979      -0.44086623
C       -1.29043539      -0.39247930      -0.25381207
C       -1.68549696      -0.57999110       1.13598286
N       -2.00864817      -0.69907458       2.22876105
C        1.08806479       0.23555697       0.50107466
C        2.34290981       0.36439741       0.80633836
H        1.22218377       0.69418545      -1.86816501
H        0.18165240       1.08880953       0.80506449
H       -2.03830119       0.22404700      -0.75873323
H       -1.28197194      -1.36260407      -0.75765681
H        3.10779165      -0.26503731       0.34835586
12
Frame=7 idx=011818 GeodesicLength=0.32051254066516693 rxn_smarts="[O:1]([C@@:2]([C:3]([C:4]#[N:5])([H:10])[H:11])([C:6]#[C:7][H:12])[H:9])[H:8]>>[O:1](/[C:2]([C:3]([C:4]#[N:5])([H:10])[H:11])=[C:6](\[C:7][H:12])[H:9])[H:8]"
O        0.30205891       0.45862901      -1.73647155
C        0.06315405       0.25269141      -0.42927138
C       -1.28674166      -0.39659828      -0.25216615
C       -1.69607257      -0.57594684       1.13465048
N       -2.02787436      -0.68513129       2.22590349
C        1.08490592       0.23359745       0.51420499
C        2.34573204       0.33842026       0.79965978
H        1.22968839       0.70100240      -1.85172978
H        0.17124420       1.10037300       0.81274818
H       -2.03678789       0.20500546      -0.77159558
H       -1.25808994      -1.37119294      -0.74623748
H        3.10878290      -0.26084963       0.30030501
12
Frame=8 idx=011818 GeodesicLength=0.3659563890546315 rxn_smarts="[O:1]([C@@:2]([C:3]([C:4]#[N:5])([H:10])[H:11])([C:6]#[C:7][H:12])[H:9])[H:8]>>[O:1](/[C:2]([C:3]([C:4]#[N:5])([H:10])[H:11])=[C:6](\[C:7][H:12])[H:9])[H:8]"
O        0.30954639       0.46002815      -1.72671043
C        0.05837856       0.27021524      -0.41812168
C       -1.28286180      -0.40032472      -0.25043098
C       -1.70590035      -0.57227800       1.13326150
N       -2.04546814      -0.67277406       2.22297802
C        1.08183973       0.23220783       0.52667096
C        2.34782972       0.31201430       0.79259532
H        1.23710086       0.70616003      -1.83611918
H        0.16059056       1.11257812       0.81928774
H       -2.03459752       0.18704947      -0.78345199
H       -1.23503357      -1.37874273      -0.73505572
H        3.10857556      -0.25613363       0.25509644
12
Frame=9 idx=011818 GeodesicLength=0.4112865696109707 rxn_smarts="[O:1]([C@@:2]([C:3]([C:4]#[N:5])([H:10])[H:11])([C:6]#[C:7][H:12])[H:9])[H:8]>>[O:1](/[C:2]([C:3]([C:4]#[N:5])([H:10])[H:11])=[C:6](\[C:7][H:12])[H:9])[H:8]"
O        0.31661798       0.46178343      -1.71712482
C        0.05381545       0.28712848      -0.40740025
C       -1.27878167      -0.40381089      -0.24861143
C       -1.71504762      -0.56895971       1.13187518
N       -2.06178098      -0.66159556       2.22005719
C        1.07894040       0.23142247       0.53855054
C        2.34933740       0.28520063       0.78503194
H        1.24431427       0.71048465      -1.82122626
H        0.14970715       1.12540340       0.82476798
H       -2.03185179       0.16983825      -0.79447102
H       -1.21258213      -1.38551955      -0.72401619
H        3.10731153      -0.25137559       0.21256716
12
Frame=10 idx=011818 GeodesicLength=0.4565638840124657 rxn_smarts="[O:1]([C@@:2]([C:3]([C:4]#[N:5])([H:10])[H:11])([C:6]#[C:7][H:12])[H:9])[H:8]>>[O:1](/[C:2]([C:3]([C:4]#[N:5])([H:10])[H:11])=[C:6](\[C:7][H:12])[H:9])[H:8]"
O        0.32338528       0.46371018      -1.70768537
C        0.04947930       0.30334644      -0.39703364
C       -1.27454709      -0.40712003      -0.24670167
C       -1.72364870      -0.56591663       1.13050430
N       -2.07717261      -0.65120889       2.21713878
C        1.07623049       0.23102405       0.54994851
C        2.35021974       0.25755783       0.77709932
H        1.25132714       0.71433819      -1.80685457
H        0.13864597       1.13867381       0.82928882
H       -2.02857247       0.15329413      -0.80479086
H       -1.19075121      -1.39167425      -0.71304439
H        3.10540415      -0.24602483       0.17213077
12
Frame=11 idx=011818 GeodesicLength=0.5017949003321138 rxn_smarts="[O:1]([C@@:2]([C:3]([C:4]#[N:5])([H:10])[H:11])([C:6]#[C:7][H:12])[H:9])[H:8]>>[O:1](/[C:2]([C:3]([C:4]#[N:5])([H:10])[H:11])=[C:6](\[C:7][H:12])[H:9])[H:8]"
O        0.32985217       0.46580824      -1.69837341
C        0.04535802       0.31892769      -0.38698671
C       -1.27012637      -0.41030697      -0.24469450
C       -1.73170680      -0.56311196       1.12915324
N       -2.09179673      -0.64138625       2.21419227
C        1.07372426       0.23099067       0.56090008
C        2.35043095       0.22893632       0.76872650
H        1.25807559       0.71799500      -1.79292209
H        0.12741442       1.15234305       0.83291620
H       -2.02478073       0.13726302      -0.81449698
H       -1.16938064      -1.39732547      -0.70205774
H        3.10293586      -0.24013332       0.13364314
12
Frame=12 idx=011818 GeodesicLength=0.5470091249994172 rxn_smarts="[O:1]([C@@:2]([C:3]([C:4]#[N:5])([H:10])[H:11])([C:6]#[C:7][H:12])[H:9])[H:8]>>[O:1](/[C:2]([C:3]([C:4]#[N:5])([H:10])[H:11])=[C:6](\[C:7][H:12])[H:9])[H:8]"
O        0.33604421       0.46803423      -1.68918844
C        0.04144604       0.33385552      -0.37721738
C       -1.26556856      -0.41339300      -0.24258732
C       -1.73929500      -0.56052443       1.12784469
N       -2.10589201      -0.63191683       2.21121698
C        1.07146454       0.23116580       0.57143874
C        2.34994676       0.19905215       0.75989627
H        1.26457585       0.72149243      -1.77938278
H        0.11608245       1.16628021       0.83575872
H       -2.02053446       0.12172603      -0.82362990
H       -1.14850632      -1.40253600      -0.69106056
H        3.10023651      -0.23323611       0.09691099
12
Frame=13 idx=011818 GeodesicLength=0.5922390518126167 rxn_smarts="[O:1]([C@@:2]([C:3]([C:4]#[N:5])([H:10])[H:11])([C:6]#[C:7][H:12])[H:9])[H:8]>>[O:1](/[C:2]([C:3]([C:4]#[N:5])([H:10])[H:11])=[C:6](\[C:7][H:12])[H:9])[H:8]"
O        0.34195349       0.47039631      -1.68012361
C        0.03773270       0.34816178      -0.36769093
C       -1.26090078      -0.41638329      -0.24036868
C       -1.74645418      -0.55811612       1.12659765
N       -2.11962693      -0.62265975       2.20819450
C        1.06948426       0.23145552       0.58156759
C        2.34870111       0.16756086       0.75053088
H        1.27084445       0.72479582      -1.76621304
H        0.10469878       1.18039615       0.83789105
H       -2.01589040       0.10664849      -0.83222087
H       -1.12810097      -1.40734261      -0.68001947
H        3.09755848      -0.22491315       0.06185493
12
Frame=14 idx=011818 GeodesicLength=0.6375115417842872 rxn_smarts="[O:1]([C@@:2]([C:3]([C:4]#[N:5])([H:10])[H:11])([C:6]#[C:7][H:12])[H:9])[H:8]>>[O:1](/[C:2]([C:3]([C:4]#[N:5])([H:10])[H:11])=[C:6](\[C:7][H:12])[H:9])[H:8]"
O        0.34751484       0.47303036      -1.67119202
C        0.03420793       0.36193868      -0.35836906
C       -1.25608237      -0.41933716      -0.23801807
C       -1.75315345      -0.55592123       1.12545838
N       -2.13326114      -0.61339615       2.20509246
C        1.06786024       0.23186269       0.59127995
C        2.34667935       0.13436123       0.74039313
H        1.27682076       0.72805282      -1.75344345
H        0.09330278       1.19464257       0.83944129
H       -2.01087971       0.09185652      -0.84031681
H       -1.10798950      -1.41183914      -0.66887786
H        3.09498028      -0.21525118       0.02855206
12
Frame=15 idx=011818 GeodesicLength=0.6827791042485832 rxn_smarts="[O:1]([C@@:2]([C:3]([C:4]#[N:5])([H:10])[H:11])([C:6]#[C:7][H:12])[H:9])[H:8]>>[O:1](/[C:2]([C:3]([C:4]#[N:5])([H:10])[H:11])=[C:6](\[C:7][H:12])[H:9])[H:8]"
O        0.35269086       0.47575486      -1.66237878
C        0.03086115       0.37504135      -0.34926385
C       -1.25126082      -0.42212303      -0.23555019
C       -1.75945685      -0.55379219       1.12438498
N       -2.14660729      -0.60411605       2.20188839
C        1.06655991       0.23194207       0.60046982
C        2.34357508       0.09860387       0.72943991
H        1.28254187       0.73066368      -1.74107049
H        0.08209018       1.20877330       0.84038453
H       -2.00555433       0.07772047      -0.84782255
H       -1.08856133      -1.41591147      -0.65772994
H        3.09312158      -0.20255685      -0.00275184
12
Frame=16 idx=011818 GeodesicLength=0.7280329261487206 rxn_smarts="[O:1]([C@@:2]([C:3]([C:4]#[N:5])([H:10])[H:11])([C:6]#[C:7][H:12])[H:9])[H:8]>>[O:1](/[C:2]([C:3]([C:4]#[N:5])([H:10])[H:11])=[C:6](\[C:7][H:12])[H:9])[H:8]"
O        0.35734001       0.47875930      -1.65387341
C        0.02766799       0.38759090      -0.34044442
C       -1.24652410      -0.42468588      -0.23299856
C       -1.76532676      -0.55182602       1.12346832
N       -2.15949881      -0.59513475       2.19876651
C        1.06567655       0.23181250       0.60905888
C        2.33942477       0.06069347       0.71734092
H        1.28806133       0.73226338      -1.72938867
H        0.07105151       1.22285306       0.84073636
H       -2.00014689       0.06435229      -0.85466822
H       -1.06990646      -1.41947679      -0.64678409
H        3.09218086      -0.18720147      -0.03121362
