16
Frame=0 idx=004123 GeodesicLength=0.0 rxn_smarts="[C:1]([O:2][C@@:3]([C:4]([H:11])([H:12])[H:13])([C:5]([O:6][H:16])([H:14])[H:15])[H:10])([H:7])([H:8])[H:9]>>[C:1]([O:2][H:16])([H:7])([H:8])[H:9].[C:3]([C:4]([H:11])([H:12])[H:13])([C:5](=[O:6])[H:15])([H:10])[H:14]"
C        1.88136081       1.28189170       0.11603545
O        0.72954689       0.79623497       0.76694191
C       -0.51767609      -0.50215282      -0.38379708
C       -0.33617536      -1.89843897       0.06272734
C       -1.65615838       0.31344509      -0.03305335
O       -1.50925097       1.60257104      -0.08593621
H        2.68529740       0.55524762       0.24332896
H        1.71069419       1.44062764      -0.95577118
H        2.19907258       2.23325046       0.55200933
H        0.05675828      -0.13661246      -1.22858951
H        0.48420631      -1.88935977       0.78573335
H       -0.05809683      -2.56928161      -0.74941332
H       -1.22527838      -2.26613729       0.57621158
H       -2.11387617      -0.24164939      -0.98854317
H       -2.27078710      -0.12654239       0.77795799
H       -0.05963725       1.40690622       0.54415798
16
Frame=1 idx=004123 GeodesicLength=0.09465826390529294 rxn_smarts="[C:1]([O:2][C@@:3]([C:4]([H:11])([H:12])[H:13])([C:5]([O:6][H:16])([H:14])[H:15])[H:10])([H:7])([H:8])[H:9]>>[C:1]([O:2][H:16])([H:7])([H:8])[H:9].[C:3]([C:4]([H:11])([H:12])[H:13])([C:5](=[O:6])[H:15])([H:10])[H:14]"
C        1.89012658       1.28545443       0.11568521
O        0.73016670       0.80321594       0.75373728
C       -0.51989704      -0.50077323      -0.38242849
C       -0.33982339      -1.89871573       0.06601042
C       -1.66488098       0.31067963      -0.02993339
O       -1.51550998       1.60053739      -0.06729361
H        2.69059197       0.55518275       0.24526336
H        1.72919971       1.44968597      -0.95683811
H        2.20895933       2.23285279       0.55926699
H        0.05523453      -0.13698817      -1.22773793
H        0.49650077      -1.89998463       0.77016552
H       -0.08873749      -2.57236275      -0.75272748
H       -1.21905852      -2.26251123       0.59902988
H       -2.09147081      -0.25892603      -1.00601544
H       -2.28634823      -0.13356652       0.77282856
H       -0.07505316       1.42621938       0.54098723
16
Frame=2 idx=004123 GeodesicLength=0.18922131195303815 rxn_smarts="[C:1]([O:2][C@@:3]([C:4]([H:11])([H:12])[H:13])([C:5]([O:6][H:16])([H:14])[H:15])[H:10])([H:7])([H:8])[H:9]>>[C:1]([O:2][H:16])([H:7])([H:8])[H:9].[C:3]([C:4]([H:11])([H:12])[H:13])([C:5](=[O:6])[H:15])([H:10])[H:14]"
C        1.89888338       1.28886556       0.11539713
O        0.73070062       0.81021183       0.74019999
C       -0.52204866      -0.49933826      -0.38129680
C       -0.34329517      -1.89889792       0.06920060
C       -1.67363917       0.30784538      -0.02713466
O       -1.52204434       1.59830002      -0.04916170
H        2.69571138       0.55481985       0.24722167
H        1.74796173       1.45886612      -0.95772061
H        2.21876054       2.23211455       0.56687594
H        0.05375088      -0.13738896      -1.22717359
H        0.50835510      -1.91070346       0.75422774
H       -0.11927253      -2.57517539      -0.75535218
H       -1.21233904      -2.25869747       0.62143886
H       -2.06935172      -0.27624265      -1.02256807
H       -2.30118001      -0.14032249       0.76804432
H       -0.09095299       1.44574329       0.53780138
16
Frame=3 idx=004123 GeodesicLength=0.2837210578706271 rxn_smarts="[C:1]([O:2][C@@:3]([C:4]([H:11])([H:12])[H:13])([C:5]([O:6][H:16])([H:14])[H:15])[H:10])([H:7])([H:8])[H:9]>>[C:1]([O:2][H:16])([H:7])([H:8])[H:9].[C:3]([C:4]([H:11])([H:12])[H:13])([C:5](=[O:6])[H:15])([H:10])[H:14]"
C        1.90764400       1.29212302       0.11515649
O        0.73117633       0.81721934       0.72631106
C       -0.52414004      -0.49784378      -0.38039090
C       -0.34659225      -1.89898267       0.07230232
C       -1.68242298       0.30495288      -0.02461411
O       -1.52884259       1.59586785      -0.03148298
H        2.70067842       0.55417599       0.24920197
H        1.76699911       1.46814332      -0.95842607
H        2.22846156       2.23104188       0.57480333
H        0.05228753      -0.13781058      -1.22689199
H        0.51974593      -1.92151153       0.73796187
H       -0.14965764      -2.57771194      -0.75728937
H       -1.20514165      -2.25470749       0.64341648
H       -2.04751284      -0.29359702      -1.03827869
H       -2.31534194      -0.14684973       0.76359825
H       -0.10734095       1.46549047       0.53462235
16
Frame=4 idx=004123 GeodesicLength=0.3781584551471952 rxn_smarts="[C:1]([O:2][C@@:3]([C:4]([H:11])([H:12])[H:13])([C:5]([O:6][H:16])([H:14])[H:15])[H:10])([H:7])([H:8])[H:9]>>[C:1]([O:2][H:16])([H:7])([H:8])[H:9].[C:3]([C:4]([H:11])([H:12])[H:13])([C:5](=[O:6])[H:15])([H:10])[H:14]"
C        1.91641947       1.29522307       0.11494697
O        0.73161490       0.82424228       0.71204660
C       -0.52618193      -0.49628457      -0.37970333
C       -0.34971398      -1.89896540       0.07531620
C       -1.69122455       0.30201202      -0.02232726
O       -1.53589045       1.59324755      -0.01419449
H        2.70551187       0.55326461       0.25121440
H        1.78633867       1.47747998      -0.95896576
H        2.23804582       2.22964328       0.58300906
H        0.05082152      -0.13824644      -1.22689331
H        0.53064030      -1.93239751       0.72141923
H       -0.17982534      -2.57996172      -0.75854039
H       -1.19749511      -2.25055939       0.66492471
H       -2.02595184      -0.31097980      -1.05321063
H       -2.32888525      -0.15318568       0.75949017
H       -0.12422409       1.48546769       0.53146785
16
Frame=5 idx=004123 GeodesicLength=0.4725069963378199 rxn_smarts="[C:1]([O:2][C@@:3]([C:4]([H:11])([H:12])[H:13])([C:5]([O:6][H:16])([H:14])[H:15])[H:10])([H:7])([H:8])[H:9]>>[C:1]([O:2][H:16])([H:7])([H:8])[H:9].[C:3]([C:4]([H:11])([H:12])[H:13])([C:5](=[O:6])[H:15])([H:10])[H:14]"
C        1.92521496       1.29815907       0.11476420
O        0.73202487       0.83128860       0.69738418
C       -0.52818407      -0.49465630      -0.37923387
C       -0.35265399      -1.89884063       0.07823987
C       -1.70003991       0.29902689      -0.02024261
O       -1.54317996       1.59044907       0.00273521
H        2.71021558       0.55209033       0.25328682
H        1.80601133       1.48683965      -0.95933993
H        2.24749429       2.22791863       0.59146629
H        0.04933399      -0.13869132      -1.22718192
H        0.54105821      -1.94334902       0.70460744
H       -0.20976481      -2.58193040      -0.75912080
H       -1.18939832      -2.24625114       0.68597421
H       -2.00466620      -0.32838285      -1.06741644
H       -2.34184858      -0.15935652       0.75572302
H       -0.14161738       1.50568592       0.52835431
16
Frame=6 idx=004123 GeodesicLength=0.5668098177810792 rxn_smarts="[C:1]([O:2][C@@:3]([C:4]([H:11])([H:12])[H:13])([C:5]([O:6][H:16])([H:14])[H:15])[H:10])([H:7])([H:8])[H:9]>>[C:1]([O:2][H:16])([H:7])([H:8])[H:9].[C:3]([C:4]([H:11])([H:12])[H:13])([C:5](=[O:6])[H:15])([H:10])[H:14]"
C        1.93403826       1.30092057       0.11459670
O        0.73242066       0.83836364       0.68230145
C       -0.53015717      -0.49295246      -0.37897590
C       -0.35540912      -1.89860205       0.08107460
C       -1.70886432       0.29600512      -0.01831742
O       -1.55070613       1.58748088       0.01934989
H        2.71479500       0.55064733       0.25542366
H        1.82603888       1.49619169      -0.95955146
H        2.25679771       2.22586276       0.60014935
H        0.04780255      -0.13913708      -1.22775747
H        0.55098726      -1.95435254       0.68756693
H       -0.23941565      -2.58360860      -0.75903778
H       -1.18086818      -2.24179773       0.70654217
H       -1.98364830      -0.34580173      -1.08095648
H       -2.35427355      -0.16539369       0.75230251
H       -0.15953790       1.52617392       0.52528925
16
Frame=7 idx=004123 GeodesicLength=0.6610787956768835 rxn_smarts="[C:1]([O:2][C@@:3]([C:4]([H:11])([H:12])[H:13])([C:5]([O:6][H:16])([H:14])[H:15])[H:10])([H:7])([H:8])[H:9]>>[C:1]([O:2][H:16])([H:7])([H:8])[H:9].[C:3]([C:4]([H:11])([H:12])[H:13])([C:5](=[O:6])[H:15])([H:10])[H:14]"
C        1.94289316       1.30349576       0.11443677
O        0.73280933       0.84547697       0.66677522
C       -0.53210968      -0.49116746      -0.37892484
C       -0.35797207      -1.89824329       0.08382086
C       -1.71769511       0.29294951      -0.01651623
O       -1.55846624       1.58434483       0.03568716
H        2.71924750       0.54892429       0.25763628
H        1.84644508       1.50550327      -0.95960149
H        2.26594615       2.22346795       0.60903811
H        0.04620781      -0.13957680      -1.22862211
H        0.56042269      -1.96539263       0.67032925
H       -0.26872395      -2.58499359      -0.75829922
H       -1.17191596      -2.23721224       0.72660562
H       -1.96289260      -0.36322122      -1.09387083
H       -2.36618575      -0.17131881       0.74923756
H       -0.17801037       1.54696346       0.52226789
16
Frame=8 idx=004123 GeodesicLength=0.7553232185150813 rxn_smarts="[C:1]([O:2][C@@:3]([C:4]([H:11])([H:12])[H:13])([C:5]([O:6][H:16])([H:14])[H:15])[H:10])([H:7])([H:8])[H:9]>>[C:1]([O:2][H:16])([H:7])([H:8])[H:9].[C:3]([C:4]([H:11])([H:12])[H:13])([C:5](=[O:6])[H:15])([H:10])[H:14]"
C        1.95178099       1.30586814       0.11428062
O        0.73319139       0.85264188       0.65078169
C       -0.53405204      -0.48929327      -0.37908198
C       -0.36032957      -1.89775375       0.08647643
C       -1.72653072       0.28986292      -0.01480546
O       -1.56646434       1.58105096       0.05176447
H        2.72355822       0.54689395       0.25992852
H        1.86725180       1.51475066      -0.95948248
H        2.27493763       2.22071123       0.61812896
H        0.04452875      -0.14000012      -1.22978247
H        0.56938135      -1.97644782       0.65290825
H       -0.29765245      -2.58608504      -0.75691191
H       -1.16253600      -2.23249482       0.74616989
H       -1.94239010      -0.38063906      -1.10620462
H       -2.37761042      -0.17715456       0.74653981
H       -0.19706451       1.56808871       0.51929027
16
Frame=9 idx=004123 GeodesicLength=0.8495662638314793 rxn_smarts="[C:1]([O:2][C@@:3]([C:4]([H:11])([H:12])[H:13])([C:5]([O:6][H:16])([H:14])[H:15])[H:10])([H:7])([H:8])[H:9]>>[C:1]([O:2][H:16])([H:7])([H:8])[H:9].[C:3]([C:4]([H:11])([H:12])[H:13])([C:5](=[O:6])[H:15])([H:10])[H:14]"
C        1.96069947       1.30800357       0.11413314
O        0.73356001       0.85987357       0.63429562
C       -0.53599530      -0.48732432      -0.37944671
C       -0.36245365      -1.89712103       0.08904129
C       -1.73537986       0.28673250      -0.01314858
O       -1.57471984       1.57761951       0.06756967
H        2.72769411       0.54450651       0.26232519
H        1.88848181       1.52386593      -0.95917798
H        2.28376328       2.21756374       0.62741813
H        0.04273993      -0.14039625      -1.23124664
H        0.57790760      -1.98747031       0.63530793
H       -0.32614314      -2.58686862      -0.75490198
H       -1.15272725      -2.22765170       0.76521305
H       -1.92214022      -0.39804135      -1.11795574
H       -2.38853475      -0.18290935       0.74424464
H       -0.21675220       1.58961761       0.51632896
16
Frame=10 idx=004123 GeodesicLength=0.9437900426856956 rxn_smarts="[C:1]([O:2][C@@:3]([C:4]([H:11])([H:12])[H:13])([C:5]([O:6][H:16])([H:14])[H:15])[H:10])([H:7])([H:8])[H:9]>>[C:1]([O:2][H:16])([H:7])([H:8])[H:9].[C:3]([C:4]([H:11])([H:12])[H:13])([C:5](=[O:6])[H:15])([H:10])[H:14]"
C        1.96964746       1.30989176       0.11399618
O        0.73391117       0.86719264       0.61728675
C       -0.53795053      -0.48524677      -0.38002837
C       -0.36433796      -1.89633280       0.09150012
C       -1.74423145       0.28357403      -0.01150421
O       -1.58322228       1.57404858       0.08314903
H        2.73164201       0.54175171       0.26487557
H        1.91018362       1.53281337      -0.95868270
H        2.29240565       2.21401896       0.63688446
H        0.04081643      -0.14074736      -1.23302868
H        0.58601309      -1.99845464       0.61752937
H       -0.35419062      -2.58735210      -0.75228641
H       -1.14245606      -2.22267650       0.78376860
H       -1.90214695      -0.41543742      -1.12919028
H       -2.39899448      -0.18861451       0.74237253
H       -0.23708909       1.61157106       0.51335804
16
Frame=11 idx=004123 GeodesicLength=1.0379846795820575 rxn_smarts="[C:1]([O:2][C@@:3]([C:4]([H:11])([H:12])[H:13])([C:5]([O:6][H:16])([H:14])[H:15])[H:10])([H:7])([H:8])[H:9]>>[C:1]([O:2][H:16])([H:7])([H:8])[H:9].[C:3]([C:4]([H:11])([H:12])[H:13])([C:5](=[O:6])[H:15])([H:10])[H:14]"
C        1.97861920       1.31150145       0.11387685
O        0.73423102       0.87462707       0.59972182
C       -0.53992981      -0.48304829      -0.38083383
C       -0.36595808      -1.89537300       0.09384293
C       -1.75308739       0.28038632      -0.00982647
O       -1.59197625       1.57034153       0.09852168
H        2.73536278       0.53858360       0.26763234
H        1.93239994       1.54152771      -0.95798303
H        2.30085145       2.21005013       0.64651732
H        0.03872765      -0.14103408      -1.23514566
H        0.59372714      -2.00935886       0.59957617
H       -0.38174230      -2.58752701      -0.74909133
H       -1.13170135      -2.21757378       0.80182835
H       -1.88242113      -0.43282302      -1.13992701
H       -2.40898683      -0.19428523       0.74097092
H       -0.25811603       1.63400545       0.51031894
16
Frame=12 idx=004123 GeodesicLength=1.1321634562139373 rxn_smarts="[C:1]([O:2][C@@:3]([C:4]([H:11])([H:12])[H:13])([C:5]([O:6][H:16])([H:14])[H:15])[H:10])([H:7])([H:8])[H:9]>>[C:1]([O:2][H:16])([H:7])([H:8])[H:9].[C:3]([C:4]([H:11])([H:12])[H:13])([C:5](=[O:6])[H:15])([H:10])[H:14]"
C        1.98760565       1.31279709       0.11378748
O        0.73450429       0.88220168       0.58156726
C       -0.54194843      -0.48071415      -0.38187175
C       -0.36728578      -1.89422290       0.09605512
C       -1.76194804       0.27717027      -0.00806314
O       -1.60099744       1.56650868       0.11369914
H        2.73880955       0.53494990       0.27065910
H        1.95518035       1.54992785      -0.95705831
H        2.30908216       2.20562752       0.65631096
H        0.03643642      -0.14123232      -1.23761590
H        0.60109817      -2.02014173       0.58143024
H       -0.40876043      -2.58738661      -0.74534541
H       -1.12042591      -2.21234022       0.81939916
H       -1.86296840      -0.45019976      -1.15018833
H       -2.41850471      -0.19994223       0.74009789
H       -0.27987746       1.65699693       0.50713648
16
Frame=13 idx=004123 GeodesicLength=1.2263181106125656 rxn_smarts="[C:1]([O:2][C@@:3]([C:4]([H:11])([H:12])[H:13])([C:5]([O:6][H:16])([H:14])[H:15])[H:10])([H:7])([H:8])[H:9]>>[C:1]([O:2][H:16])([H:7])([H:8])[H:9].[C:3]([C:4]([H:11])([H:12])[H:13])([C:5](=[O:6])[H:15])([H:10])[H:14]"
C        1.99659451       1.31373574       0.11374394
O        0.73470971       0.88994621       0.56278543
C       -0.54402055      -0.47822791      -0.38315282
C       -0.36828875      -1.89286276       0.09811896
C       -1.77081584       0.27392171      -0.00616203
O       -1.61029587       1.56255896       0.12869459
H        2.74192392       0.53078574       0.27402572
H        1.97857640       1.55793094      -0.95588252
H        2.31707844       2.20071552       0.66626439
H        0.03390413      -0.14131503      -1.24046287
H        0.60817340      -2.03075481       0.56307689
H       -0.43519328      -2.58691989      -0.74107681
H       -1.10858450      -2.20697616       0.83647712
H       -1.84380593      -0.46756306      -1.15997911
H       -2.42752596      -0.20559841       0.73982306
H       -0.30242985       1.68062319       0.50370605
16
Frame=14 idx=004123 GeodesicLength=1.3204364467715382 rxn_smarts="[C:1]([O:2][C@@:3]([C:4]([H:11])([H:12])[H:13])([C:5]([O:6][H:16])([H:14])[H:15])[H:10])([H:7])([H:8])[H:9]>>[C:1]([O:2][H:16])([H:7])([H:8])[H:9].[C:3]([C:4]([H:11])([H:12])[H:13])([C:5](=[O:6])[H:15])([H:10])[H:14]"
C        2.00556979       1.31426591       0.11377109
O        0.73482106       0.89789826       0.54333839
C       -0.54616484      -0.47556889      -0.38469148
C       -0.36892306      -1.89126475       0.10001383
C       -1.77969345       0.27063775      -0.00406132
O       -1.61989867       1.55850904       0.14351383
H        2.74463062       0.52601157       0.27781686
H        2.00264502       1.56542771      -0.95441914
H        2.32481900       2.19526895       0.67638364
H        0.03108398      -0.14124593      -1.24371231
H        0.61502288      -2.04114305       0.54446781
H       -0.46100279      -2.58611993      -0.73631370
H       -1.09610525      -2.20146907       0.85307493
H       -1.82494863      -0.48491489      -1.16931122
H       -2.43602311      -0.21127451       0.74023153
H       -0.32583254       1.70498185       0.49989727
16
Frame=15 idx=004123 GeodesicLength=1.4144977857932386 rxn_smarts="[C:1]([O:2][C@@:3]([C:4]([H:11])([H:12])[H:13])([C:5]([O:6][H:16])([H:14])[H:15])[H:10])([H:7])([H:8])[H:9]>>[C:1]([O:2][H:16])([H:7])([H:8])[H:9].[C:3]([C:4]([H:11])([H:12])[H:13])([C:5](=[O:6])[H:15])([H:10])[H:14]"
C        2.01451005       1.31433134       0.11389811
O        0.73481117       0.90609306       0.52318691
C       -0.54839639      -0.47271542      -0.38650195
C       -0.36914146      -1.88940260       0.10171369
C       -1.78858201       0.26730995      -0.00169559
O       -1.62982187       1.55438166       0.15816190
H        2.74684320       0.52054022       0.28212016
H        2.02743999       1.57230945      -0.95262279
H        2.33227762       2.18923856       0.68668070
H        0.02792766      -0.14098776      -1.24739365
H        0.62171359      -2.05124937       0.52556124
H       -0.48613761      -2.58497651      -0.73108220
H       -1.08291360      -2.19581524       0.86918664
H       -1.80642346      -0.50225024      -1.17817980
H       -2.44395083      -0.21698520       0.74142722
H       -0.35015605       1.73017808       0.49553941
16
Frame=16 idx=004123 GeodesicLength=1.5084725214979398 rxn_smarts="[C:1]([O:2][C@@:3]([C:4]([H:11])([H:12])[H:13])([C:5]([O:6][H:16])([H:14])[H:15])[H:10])([H:7])([H:8])[H:9]>>[C:1]([O:2][H:16])([H:7])([H:8])[H:9].[C:3]([C:4]([H:11])([H:12])[H:13])([C:5](=[O:6])[H:15])([H:10])[H:14]"
C        2.02338776       1.31386222       0.11416671
O        0.73464355       0.91457411       0.50228636
C       -0.55073706      -0.46964132      -0.38860499
C       -0.36888605      -1.88724349       0.10318347
C       -1.79748506       0.26392794       0.00101283
O       -1.64008999       1.55020108       0.17265324
H        2.74845448       0.51427038       0.28706730
H        2.05303262       1.57842229      -0.95043738
H        2.33941536       2.18257479       0.69716630
H        0.02437399      -0.14049104      -1.25154450
H        0.62833610      -2.06100822       0.50627072
H       -0.51055612      -2.58347662      -0.72541126
H       -1.06889653      -2.18999764       0.88482212
H       -1.78826342      -0.51956197      -1.18657532
H       -2.45124762      -0.22274635       0.74353770
H       -0.37548200       1.75633385       0.49040669
