14
Frame=0 idx=001817 GeodesicLength=0.0 rxn_smarts="[O:1]([C:2]([C:3]([C:4]([C:5]#[C:6][H:14])([H:12])[H:13])([H:10])[H:11])([H:8])[H:9])[H:7]>>[O:1]1[C:2]([H:8])([H:9])[C:3]([H:10])([H:11])[C:4]([H:12])([H:13])[C:5]1=[C:6]([H:7])[H:14]"
O       -0.40983913       1.12790237       0.62241578
C       -1.32048517       0.34256656      -0.15957649
C       -0.78998986      -1.09005543       0.00438637
C        0.72177392      -0.94990449       0.31803624
C        1.00924304       0.50689193       0.20010058
C        1.62455812       1.53302499      -0.29343858
H        0.12601400       1.96390884       0.12897946
H       -1.26363709       0.67539509      -1.19953180
H       -2.33106861       0.48139824       0.22087363
H       -0.97257027      -1.66779841      -0.90147803
H       -1.30024546      -1.59322056       0.82542566
H        0.93671558      -1.31015160       1.32519980
H        1.34742378      -1.50643288      -0.37832535
H        2.62210716       1.48647533      -0.71306730
14
Frame=1 idx=001817 GeodesicLength=0.10986175931400519 rxn_smarts="[O:1]([C:2]([C:3]([C:4]([C:5]#[C:6][H:14])([H:12])[H:13])([H:10])[H:11])([H:8])[H:9])[H:7]>>[O:1]1[C:2]([H:8])([H:9])[C:3]([H:10])([H:11])[C:4]([H:12])([H:13])[C:5]1=[C:6]([H:7])[H:14]"
O       -0.43464243       1.13613117       0.61802096
C       -1.32243985       0.33728636      -0.17457844
C       -0.79541036      -1.09000503       0.02774166
C        0.72392918      -0.95428957       0.29411146
C        1.01212532       0.50287889       0.19605966
C        1.63707109       1.53436792      -0.26909058
H        0.12199448       1.98944210       0.14059970
H       -1.24324330       0.66108530      -1.21621348
H       -2.34623158       0.47663861       0.16870507
H       -1.01033253      -1.70076098      -0.84880647
H       -1.28354972      -1.56186269       0.88057566
H        0.97480001      -1.33266430       1.28608654
H        1.32311592      -1.49880529      -0.43471321
H        2.64281376       1.50055752      -0.66849854
14
Frame=2 idx=001817 GeodesicLength=0.21964539833180385 rxn_smarts="[O:1]([C:2]([C:3]([C:4]([C:5]#[C:6][H:14])([H:12])[H:13])([H:10])[H:11])([H:8])[H:9])[H:7]>>[O:1]1[C:2]([H:8])([H:9])[C:3]([H:10])([H:11])[C:4]([H:12])([H:13])[C:5]1=[C:6]([H:7])[H:14]"
O       -0.46015322       1.14516147       0.61239981
C       -1.32442357       0.33153015      -0.18927663
C       -0.80002784      -1.08923189       0.05095438
C        0.72553008      -0.95863195       0.27014131
C        1.01540435       0.49853079       0.19245703
C        1.64972823       1.53486823      -0.24376256
H        0.11785017       2.01528757       0.15119206
H       -1.22364329       0.64642744      -1.23207613
H       -2.36013235       0.46936286       0.11707627
H       -1.04630092      -1.73153326      -0.79414144
H       -1.26480736      -1.52892366       0.93384871
H        1.01130800      -1.35559743       1.24513476
H        1.29690534      -1.49026785      -0.49026545
H        2.66276240       1.51301753      -0.62368213
14
Frame=3 idx=001817 GeodesicLength=0.3293834518526929 rxn_smarts="[O:1]([C:2]([C:3]([C:4]([C:5]#[C:6][H:14])([H:12])[H:13])([H:10])[H:11])([H:8])[H:9])[H:7]>>[O:1]1[C:2]([H:8])([H:9])[C:3]([H:10])([H:11])[C:4]([H:12])([H:13])[C:5]1=[C:6]([H:7])[H:14]"
O       -0.48625385       1.15502180       0.60526441
C       -1.32657535       0.32526529      -0.20353909
C       -0.80389178      -1.08776774       0.07408676
C        0.72657376      -0.96297639       0.24590969
C        1.01908222       0.49375412       0.18865377
C        1.66230364       1.53440340      -0.21843209
H        0.11360585       2.04148539       0.16029492
H       -1.20530896       0.63135491      -1.24708931
H       -2.37286266       0.45957210       0.06651060
H       -1.08057267      -1.76012871      -0.73745177
H       -1.24392733      -1.49449081       0.98533371
H        1.04631493      -1.37875916       1.20219304
H        1.26869016      -1.48103813      -0.54506856
H        2.68282206       1.52430393      -0.57666607
14
Frame=4 idx=001817 GeodesicLength=0.4390965340209071 rxn_smarts="[O:1]([C:2]([C:3]([C:4]([C:5]#[C:6][H:14])([H:12])[H:13])([H:10])[H:11])([H:8])[H:9])[H:7]>>[O:1]1[C:2]([H:8])([H:9])[C:3]([H:10])([H:11])[C:4]([H:12])([H:13])[C:5]1=[C:6]([H:7])[H:14]"
O       -0.51292792       1.16565322       0.59669878
C       -1.32885271       0.31854169      -0.21735906
C       -0.80695104      -1.08560284       0.09702253
C        0.72708085      -0.96736663       0.22156816
C        1.02321744       0.48848203       0.18469735
C        1.67479342       1.53300590      -0.19286993
H        0.10934298       2.06809862       0.16822952
H       -1.18813453       0.61605076      -1.26126890
H       -2.38446007       0.44729678       0.01705063
H       -1.11287364      -1.78642231      -0.67906064
H       -1.22102276      -1.45874084       1.03472957
H        1.07957295      -1.40209503       1.15754393
H        1.23868113      -1.47121720      -0.59874400
H        2.70253388       1.53431585      -0.52823793
14
Frame=5 idx=001817 GeodesicLength=0.5487881216779118 rxn_smarts="[O:1]([C:2]([C:3]([C:4]([C:5]#[C:6][H:14])([H:12])[H:13])([H:10])[H:11])([H:8])[H:9])[H:7]>>[O:1]1[C:2]([H:8])([H:9])[C:3]([H:10])([H:11])[C:4]([H:12])([H:13])[C:5]1=[C:6]([H:7])[H:14]"
O       -0.54016076       1.17696002       0.58681827
C       -1.33121016       0.31141333      -0.23072757
C       -0.80917048      -1.08273933       0.11964702
C        0.72707847      -0.97184184       0.19727564
C        1.02787149       0.48265314       0.18060074
C        1.68713611       1.53070569      -0.16698046
H        0.10511585       2.09516249       0.17538401
H       -1.17200744       0.60071215      -1.27462632
H       -2.39494415       0.43260302      -0.03128433
H       -1.14297598      -1.81029521      -0.61933802
H       -1.19626143      -1.42186189       1.08177136
H        1.11087268      -1.42553609       1.11151765
H        1.20712655      -1.46093912      -0.65091177
H        2.72152925       1.54300363      -0.47914623
14
Frame=6 idx=001817 GeodesicLength=0.6584848048923018 rxn_smarts="[O:1]([C:2]([C:3]([C:4]([C:5]#[C:6][H:14])([H:12])[H:13])([H:10])[H:11])([H:8])[H:9])[H:7]>>[O:1]1[C:2]([H:8])([H:9])[C:3]([H:10])([H:11])[C:4]([H:12])([H:13])[C:5]1=[C:6]([H:7])[H:14]"
O       -0.56789115       1.18888112       0.57556934
C       -1.33368349       0.30390769      -0.24361079
C       -0.81056312      -1.07918855       0.14193358
C        0.72658243      -0.97645611       0.17297945
C        1.03308894       0.47619839       0.17598500
C        1.69923424       1.52750082      -0.14111910
H        0.10096634       2.12270647       0.18185205
H       -1.15704902       0.58538282      -1.28719633
H       -2.40437271       0.41556254      -0.07830476
H       -1.17088387      -1.83175535      -0.55841843
H       -1.16968364      -1.38394316       1.12642168
H        1.14017251      -1.44893582       1.06424053
H        1.17413135      -1.45044369      -0.70147917
H        2.73995118       1.55058283      -0.42885306
14
Frame=7 idx=001817 GeodesicLength=0.7681844750323381 rxn_smarts="[O:1]([C:2]([C:3]([C:4]([C:5]#[C:6][H:14])([H:12])[H:13])([H:10])[H:11])([H:8])[H:9])[H:7]>>[O:1]1[C:2]([H:8])([H:9])[C:3]([H:10])([H:11])[C:4]([H:12])([H:13])[C:5]1=[C:6]([H:7])[H:14]"
O       -0.59612891       1.20129361       0.56310363
C       -1.33620895       0.29609254      -0.25603996
C       -0.81111579      -1.07495354       0.16377171
C        0.72562344      -0.98125353       0.14883471
C        1.03893607       0.46906654       0.17084196
C        1.71104631       1.52344442      -0.11506190
H        0.09691931       2.15074421       0.18817864
H       -1.14307327       0.57024410      -1.29902013
H       -2.41273444       0.39628073      -0.12410338
H       -1.19646271      -1.85073857      -0.49665207
H       -1.14149494      -1.34513188       1.16847852
H        1.16730708      -1.47223062       1.01609689
H        1.13998225      -1.43990466      -0.75012587
H        2.75740454       1.55704667      -0.37830276
14
Frame=8 idx=001817 GeodesicLength=0.8779078936754147 rxn_smarts="[O:1]([C:2]([C:3]([C:4]([C:5]#[C:6][H:14])([H:12])[H:13])([H:10])[H:11])([H:8])[H:9])[H:7]>>[O:1]1[C:2]([H:8])([H:9])[C:3]([H:10])([H:11])[C:4]([H:12])([H:13])[C:5]1=[C:6]([H:7])[H:14]"
O       -0.62481762       1.21412606       0.54935999
C       -1.33883344       0.28799212      -0.26799510
C       -0.81084532      -1.07003818       0.18516774
C        0.72421658      -0.98628435       0.12472438
C        1.04546952       0.46121176       0.16463911
C        1.72246633       1.51854082      -0.08934758
H        0.09298301       2.17928505       0.19447269
H       -1.13023426       0.55529142      -1.31016189
H       -2.42008571       0.37484728      -0.16850274
H       -1.21980287      -1.86728251      -0.43407436
H       -1.11169600      -1.30543421       1.20799627
H        1.19233019      -1.49527068       0.96717407
H        1.10473914      -1.42962556      -0.79688454
H        2.77411045       1.56264096      -0.32656804
14
Frame=9 idx=001817 GeodesicLength=0.9876526785859984 rxn_smarts="[O:1]([C:2]([C:3]([C:4]([C:5]#[C:6][H:14])([H:12])[H:13])([H:10])[H:11])([H:8])[H:9])[H:7]>>[O:1]1[C:2]([H:8])([H:9])[C:3]([H:10])([H:11])[C:4]([H:12])([H:13])[C:5]1=[C:6]([H:7])[H:14]"
O       -0.65401343       1.22724306       0.53453475
C       -1.34147011       0.27968124      -0.27954143
C       -0.80974678      -1.06443981       0.20601943
C        0.72239608      -0.99158716       0.10082097
C        1.05276161       0.45260449       0.15738914
C        1.73346275       1.51284565      -0.06366274
H        0.08913000       2.20831835       0.20143832
H       -1.11826447       0.54070072      -1.32067843
H       -2.42637303       0.35138789      -0.21171048
H       -1.24081916      -1.88133523      -0.37101413
H       -1.08052826      -1.26494686       1.24481174
H        1.21511827      -1.51803046       0.91789669
H        1.06870694      -1.41979162      -0.84148363
H        2.78963958       1.56734977      -0.27482020
14
Frame=10 idx=001817 GeodesicLength=1.0974377113070712 rxn_smarts="[O:1]([C:2]([C:3]([C:4]([C:5]#[C:6][H:14])([H:12])[H:13])([H:10])[H:11])([H:8])[H:9])[H:7]>>[O:1]1[C:2]([H:8])([H:9])[C:3]([H:10])([H:11])[C:4]([H:12])([H:13])[C:5]1=[C:6]([H:7])[H:14]"
O       -0.68368837       1.24059723       0.51853241
C       -1.34417304       0.27117933      -0.29068891
C       -0.80782699      -1.05813544       0.22636086
C        0.72017353      -0.99720510       0.07695438
C        1.06087616       0.44322475       0.14846698
C        1.74396702       1.50636021      -0.03851778
H        0.08533457       2.23784160       0.20919716
H       -1.10733551       0.52641579      -1.33067020
H       -2.43164822       0.32597393      -0.25357481
H       -1.25963972      -1.89294174      -0.30737489
H       -1.04791319      -1.22357302       1.27903326
H        1.23579243      -1.54038974       0.86829439
H        1.03188053      -1.41071806      -0.88407622
H        2.80420080       1.57137025      -0.22193665
14
Frame=11 idx=001817 GeodesicLength=1.2072611161423619 rxn_smarts="[O:1]([C:2]([C:3]([C:4]([C:5]#[C:6][H:14])([H:12])[H:13])([H:10])[H:11])([H:8])[H:9])[H:7]>>[O:1]1[C:2]([H:8])([H:9])[C:3]([H:10])([H:11])[C:4]([H:12])([H:13])[C:5]1=[C:6]([H:7])[H:14]"
O       -0.71393109       1.25409286       0.50147081
C       -1.34687352       0.26254812      -0.30153157
C       -0.80508200      -1.05109533       0.24613175
C        0.71757845      -1.00316620       0.05322784
C        1.06988369       0.43306464       0.13777898
C        1.75395767       1.49910541      -0.01354908
H        0.08152569       2.26782352       0.21842954
H       -1.09722690       0.51254302      -1.34022914
H       -2.43584757       0.29870005      -0.29431258
H       -1.27624046      -1.90206173      -0.24332890
H       -1.01400452      -1.18129802       1.31057763
H        1.25431408      -1.56234930       0.81870207
H        0.99447697      -1.40258493      -0.92453664
H        2.81746952       1.57467790      -0.16883071
14
Frame=12 idx=001817 GeodesicLength=1.317145020181526 rxn_smarts="[O:1]([C:2]([C:3]([C:4]([C:5]#[C:6][H:14])([H:12])[H:13])([H:10])[H:11])([H:8])[H:9])[H:7]>>[O:1]1[C:2]([H:8])([H:9])[C:3]([H:10])([H:11])[C:4]([H:12])([H:13])[C:5]1=[C:6]([H:7])[H:14]"
O       -0.74476186       1.26771628       0.48321498
C       -1.34961873       0.25379913      -0.31210530
C       -0.80147887      -1.04325171       0.26538983
C        0.71462233      -1.00949268       0.02944575
C        1.07985519       0.42213697       0.12466032
C        1.76337984       1.49105068       0.01081735
H        0.07764031       2.29823635       0.22930294
H       -1.08809866       0.49898847      -1.34948329
H       -2.43900733       0.26959704      -0.33380864
H       -1.29070635      -1.90868421      -0.17866375
H       -0.97863135      -1.13790415       1.33955330
H        1.27084431      -1.58383179       0.76908055
H        0.95641892      -1.39568647      -0.96308371
H        2.82954225       1.57732609      -0.11432033
14
Frame=13 idx=001817 GeodesicLength=1.4270875086171642 rxn_smarts="[O:1]([C:2]([C:3]([C:4]([C:5]#[C:6][H:14])([H:12])[H:13])([H:10])[H:11])([H:8])[H:9])[H:7]>>[O:1]1[C:2]([H:8])([H:9])[C:3]([H:10])([H:11])[C:4]([H:12])([H:13])[C:5]1=[C:6]([H:7])[H:14]"
O       -0.77636698       1.28137996       0.46391968
C       -1.35228586       0.24500329      -0.32256323
C       -0.79701164      -1.03454711       0.28405195
C        0.71134296      -1.01618993       0.00582841
C        1.09085515       0.41044995       0.10926673
C        1.77218879       1.48214239       0.03541474
H        0.07353409       2.32898447       0.24282729
H       -1.07954752       0.48590096      -1.35852882
H       -2.44097167       0.23873889      -0.37248431
H       -1.30296783      -1.91270443      -0.11361030
H       -0.94202805      -1.09333950       1.36581325
H        1.28530061      -1.60491706       0.71986845
H        0.91798813      -1.39010604      -0.99951005
H        2.83996980       1.57920415      -0.06029377
14
Frame=14 idx=001817 GeodesicLength=1.5371251156895098 rxn_smarts="[O:1]([C:2]([C:3]([C:4]([C:5]#[C:6][H:14])([H:12])[H:13])([H:10])[H:11])([H:8])[H:9])[H:7]>>[O:1]1[C:2]([H:8])([H:9])[C:3]([H:10])([H:11])[C:4]([H:12])([H:13])[C:5]1=[C:6]([H:7])[H:14]"
O       -0.80877833       1.29513789       0.44328128
C       -1.35496601       0.23614891      -0.33294198
C       -0.79158756      -1.02484028       0.30222455
C        0.70774868      -1.02324984      -0.01794801
C        1.10296228       0.39804840       0.09068518
C        1.78029663       1.47226534       0.05952991
H        0.06912096       2.35998735       0.25905735
H       -1.07189038       0.47308455      -1.36753462
H       -2.44180530       0.20607830      -0.41009033
H       -1.31306174      -1.91404052      -0.04771747
H       -0.90379436      -1.04719280       1.38948529
H        1.29792592      -1.62550883       0.67083999
H        0.87894055      -1.38614820      -1.03417528
H        2.84888866       1.58022972      -0.00469586
14
Frame=15 idx=001817 GeodesicLength=1.6472796653223718 rxn_smarts="[O:1]([C:2]([C:3]([C:4]([C:5]#[C:6][H:14])([H:12])[H:13])([H:10])[H:11])([H:8])[H:9])[H:7]>>[O:1]1[C:2]([H:8])([H:9])[C:3]([H:10])([H:11])[C:4]([H:12])([H:13])[C:5]1=[C:6]([H:7])[H:14]"
O       -0.84218804       1.30896930       0.42126793
C       -1.35758226       0.22728600      -0.34339240
C       -0.78515215      -1.01399810       0.31987244
C        0.70387603      -1.03064497      -0.04178120
C        1.11625194       0.38496305       0.06885133
C        1.78757966       1.46125558       0.08349715
H        0.06422651       2.39105338       0.27896517
H       -1.06487952       0.46058877      -1.37663223
H       -2.44136971       0.17161447      -0.44690597
H       -1.32088681      -1.91250811       0.01900766
H       -0.86395626      -0.99922070       1.41043932
H        1.30871640      -1.64565688       0.62226526
H        0.83940165      -1.38390885      -1.06699521
H        2.85596256       1.58020704       0.05154075
14
Frame=16 idx=001817 GeodesicLength=1.7575891621772894 rxn_smarts="[O:1]([C:2]([C:3]([C:4]([C:5]#[C:6][H:14])([H:12])[H:13])([H:10])[H:11])([H:8])[H:9])[H:7]>>[O:1]1[C:2]([H:8])([H:9])[C:3]([H:10])([H:11])[C:4]([H:12])([H:13])[C:5]1=[C:6]([H:7])[H:14]"
O       -0.87678495       1.32287260       0.39777604
C       -1.36006560       0.21846355      -0.35406557
C       -0.77764736      -1.00185741       0.33697207
C        0.69976301      -1.03833971      -0.06558096
C        1.13080942       0.37121239       0.04369713
C        1.79385617       1.44891146       0.10709239
H        0.05865039       2.42187521       0.30367375
H       -1.05829086       0.44843897      -1.38595525
H       -2.43950562       0.13533496      -0.48317170
H       -1.32635090      -1.90787508       0.08661008
H       -0.82250577      -0.94911586       1.42853810
H        1.31768295      -1.66540431       0.57439821
H        0.79946158      -1.38349076      -1.09789638
H        2.86092754       1.57897400       0.10791208
