10
Frame=0 idx=011274 GeodesicLength=0.0 rxn_smarts="[O:1]=[C:2]([c:3]1[n:4][c:5]([H:9])[c:6]([H:10])[o:7]1)[H:8]>>[O:1]=[c:2]1[c:3]([H:8])[n:4][c:5]([H:9])[c:6]([H:10])[o:7]1"
O        3.11611784       0.76970329       0.02822395
C        2.13627608       0.12507077      -0.13079524
C        0.95412016      -0.40954925      -0.05021063
N       -0.13294522      -0.85849782      -0.58043000
C       -1.32550192      -0.45129218      -0.33869583
C       -1.53413294       0.65435124       0.60411536
O       -0.59433647       1.22397275       1.10818191
H        2.11155605      -1.03603177      -0.65945573
H       -2.15629029      -0.95117385      -0.82237313
H       -2.57486329       0.93344682       0.84143933
10
Frame=1 idx=011274 GeodesicLength=0.1369025772488087 rxn_smarts="[O:1]=[C:2]([c:3]1[n:4][c:5]([H:9])[c:6]([H:10])[o:7]1)[H:8]>>[O:1]=[c:2]1[c:3]([H:8])[n:4][c:5]([H:9])[c:6]([H:10])[o:7]1"
O        3.06358788       0.78584115       0.11389910
C        2.08687884       0.15914169      -0.12155623
C        0.93594683      -0.45715463      -0.03450197
N       -0.14361674      -0.90269376      -0.58307193
C       -1.33318704      -0.47269908      -0.33259259
C       -1.49834523       0.66146667       0.57224113
O       -0.51886807       1.21262668       1.04065596
H        2.10517232      -0.98564519      -0.71038702
H       -2.17808798      -0.95704787      -0.80669946
H       -2.51948080       0.95616433       0.86201301
10
Frame=2 idx=011274 GeodesicLength=0.2742708350619577 rxn_smarts="[O:1]=[C:2]([c:3]1[n:4][c:5]([H:9])[c:6]([H:10])[o:7]1)[H:8]>>[O:1]=[c:2]1[c:3]([H:8])[n:4][c:5]([H:9])[c:6]([H:10])[o:7]1"
O        3.01450240       0.79878226       0.18223411
C        2.04065022       0.19275592      -0.11475428
C        0.91985047      -0.49334998      -0.02396343
N       -0.15220751      -0.94093183      -0.58569701
C       -1.33982622      -0.49254093      -0.32485787
C       -1.46608193       0.66347693       0.54563040
O       -0.45127448       1.19543941       0.98247490
H        2.09666036      -0.94312719      -0.74264854
H       -2.19582494      -0.95772437      -0.79721161
H       -2.46644838       0.97721978       0.87879334
10
Frame=3 idx=011274 GeodesicLength=0.4117301727726407 rxn_smarts="[O:1]=[C:2]([c:3]1[n:4][c:5]([H:9])[c:6]([H:10])[o:7]1)[H:8]>>[O:1]=[c:2]1[c:3]([H:8])[n:4][c:5]([H:9])[c:6]([H:10])[o:7]1"
O        2.96822478       0.81036377       0.23805352
C        1.99813463       0.22353999      -0.10852850
C        0.90439791      -0.52082820      -0.01660454
N       -0.15927373      -0.97141470      -0.59149666
C       -1.34530762      -0.50406915      -0.32452730
C       -1.43723509       0.66460677       0.52020997
O       -0.39085939       1.17768050       0.92807715
H        2.08840447      -0.91116739      -0.75832396
H       -2.21166735      -0.95859539      -0.78734706
H       -2.41481860       0.98988379       0.90048737
10
Frame=4 idx=011274 GeodesicLength=0.5491919038478743 rxn_smarts="[O:1]=[C:2]([c:3]1[n:4][c:5]([H:9])[c:6]([H:10])[o:7]1)[H:8]>>[O:1]=[c:2]1[c:3]([H:8])[n:4][c:5]([H:9])[c:6]([H:10])[o:7]1"
O        2.92371167       0.82335290       0.28264737
C        1.95850232       0.25254742      -0.10437074
C        0.89014267      -0.54290478      -0.01110122
N       -0.16501715      -0.99702499      -0.59818886
C       -1.34967292      -0.51132076      -0.32730782
C       -1.41073948       0.66284106       0.49934890
O       -0.33583603       1.15346753       0.88635444
H        2.08107052      -0.88612228      -0.76540499
H       -2.22585076      -0.95960672      -0.77679847
H       -2.36631083       1.00477062       0.91482139
10
Frame=5 idx=011274 GeodesicLength=0.686528780940273 rxn_smarts="[O:1]=[C:2]([c:3]1[n:4][c:5]([H:9])[c:6]([H:10])[o:7]1)[H:8]>>[O:1]=[c:2]1[c:3]([H:8])[n:4][c:5]([H:9])[c:6]([H:10])[o:7]1"
O        2.88082282       0.83791494       0.31849594
C        1.92122880       0.28006318      -0.10224097
C        0.87691161      -0.56131660      -0.00674584
N       -0.16990905      -1.01919280      -0.60532080
C       -1.35301325      -0.51567661      -0.33192579
C       -1.38606169       0.65914552       0.48207863
O       -0.28543629       1.12375982       0.85662719
H        2.07459592      -0.86632180      -0.76724286
H       -2.23830679      -0.96059271      -0.76566874
H       -2.32083209       1.02221706       0.92194324
10
Frame=6 idx=011274 GeodesicLength=0.8240891156534265 rxn_smarts="[O:1]=[C:2]([c:3]1[n:4][c:5]([H:9])[c:6]([H:10])[o:7]1)[H:8]>>[O:1]=[c:2]1[c:3]([H:8])[n:4][c:5]([H:9])[c:6]([H:10])[o:7]1"
O        2.83966104       0.85281648       0.34867708
C        1.88628698       0.30586459      -0.10163674
C        0.86424099      -0.57654649      -0.00297061
N       -0.17386565      -1.03830331      -0.61314080
C       -1.35557592      -0.51581896      -0.34038028
C       -1.36331033       0.65508462       0.46626118
O       -0.23917603       1.09350398       0.83170499
H        2.06917561      -0.85187589      -0.76382377
H       -2.24979060      -0.96171051      -0.75336624
H       -2.27764609       1.03698548       0.92867520
10
Frame=7 idx=011274 GeodesicLength=0.9616669635571784 rxn_smarts="[O:1]=[C:2]([c:3]1[n:4][c:5]([H:9])[c:6]([H:10])[o:7]1)[H:8]>>[O:1]=[c:2]1[c:3]([H:8])[n:4][c:5]([H:9])[c:6]([H:10])[o:7]1"
O        2.79998440       0.86783568       0.37434450
C        1.85329128       0.33023794      -0.10250385
C        0.85210135      -0.58938051       0.00045344
N       -0.17706083      -1.05489743      -0.62116212
C       -1.35753419      -0.51338604      -0.35102020
C       -1.34215964       0.65062629       0.45189629
O       -0.19644490       1.06264048       0.81136366
H        2.06455172      -0.84125700      -0.75703416
H       -2.26016451      -0.96271953      -0.74053203
H       -2.23656467       1.05030012       0.93419447
10
Frame=8 idx=011274 GeodesicLength=1.0994460463778273 rxn_smarts="[O:1]=[C:2]([c:3]1[n:4][c:5]([H:9])[c:6]([H:10])[o:7]1)[H:8]>>[O:1]=[c:2]1[c:3]([H:8])[n:4][c:5]([H:9])[c:6]([H:10])[o:7]1"
O        2.76169471       0.88298182       0.39633447
C        1.82196131       0.35342698      -0.10461740
C        0.84043589      -0.60051501       0.00369560
N       -0.17969464      -1.06971765      -0.62932163
C       -1.35899799      -0.50935685      -0.36256826
C       -1.32242985       0.64577932       0.43875822
O       -0.15682127       1.03125504       0.79483853
H        2.06054536      -0.83345507      -0.74797250
H       -2.26923643      -0.96298657      -0.72754654
H       -2.19745708       1.06258799       0.93839950
10
Frame=9 idx=011274 GeodesicLength=1.2370552430448651 rxn_smarts="[O:1]=[C:2]([c:3]1[n:4][c:5]([H:9])[c:6]([H:10])[o:7]1)[H:8]>>[O:1]=[c:2]1[c:3]([H:8])[n:4][c:5]([H:9])[c:6]([H:10])[o:7]1"
O        2.72462030       0.89807092       0.41515142
C        1.79195900       0.37563922      -0.10782616
C        0.82933430      -0.61037696       0.00683605
N       -0.18180268      -1.08296315      -0.63720320
C       -1.36013698      -0.50516958      -0.37344097
C       -1.30385120       0.64037272       0.42707480
O       -0.11988305       0.99920741       0.78216857
H        2.05694706      -0.82738969      -0.73783091
H       -2.27712786      -0.96239434      -0.71553401
H       -2.16005889       1.07500346       0.94060441
10
Frame=10 idx=011274 GeodesicLength=1.3747141978123802 rxn_smarts="[O:1]=[C:2]([c:3]1[n:4][c:5]([H:9])[c:6]([H:10])[o:7]1)[H:8]>>[O:1]=[c:2]1[c:3]([H:8])[n:4][c:5]([H:9])[c:6]([H:10])[o:7]1"
O        2.68865792       0.91309432       0.43130804
C        1.76309899       0.39697259      -0.11192141
C        0.81871054      -0.61927888       0.01003290
N       -0.18342454      -1.09510458      -0.64478110
C       -1.36101379      -0.50091015      -0.38347822
C       -1.28635538       0.63461653       0.41646272
O       -0.08531138       0.96713918       0.77200268
H        2.05368526      -0.82281529      -0.72670857
H       -2.28394411      -0.96065878      -0.70475616
H       -2.12410352       1.08694507       0.94183912
10
Frame=11 idx=011274 GeodesicLength=1.512452822672931 rxn_smarts="[O:1]=[C:2]([c:3]1[n:4][c:5]([H:9])[c:6]([H:10])[o:7]1)[H:8]>>[O:1]=[c:2]1[c:3]([H:8])[n:4][c:5]([H:9])[c:6]([H:10])[o:7]1"
O        2.65375537       0.92783822       0.44545148
C        1.73525567       0.41750797      -0.11662535
C        0.80849340      -0.62741233       0.01323170
N       -0.18460677      -1.10619460      -0.65228525
C       -1.36168711      -0.49661503      -0.39272796
C       -1.26983249       0.62863774       0.40667095
O       -0.05282037       0.93531340       0.76362917
H        2.05070230      -0.81931885      -0.71489712
H       -2.28991387      -0.95814241      -0.69480235
H       -2.08934613       1.09838591       0.94235472
10
Frame=12 idx=011274 GeodesicLength=1.6501879732315061 rxn_smarts="[O:1]=[C:2]([c:3]1[n:4][c:5]([H:9])[c:6]([H:10])[o:7]1)[H:8]>>[O:1]=[c:2]1[c:3]([H:8])[n:4][c:5]([H:9])[c:6]([H:10])[o:7]1"
O        2.61983427       0.94216534       0.45799427
C        1.70827898       0.43733621      -0.12174405
C        0.79865386      -0.63494195       0.01639216
N       -0.18538695      -1.11627811      -0.65977779
C       -1.36220705      -0.49243916      -0.40110534
C       -1.25417374       0.62245947       0.39764349
O       -0.02215692       0.90381861       0.75672880
H        2.04793452      -0.81655255      -0.70271722
H       -2.29516990      -0.95511173      -0.68556142
H       -2.05560706       1.10954386       0.94214711
10
Frame=13 idx=011274 GeodesicLength=1.7879553550796181 rxn_smarts="[O:1]=[C:2]([c:3]1[n:4][c:5]([H:9])[c:6]([H:10])[o:7]1)[H:8]>>[O:1]=[c:2]1[c:3]([H:8])[n:4][c:5]([H:9])[c:6]([H:10])[o:7]1"
O        2.58684132       0.95602557       0.46923849
C        1.68206882       0.45652354      -0.12713298
C        0.78913068      -0.64198436       0.01953334
N       -0.18580774      -1.12547977      -0.66731459
C       -1.36260138      -0.48833080      -0.40873775
C       -1.23931951       0.61614549       0.38924356
O        0.00688380       0.87287039       0.75075994
H        2.04534535      -0.81436994      -0.69021274
H       -2.29982001      -0.95167073      -0.67689418
H       -2.02272132       1.12027061       0.94151690
10
Frame=14 idx=011274 GeodesicLength=1.9257253052026726 rxn_smarts="[O:1]=[C:2]([c:3]1[n:4][c:5]([H:9])[c:6]([H:10])[o:7]1)[H:8]>>[O:1]=[c:2]1[c:3]([H:8])[n:4][c:5]([H:9])[c:6]([H:10])[o:7]1"
O        2.55471604       0.96934390       0.47945316
C        1.65652307       0.47513948      -0.13266046
C        0.77989180      -0.64863311       0.02262514
N       -0.18589100      -1.13383279      -0.67495136
C       -1.36290185      -0.48432388      -0.41566187
C       -1.22520185       0.60971548       0.38141980
O        0.03449160       0.84253659       0.74547541
H        2.04289425      -0.81260121      -0.67753136
H       -2.30395265      -0.94800053      -0.66865902
H       -1.99056943       1.13065605       0.94049056
10
Frame=15 idx=011274 GeodesicLength=2.0635084186268413 rxn_smarts="[O:1]=[C:2]([c:3]1[n:4][c:5]([H:9])[c:6]([H:10])[o:7]1)[H:8]>>[O:1]=[c:2]1[c:3]([H:8])[n:4][c:5]([H:9])[c:6]([H:10])[o:7]1"
O        2.52341564       0.98211762       0.48879009
C        1.63156171       0.49324209      -0.13825062
C        0.77089740      -0.65496012       0.02569365
N       -0.18566882      -1.14143835      -0.68267625
C       -1.36312422      -0.48039410      -0.42195732
C       -1.21177735       0.60319558       0.37410998
O        0.06082676       0.81293178       0.74057387
H        2.04055057      -0.81117719      -0.66468950
H       -2.30762854      -0.94413702      -0.66082806
H       -1.95905316       1.14061972       0.93923415
10
Frame=16 idx=011274 GeodesicLength=2.201296350903211 rxn_smarts="[O:1]=[C:2]([c:3]1[n:4][c:5]([H:9])[c:6]([H:10])[o:7]1)[H:8]>>[O:1]=[c:2]1[c:3]([H:8])[n:4][c:5]([H:9])[c:6]([H:10])[o:7]1"
O        2.49289360       0.99433879       0.49737006
C        1.60710480       0.51088746      -0.14384011
C        0.76212579      -0.66102300       0.02874715
N       -0.18515660      -1.14836076      -0.69046675
C       -1.36328264      -0.47655506      -0.42765491
C       -1.19900203       0.59658046       0.36730527
O        0.08603641       0.78409997       0.73588991
H        2.03828411      -0.81002407      -0.65174614
H       -2.31090391      -0.94012935      -0.65339696
H       -1.92809954       1.15018558       0.93779247
