9
Frame=0 idx=000401 GeodesicLength=0.0 rxn_smarts="[O:1]([c:2]1[n:3][n:4]([H:8])[c:5]([H:9])[n:6]1)[H:7]>>[O:1]=[c:2]1[n:3]([H:7])[n:4]([H:8])[c:5]([H:9])[n:6]1"
O        2.20978882      -0.54320489      -0.10516459
C        0.95356777      -0.43613470      -0.26287836
N        0.56970001       0.78901970       0.12061885
N       -0.77932011       0.67010160       0.32165914
C       -1.12044934      -0.53523458      -0.17340571
N       -0.09136658      -1.26468184      -0.53634647
H        1.78271538       0.68218232       0.47419168
H       -1.36919131       1.47932964       0.40481628
H       -2.15544464      -0.84137721      -0.24349078
9
Frame=1 idx=000401 GeodesicLength=0.0339259617617515 rxn_smarts="[O:1]([c:2]1[n:3][n:4]([H:8])[c:5]([H:9])[n:6]1)[H:7]>>[O:1]=[c:2]1[n:3]([H:7])[n:4]([H:8])[c:5]([H:9])[n:6]1"
O        2.20620089      -0.54587833      -0.10029618
C        0.95363491      -0.43027940      -0.28203589
N        0.56876315       0.79180432       0.11754361
N       -0.77897453       0.66795076       0.32505855
C       -1.12135873      -0.53461776      -0.17649440
N       -0.09186937      -1.26878367      -0.52528017
H        1.78896096       0.68367803       0.48069123
H       -1.36906392       1.47738731       0.40580252
H       -2.15629337      -0.84126126      -0.24498928
9
Frame=2 idx=000401 GeodesicLength=0.06786223731252095 rxn_smarts="[O:1]([c:2]1[n:3][n:4]([H:8])[c:5]([H:9])[n:6]1)[H:7]>>[O:1]=[c:2]1[n:3]([H:7])[n:4]([H:8])[c:5]([H:9])[n:6]1"
O        2.20249376      -0.54819644      -0.09648429
C        0.95349583      -0.42508286      -0.29935843
N        0.56785001       0.79435914       0.11489014
N       -0.77868809       0.66591107       0.32832116
C       -1.12220399      -0.53449816      -0.17832613
N       -0.09231779      -1.27199856      -0.51560673
H        1.79546993       0.68507788       0.48728879
H       -1.36898491       1.47563418       0.40582788
H       -2.15711476      -0.84120625      -0.24655240
9
Frame=3 idx=000401 GeodesicLength=0.10178552399385235 rxn_smarts="[O:1]([c:2]1[n:3][n:4]([H:8])[c:5]([H:9])[n:6]1)[H:7]>>[O:1]=[c:2]1[n:3]([H:7])[n:4]([H:8])[c:5]([H:9])[n:6]1"
O        2.19869911      -0.55025132      -0.09334803
C        0.95319072      -0.42042865      -0.31524839
N        0.56694625       0.79675681       0.11240005
N       -0.77842680       0.66394822       0.33152344
C       -1.12299520      -0.53483456      -0.17892271
N       -0.09272671      -1.27458078      -0.50708592
H        1.80220315       0.68649470       0.49384488
H       -1.36895430       1.47397324       0.40522318
H       -2.15793624      -0.84107766      -0.24838649
9
Frame=4 idx=000401 GeodesicLength=0.13583216874818943 rxn_smarts="[O:1]([c:2]1[n:3][n:4]([H:8])[c:5]([H:9])[n:6]1)[H:7]>>[O:1]=[c:2]1[n:3]([H:7])[n:4]([H:8])[c:5]([H:9])[n:6]1"
O        2.19488038      -0.55201095      -0.09084899
C        0.95275649      -0.41623646      -0.33005298
N        0.56600489       0.79906407       0.10989261
N       -0.77815249       0.66198768       0.33481662
C       -1.12371465      -0.53564200      -0.17847565
N       -0.09317889      -1.27687163      -0.49887218
H        1.80914247       0.68801987       0.50019510
H       -1.36895983       1.47233705       0.40440942
H       -2.15877836      -0.84064763      -0.25106393
9
Frame=5 idx=000401 GeodesicLength=0.16975065871929518 rxn_smarts="[O:1]([c:2]1[n:3][n:4]([H:8])[c:5]([H:9])[n:6]1)[H:7]>>[O:1]=[c:2]1[n:3]([H:7])[n:4]([H:8])[c:5]([H:9])[n:6]1"
O        2.19091799      -0.55367981      -0.08852408
C        0.95217301      -0.41235516      -0.34394822
N        0.56510443       0.80128100       0.10750519
N       -0.77788533       0.66014986       0.33788169
C       -1.12440189      -0.53667398      -0.17729163
N       -0.09360325      -1.27847906      -0.49217344
H        1.81621836       0.68944059       0.50677724
H       -1.36896159       1.47076503       0.40291533
H       -2.15956173      -0.84044848      -0.25314208
9
Frame=6 idx=000401 GeodesicLength=0.20372221906272106 rxn_smarts="[O:1]([c:2]1[n:3][n:4]([H:8])[c:5]([H:9])[n:6]1)[H:7]>>[O:1]=[c:2]1[n:3]([H:7])[n:4]([H:8])[c:5]([H:9])[n:6]1"
O        2.18693203      -0.55515481      -0.08654326
C        0.95150417      -0.40878682      -0.35713750
N        0.56419759       0.80344706       0.10508951
N       -0.77762178       0.65837336       0.34086427
C       -1.12508288      -0.53785269      -0.17578081
N       -0.09403178      -1.27983681      -0.48595582
H        1.82342034       0.69082593       0.51345779
H       -1.36898139       1.46926491       0.40121951
H       -2.16033631      -0.84028014      -0.25521370
9
Frame=7 idx=000401 GeodesicLength=0.23772197918378463 rxn_smarts="[O:1]([c:2]1[n:3][n:4]([H:8])[c:5]([H:9])[n:6]1)[H:7]>>[O:1]=[c:2]1[n:3]([H:7])[n:4]([H:8])[c:5]([H:9])[n:6]1"
O        2.18292919      -0.55639781      -0.08494975
C        0.95072719      -0.40548670      -0.36973897
N        0.56327434       0.80556839       0.10262064
N       -0.77734612       0.65664137       0.34382098
C       -1.12572722      -0.53925555      -0.17368131
N       -0.09447765      -1.28102970      -0.48001619
H        1.83074540       0.69218142       0.52019852
H       -1.36902458       1.46775171       0.39934191
H       -2.16110055      -0.83997312      -0.25759583
9
Frame=8 idx=000401 GeodesicLength=0.271750432157764 rxn_smarts="[O:1]([c:2]1[n:3][n:4]([H:8])[c:5]([H:9])[n:6]1)[H:7]>>[O:1]=[c:2]1[n:3]([H:7])[n:4]([H:8])[c:5]([H:9])[n:6]1"
O        2.17891577      -0.55741403      -0.08371252
C        0.94985023      -0.40240871      -0.38188559
N        0.56233617       0.80766150       0.10007355
N       -0.77706023       0.65495284       0.34672454
C       -1.12638390      -0.54075268      -0.17131501
N       -0.09489897      -1.28215137      -0.47420143
H        1.83816266       0.69347012       0.52707766
H       -1.36906598       1.46625739       0.39736942
H       -2.16185576      -0.83961506      -0.26013062
9
Frame=9 idx=000401 GeodesicLength=0.3057965204469684 rxn_smarts="[O:1]([c:2]1[n:3][n:4]([H:8])[c:5]([H:9])[n:6]1)[H:7]>>[O:1]=[c:2]1[n:3]([H:7])[n:4]([H:8])[c:5]([H:9])[n:6]1"
O        2.17489444      -0.55819460      -0.08282776
C        0.94887607      -0.39953361      -0.39368304
N        0.56137368       0.80972928       0.09742761
N       -0.77676267       0.65328453       0.34963997
C       -1.12704674      -0.54235952      -0.16863957
N       -0.09529517      -1.28330642      -0.46825406
H        1.84567541       0.69473387       0.53399840
H       -1.36911471       1.46473909       0.39540813
H       -2.16260029      -0.83909263      -0.26306968
9
Frame=10 idx=000401 GeodesicLength=0.33994877291377124 rxn_smarts="[O:1]([c:2]1[n:3][n:4]([H:8])[c:5]([H:9])[n:6]1)[H:7]>>[O:1]=[c:2]1[n:3]([H:7])[n:4]([H:8])[c:5]([H:9])[n:6]1"
O        2.17090316      -0.55867760      -0.08236241
C        0.94779093      -0.39692790      -0.40516235
N        0.56036521       0.81176980       0.09463529
N       -0.77644410       0.65162961       0.35260536
C       -1.12773477      -0.54407471      -0.16571327
N       -0.09565503      -1.28460501      -0.46187689
H        1.85328731       0.69601193       0.54090929
H       -1.36917237       1.46319307       0.39361002
H       -2.16334034      -0.83831918      -0.26664503
9
Frame=11 idx=000401 GeodesicLength=0.37387810685733425 rxn_smarts="[O:1]([c:2]1[n:3][n:4]([H:8])[c:5]([H:9])[n:6]1)[H:7]>>[O:1]=[c:2]1[n:3]([H:7])[n:4]([H:8])[c:5]([H:9])[n:6]1"
O        2.16688524      -0.55892316      -0.08232472
C        0.94652110      -0.39452302      -0.41598104
N        0.55931421       0.81378896       0.09172705
N       -0.77608560       0.64999462       0.35561095
C       -1.12834502      -0.54626349      -0.16140894
N       -0.09604911      -1.28564716      -0.45605018
H        1.86103408       0.69720887       0.54787040
H       -1.36928234       1.46156797       0.39141730
H       -2.16399256      -0.83720359      -0.27086081
9
Frame=12 idx=000401 GeodesicLength=0.4078702930930833 rxn_smarts="[O:1]([c:2]1[n:3][n:4]([H:8])[c:5]([H:9])[n:6]1)[H:7]>>[O:1]=[c:2]1[n:3]([H:7])[n:4]([H:8])[c:5]([H:9])[n:6]1"
O        2.16288886      -0.55891365      -0.08264579
C        0.94514962      -0.39233730      -0.42665511
N        0.55819941       0.81579220       0.08864729
N       -0.77571753       0.64834346       0.35873133
C       -1.12898974      -0.54850658      -0.15695369
N       -0.09639291      -1.28694662      -0.44944813
H        1.86887899       0.69846100       0.55469227
H       -1.36941210       1.45988176       0.38956220
H       -2.16460460      -0.83577428      -0.27593036
9
Frame=13 idx=000401 GeodesicLength=0.44197371052568324 rxn_smarts="[O:1]([c:2]1[n:3][n:4]([H:8])[c:5]([H:9])[n:6]1)[H:7]>>[O:1]=[c:2]1[n:3]([H:7])[n:4]([H:8])[c:5]([H:9])[n:6]1"
O        2.15888170      -0.55871116      -0.08318236
C        0.94365511      -0.39032724      -0.43714069
N        0.55704897       0.81777489       0.08545014
N       -0.77534116       0.64672890       0.36181480
C       -1.12964757      -0.55081304      -0.15230459
N       -0.09674902      -1.28822593      -0.44283635
H        1.87682326       0.69965211       0.56166016
H       -1.36956901       1.45816314       0.38768342
H       -2.16510228      -0.83424167      -0.28114454
9
Frame=14 idx=000401 GeodesicLength=0.47603506482677893 rxn_smarts="[O:1]([c:2]1[n:3][n:4]([H:8])[c:5]([H:9])[n:6]1)[H:7]>>[O:1]=[c:2]1[n:3]([H:7])[n:4]([H:8])[c:5]([H:9])[n:6]1"
O        2.15485705      -0.55831238      -0.08395363
C        0.94202600      -0.38850691      -0.44738726
N        0.55584956       0.81976240       0.08212212
N       -0.77494841       0.64514753       0.36491387
C       -1.13032265      -0.55322404      -0.14736823
N       -0.09707973      -1.28950123      -0.43608143
H        1.88486393       0.70078791       0.56863826
H       -1.36973541       1.45643671       0.38586797
H       -2.16551035      -0.83258999      -0.28675167
9
Frame=15 idx=000401 GeodesicLength=0.5100893683637706 rxn_smarts="[O:1]([c:2]1[n:3][n:4]([H:8])[c:5]([H:9])[n:6]1)[H:7]>>[O:1]=[c:2]1[n:3]([H:7])[n:4]([H:8])[c:5]([H:9])[n:6]1"
O        2.15079540      -0.55777632      -0.08480670
C        0.94031697      -0.38680168      -0.45746410
N        0.55461961       0.82172278       0.07869225
N       -0.77455407       0.64360409       0.36785898
C       -1.13100023      -0.55556069      -0.14254211
N       -0.09742603      -1.29066806      -0.42955109
H        1.89297383       0.70179541       0.57586375
H       -1.36991951       1.45468805       0.38397486
H       -2.16580596      -0.83100358      -0.29202584
9
Frame=16 idx=000401 GeodesicLength=0.5441704670091413 rxn_smarts="[O:1]([c:2]1[n:3][n:4]([H:8])[c:5]([H:9])[n:6]1)[H:7]>>[O:1]=[c:2]1[n:3]([H:7])[n:4]([H:8])[c:5]([H:9])[n:6]1"
O        2.14670779      -0.55710354      -0.08574889
C        0.93854001      -0.38521456      -0.46740276
N        0.55337341       0.82370210       0.07516579
N       -0.77416038       0.64213312       0.37066570
C       -1.13169971      -0.55784717      -0.13784760
N       -0.09777358      -1.29174493      -0.42320962
H        1.90115855       0.70265085       0.58334472
H       -1.37010819       1.45298609       0.38203010
H       -2.16603792      -0.82956196      -0.29699743
