16
Frame=0 idx=011319 GeodesicLength=0.0 rxn_smarts="[C:1]([C@@:2]1([H:11])[C@:3]([C:4]([H:13])([H:14])[H:15])([H:12])[C@:5]1([C:6]#[N:7])[H:16])([H:8])([H:9])[H:10]>>[C:1]([C:2]([C@@:5]([C:3][C:4]([H:13])([H:14])[H:15])([C:6]#[N:7])[H:16])([H:11])[H:12])([H:8])([H:9])[H:10]"
C        1.38645433      -0.60918105       0.85234376
C        1.06112229       0.16270836      -0.40329989
C       -0.62926471       0.18806294      -1.29574417
C       -1.56754073      -0.78434860      -0.64095365
C       -0.05562390       1.21293502      -0.37260504
C       -0.65246585       1.43691788       0.93607578
N       -1.14377099       1.62537691       1.95631213
H        0.50215224      -1.07462426       1.28655602
H        2.11407158      -1.39116429       0.63591028
H        1.80762577       0.05567803       1.60788476
H        1.92489694       0.55495831      -0.93503940
H        0.65210847      -0.52848420      -1.27308814
H       -2.54988669      -0.32779631      -0.80932532
H       -1.57992643      -1.74352902      -1.15723282
H       -1.48106960      -0.94029731       0.44039473
H        0.21111732       2.16278758      -0.82818907
16
Frame=1 idx=011319 GeodesicLength=0.06174666718093981 rxn_smarts="[C:1]([C@@:2]1([H:11])[C@:3]([C:4]([H:13])([H:14])[H:15])([H:12])[C@:5]1([C:6]#[N:7])[H:16])([H:8])([H:9])[H:10]>>[C:1]([C:2]([C@@:5]([C:3][C:4]([H:13])([H:14])[H:15])([C:6]#[N:7])[H:16])([H:11])[H:12])([H:8])([H:9])[H:10]"
C        1.39134914      -0.61189211       0.85096911
C        1.06744585       0.16518171      -0.40196616
C       -0.62520858       0.17493444      -1.28527627
C       -1.57823189      -0.78465978      -0.63773775
C       -0.05475345       1.20829654      -0.37026113
C       -0.65111033       1.43925653       0.93675348
N       -1.14038354       1.62924658       1.95770164
H        0.50861924      -1.08469652       1.28037790
H        2.12403935      -1.38928989       0.63461823
H        1.80696475       0.04964500       1.61257398
H        1.93445742       0.57281220      -0.91679846
H        0.66895012      -0.52175254      -1.29886998
H       -2.55552419      -0.32296005      -0.82232264
H       -1.59061230      -1.74851220      -1.14534240
H       -1.50500489      -0.93050106       0.44582692
H        0.19900328       2.15489114      -0.84024647
16
Frame=2 idx=011319 GeodesicLength=0.12351496974948281 rxn_smarts="[C:1]([C@@:2]1([H:11])[C@:3]([C:4]([H:13])([H:14])[H:15])([H:12])[C@:5]1([C:6]#[N:7])[H:16])([H:8])([H:9])[H:10]>>[C:1]([C:2]([C@@:5]([C:3][C:4]([H:13])([H:14])[H:15])([C:6]#[N:7])[H:16])([H:11])[H:12])([H:8])([H:9])[H:10]"
C        1.39638905      -0.61472678       0.84955214
C        1.07397095       0.16775561      -0.40052302
C       -0.62079620       0.16109870      -1.27438809
C       -1.58907873      -0.78495291      -0.63437301
C       -0.05392774       1.20347396      -0.36792588
C       -0.64969812       1.44154964       0.93741183
N       -1.13698725       1.63327833       1.95900408
H        0.51528915      -1.09496903       1.27401203
H        2.13414190      -1.38745573       0.63317182
H        1.80631462       0.04334523       1.61731305
H        1.94378348       0.59072898      -0.89816937
H        0.68592275      -0.51368184      -1.32515692
H       -2.56083169      -0.31806156      -0.83592146
H       -1.60155245      -1.75365187      -1.13278446
H       -1.52949964      -0.92016057       0.45123950
H        0.18655990       2.14642984      -0.85246226
16
Frame=3 idx=011319 GeodesicLength=0.18531718159926897 rxn_smarts="[C:1]([C@@:2]1([H:11])[C@:3]([C:4]([H:13])([H:14])[H:15])([H:12])[C@:5]1([C:6]#[N:7])[H:16])([H:8])([H:9])[H:10]>>[C:1]([C:2]([C@@:5]([C:3][C:4]([H:13])([H:14])[H:15])([C:6]#[N:7])[H:16])([H:11])[H:12])([H:8])([H:9])[H:10]"
C        1.40160812      -0.61767177       0.84811025
C        1.08070380       0.17041774      -0.39895951
C       -0.61600181       0.14650851      -1.26304666
C       -1.60009181      -0.78521845      -0.63087872
C       -0.05314559       1.19844125      -0.36559930
C       -0.64823255       1.44377998       0.93804549
N       -1.13360345       1.63744977       1.96020556
H        0.52220517      -1.10543448       1.26747983
H        2.14442333      -1.38563829       0.63159160
H        1.80570191       0.03680775       1.62210259
H        1.95286282       0.60868414      -0.87917157
H        0.70294260      -0.50421596      -1.35192040
H       -2.56575798      -0.31307191      -0.85014120
H       -1.61283811      -1.75891932      -1.11957625
H       -1.55456175      -0.90926437       0.45658332
H        0.17378531       2.13734540      -0.86482502
16
Frame=4 idx=011319 GeodesicLength=0.2471704037697214 rxn_smarts="[C:1]([C@@:2]1([H:11])[C@:3]([C:4]([H:13])([H:14])[H:15])([H:12])[C@:5]1([C:6]#[N:7])[H:16])([H:8])([H:9])[H:10]>>[C:1]([C:2]([C@@:5]([C:3][C:4]([H:13])([H:14])[H:15])([C:6]#[N:7])[H:16])([H:11])[H:12])([H:8])([H:9])[H:10]"
C        1.40704502      -0.62070977       0.84666467
C        1.08764898       0.17315308      -0.39726450
C       -0.61080149       0.13111756      -1.25121325
C       -1.61128162      -0.78544304      -0.62727998
C       -0.05240565       1.19316949      -0.36327696
C       -0.64671707       1.44592889       0.93865234
N       -1.13025038       1.64173365       1.96129734
H        0.52941761      -1.11608148       1.26081068
H        2.15493176      -1.38381016       0.62990200
H        1.80516013       0.03006957       1.62694287
H        1.96167801       0.62664589      -0.85983439
H        0.71990502      -0.49330752      -1.37912409
H       -2.57024267      -0.30796413      -0.86501342
H       -1.62456443      -1.76428058      -1.10574434
H       -1.58020181      -0.89779915       0.46180260
H        0.16067860       2.12757772      -0.87732156
16
Frame=5 idx=011319 GeodesicLength=0.309067911097196 rxn_smarts="[C:1]([C@@:2]1([H:11])[C@:3]([C:4]([H:13])([H:14])[H:15])([H:12])[C@:5]1([C:6]#[N:7])[H:16])([H:8])([H:9])[H:10]>>[C:1]([C:2]([C@@:5]([C:3][C:4]([H:13])([H:14])[H:15])([C:6]#[N:7])[H:16])([H:11])[H:12])([H:8])([H:9])[H:10]"
C        1.41274213      -0.62381897       0.84524076
C        1.09480835       0.17594032      -0.39542908
C       -0.60517151       0.11488186      -1.23884735
C       -1.62265593      -0.78561193      -0.62361024
C       -0.05170570       1.18762882      -0.36095382
C       -0.64515564       1.44797524       0.93923078
N       -1.12694432       1.64609411       1.96227370
H        0.53698198      -1.12689194       1.25404394
H        2.16571963      -1.38193946       0.62813706
H        1.80472966       0.02317913       1.63183182
H        1.97020999       0.64457330      -0.84020103
H        0.73668394      -0.48091879      -1.40671499
H       -2.57422515      -0.30270442      -0.88056407
H       -1.63682698      -1.76969270      -1.09133591
H       -1.60642828      -0.88575533       0.46683201
H        0.14723781       2.11706075      -0.88993358
16
Frame=6 idx=011319 GeodesicLength=0.37104479881743646 rxn_smarts="[C:1]([C@@:2]1([H:11])[C@:3]([C:4]([H:13])([H:14])[H:15])([H:12])[C@:5]1([C:6]#[N:7])[H:16])([H:8])([H:9])[H:10]>>[C:1]([C:2]([C@@:5]([C:3][C:4]([H:13])([H:14])[H:15])([C:6]#[N:7])[H:16])([H:11])[H:12])([H:8])([H:9])[H:10]"
C        1.41874764      -0.62697529       0.84386671
C        1.10218411       0.17875927      -0.39344193
C       -0.59909151       0.09775945      -1.22590237
C       -1.63422180      -0.78570594      -0.61990764
C       -0.05104382       1.18178537      -0.35861826
C       -0.64355122       1.44989644       0.93978474
N       -1.12370432       1.65049452       1.96313344
H        0.54496200      -1.13784749       1.24722535
H        2.17684525      -1.37999038       0.62632926
H        1.80445840       0.01618763       1.63676981
H        1.97843923       0.66242871      -0.82032033
H        0.75312203      -0.46703758      -1.43463789
H       -2.57763518      -0.29727095      -0.89683391
H       -1.64972506      -1.77510688      -1.07640277
H       -1.63325457      -0.87311526       0.47159872
H        0.13346881       2.10573837      -0.90264293
16
Frame=7 idx=011319 GeodesicLength=0.4330829155760624 rxn_smarts="[C:1]([C@@:2]1([H:11])[C@:3]([C:4]([H:13])([H:14])[H:15])([H:12])[C@:5]1([C:6]#[N:7])[H:16])([H:8])([H:9])[H:10]>>[C:1]([C:2]([C@@:5]([C:3][C:4]([H:13])([H:14])[H:15])([C:6]#[N:7])[H:16])([H:11])[H:12])([H:8])([H:9])[H:10]"
C        1.42511049      -0.63014816       0.84257385
C        1.10977037       0.18158059      -0.39129863
C       -0.59254937       0.07972112      -1.21233234
C       -1.64598372      -0.78570155      -0.61622099
C       -0.05041706       1.17560793      -0.35625595
C       -0.64190830       1.45166749       0.94032076
N       -1.12053990       1.65488514       1.96388470
H        0.55342523      -1.14892014       1.24041213
H        2.18836759      -1.37792215       0.62452182
H        1.80440151       0.00916254       1.64175060
H        1.98633798       0.68015633      -0.80026177
H        0.76904894      -0.45167288      -1.46281143
H       -2.58039981      -0.29163660      -0.91386595
H       -1.66334782      -1.78046774      -1.06101692
H       -1.66069119      -0.85986405       0.47602048
H        0.11937506       2.09355215      -0.91542036
16
Frame=8 idx=011319 GeodesicLength=0.49518052408796576 rxn_smarts="[C:1]([C@@:2]1([H:11])[C@:3]([C:4]([H:13])([H:14])[H:15])([H:12])[C@:5]1([C:6]#[N:7])[H:16])([H:8])([H:9])[H:10]>>[C:1]([C:2]([C@@:5]([C:3][C:4]([H:13])([H:14])[H:15])([C:6]#[N:7])[H:16])([H:11])[H:12])([H:8])([H:9])[H:10]"
C        1.43188391      -0.63330393       0.84139706
C        1.11755807       0.18437282      -0.38899417
C       -0.58554132       0.06074511      -1.19808119
C       -1.65793777      -0.78557356      -0.61260645
C       -0.04982311       1.16906395      -0.35384347
C       -0.64022993       1.45326479       0.94085346
N       -1.11745801       1.65921303       1.96454656
H        0.56244518      -1.16007667       1.23367494
H        2.20034676      -1.37569254       0.62275904
H        1.80462677       0.00217766       1.64676825
H        1.99387644       0.69769162      -0.78011395
H        0.78425859      -0.43485860      -1.49114727
H       -2.58243548      -0.28579001      -0.93172273
H       -1.67777206      -1.78571047      -1.04526277
H       -1.68875909      -0.84597348       0.48000409
H        0.10496102       2.08045028      -0.92823140
16
Frame=9 idx=011319 GeodesicLength=0.5571294672260207 rxn_smarts="[C:1]([C@@:2]1([H:11])[C@:3]([C:4]([H:13])([H:14])[H:15])([H:12])[C@:5]1([C:6]#[N:7])[H:16])([H:8])([H:9])[H:10]>>[C:1]([C:2]([C@@:5]([C:3][C:4]([H:13])([H:14])[H:15])([C:6]#[N:7])[H:16])([H:11])[H:12])([H:8])([H:9])[H:10]"
C        1.43911081      -0.63638977       0.84035405
C        1.12549430       0.18706468      -0.38657133
C       -0.57812546       0.04087650      -1.18309196
C       -1.67008800      -0.78528071      -0.60914350
C       -0.04926585       1.16212511      -0.35133259
C       -0.63851611       1.45465971       0.94142564
N       -1.11440090       1.66337889       1.96520119
H        0.57209463      -1.17126086       1.22709361
H        2.21284166      -1.37323809       0.62109459
H        1.80520877      -0.00465556       1.65177172
H        2.00099102       0.71492702      -0.75998922
H        0.79867718      -0.41672888      -1.51946776
H       -2.58373315      -0.27980453      -0.95049757
H       -1.69300747      -1.79075603      -1.02922764
H       -1.71753993      -0.83135312       0.48341408
H        0.09025851       2.06643562      -0.94103332
16
Frame=10 idx=011319 GeodesicLength=0.6191371361107866 rxn_smarts="[C:1]([C@@:2]1([H:11])[C@:3]([C:4]([H:13])([H:14])[H:15])([H:12])[C@:5]1([C:6]#[N:7])[H:16])([H:8])([H:9])[H:10]>>[C:1]([C:2]([C@@:5]([C:3][C:4]([H:13])([H:14])[H:15])([C:6]#[N:7])[H:16])([H:11])[H:12])([H:8])([H:9])[H:10]"
C        1.44685052      -0.63938326       0.83949437
C        1.13359645       0.18965817      -0.38398928
C       -0.57026455       0.02007154      -1.16730533
C       -1.68241038      -0.78480151      -0.60588424
C       -0.04873577       1.15476922      -0.34871243
C       -0.63676677       1.45583262       0.94204428
N       -1.11141995       1.66735528       1.96583521
H        0.58244769      -1.18244428       1.22075089
H        2.22590145      -1.37053600       0.61955768
H        1.80622407      -0.01128466       1.65678736
H        2.00768743       0.73184060      -0.73997727
H        0.81190200      -0.39732017      -1.54774467
H       -2.58411757      -0.27360914      -0.97025927
H       -1.70913694      -1.79556018      -1.01299421
H       -1.74700370      -0.81600079       0.48616405
H        0.07524602       2.05141255      -0.95376713
16
Frame=11 idx=011319 GeodesicLength=0.6812178567704525 rxn_smarts="[C:1]([C@@:2]1([H:11])[C@:3]([C:4]([H:13])([H:14])[H:15])([H:12])[C@:5]1([C:6]#[N:7])[H:16])([H:8])([H:9])[H:10]>>[C:1]([C:2]([C@@:5]([C:3][C:4]([H:13])([H:14])[H:15])([C:6]#[N:7])[H:16])([H:11])[H:12])([H:8])([H:9])[H:10]"
C        1.45514939      -0.64224439       0.83885379
C        1.14183793       0.19211802      -0.38124954
C       -0.56198541      -0.00163815      -1.15065963
C       -1.69488045      -0.78410146      -0.60290714
C       -0.04822901       1.14698128      -0.34594157
C       -0.63497939       1.45676454       0.94274753
N       -1.10851134       1.67107426       1.96649822
H        0.59357255      -1.19357598       1.21474283
H        2.23956833      -1.36754739       0.61818822
H        1.80775792      -0.01762259       1.66180028
H        2.01393939       0.74835491      -0.72020614
H        0.82364391      -0.37677322      -1.57587254
H       -2.58349479      -0.26722035      -0.99110207
H       -1.72615329      -1.80006484      -0.99665404
H       -1.77717300      -0.79986263       0.48812847
H        0.05993727       2.03535797      -0.96636666
16
Frame=12 idx=011319 GeodesicLength=0.7433767260476492 rxn_smarts="[C:1]([C@@:2]1([H:11])[C@:3]([C:4]([H:13])([H:14])[H:15])([H:12])[C@:5]1([C:6]#[N:7])[H:16])([H:8])([H:9])[H:10]>>[C:1]([C:2]([C@@:5]([C:3][C:4]([H:13])([H:14])[H:15])([C:6]#[N:7])[H:16])([H:11])[H:12])([H:8])([H:9])[H:10]"
C        1.46404592      -0.64493488       0.83846003
C        1.15018405       0.19440829      -0.37836295
C       -0.55333053      -0.02419818      -1.13309722
C       -1.70747182      -0.78314402      -0.60029154
C       -0.04773990       1.13875714      -0.34297498
C       -0.63314797       1.45743962       0.94357988
N       -1.10565523       1.67446504       1.96725340
H        0.60552973      -1.20460485       1.20916160
H        2.25387613      -1.36423577       0.61701766
H        1.80989409      -0.02358623       1.66679155
H        2.01972354       0.76441019      -0.70079779
H        0.83360722      -0.35527042      -1.60374261
H       -2.58175841      -0.26069628      -1.01313968
H       -1.74402631      -1.80421188      -0.98027913
H       -1.80807943      -0.78285390       0.48916837
H        0.04434890       2.01825613      -0.97874658
16
Frame=13 idx=011319 GeodesicLength=0.8056182653536197 rxn_smarts="[C:1]([C@@:2]1([H:11])[C@:3]([C:4]([H:13])([H:14])[H:15])([H:12])[C@:5]1([C:6]#[N:7])[H:16])([H:8])([H:9])[H:10]>>[C:1]([C:2]([C@@:5]([C:3][C:4]([H:13])([H:14])[H:15])([C:6]#[N:7])[H:16])([H:11])[H:12])([H:8])([H:9])[H:10]"
C        1.47357486      -0.64741587       0.83834455
C        1.15859571       0.19649213      -0.37533849
C       -0.54435192      -0.04753676      -1.11455681
C       -1.72014118      -0.78189334      -0.59812431
C       -0.04726324       1.13009883      -0.33975860
C       -0.63126658       1.45784608       0.94459544
N       -1.10283875       1.67745025       1.96817335
H        0.61837349      -1.21547427       1.20411213
H        2.26884682      -1.36057075       0.61607634
H        1.81272354      -0.02908826       1.67174219
H        2.02501647       0.77992856      -0.68189795
H        0.84147128      -0.33302265      -1.63124756
H       -2.57879882      -0.25409399      -1.03648106
H       -1.76269120      -1.80794278      -0.96395234
H       -1.83974710      -0.76489126       0.48913366
H        0.02849662       2.00011408      -0.99082056
16
Frame=14 idx=011319 GeodesicLength=0.8679336550625267 rxn_smarts="[C:1]([C@@:2]1([H:11])[C@:3]([C:4]([H:13])([H:14])[H:15])([H:12])[C@:5]1([C:6]#[N:7])[H:16])([H:8])([H:9])[H:10]>>[C:1]([C:2]([C@@:5]([C:3][C:4]([H:13])([H:14])[H:15])([C:6]#[N:7])[H:16])([H:11])[H:12])([H:8])([H:9])[H:10]"
C        1.48375928      -0.64965226       0.83852511
C        1.16702887       0.19833948      -0.37219283
C       -0.53511438      -0.07155992      -1.09499410
C       -1.73284400      -0.78031589      -0.59648337
C       -0.04679432       1.12102245      -0.33623914
C       -0.62932870       1.45797393       0.94585217
N       -1.10004188       1.67995083       1.96933861
H        0.63214605      -1.22613269       1.19968294
H        2.28449094      -1.35652559       0.61537806
H        1.81632517      -0.03405374       1.67662810
H        2.02980215       0.79485069      -0.66363323
H        0.84695907      -0.31027175      -1.65828283
H       -2.57451161      -0.24751990      -1.06123646
H       -1.78208660      -1.81121274      -0.94772028
H       -1.87219831      -0.74585941       0.48786229
H        0.01240829       1.98096652      -1.00248503
16
Frame=15 idx=011319 GeodesicLength=0.9303241976570045 rxn_smarts="[C:1]([C@@:2]1([H:11])[C@:3]([C:4]([H:13])([H:14])[H:15])([H:12])[C@:5]1([C:6]#[N:7])[H:16])([H:8])([H:9])[H:10]>>[C:1]([C:2]([C@@:5]([C:3][C:4]([H:13])([H:14])[H:15])([C:6]#[N:7])[H:16])([H:11])[H:12])([H:8])([H:9])[H:10]"
C        1.49461369      -0.65161289       0.83901766
C        1.17543741       0.19992277      -0.36894100
C       -0.52568881      -0.09616016      -1.07436337
C       -1.74552551      -0.77837717      -0.59544803
C       -0.04632707       1.11155304      -0.33235970
C       -0.62732567       1.45781962       0.94741306
N       -1.09725317       1.68188587       1.97083194
H        0.64687755      -1.23652917       1.19596229
H        2.30080576      -1.35208234       0.61493152
H        1.82077579      -0.03841478       1.68142708
H        2.03407040       0.80911662      -0.64613399
H        0.84978799      -0.28727756      -1.68475558
H       -2.56879568      -0.24109270      -1.08749619
H       -1.80212057      -1.81397144      -0.93162734
H       -1.90544158      -0.72564228       0.48518043
H       -0.00389056       1.96086258      -1.01363878
16
Frame=16 idx=011319 GeodesicLength=0.9928041338293291 rxn_smarts="[C:1]([C@@:2]1([H:11])[C@:3]([C:4]([H:13])([H:14])[H:15])([H:12])[C@:5]1([C:6]#[N:7])[H:16])([H:8])([H:9])[H:10]>>[C:1]([C:2]([C@@:5]([C:3][C:4]([H:13])([H:14])[H:15])([C:6]#[N:7])[H:16])([H:11])[H:12])([H:8])([H:9])[H:10]"
C        1.50614136      -0.65327402       0.83982824
C        1.18377220       0.20122110      -0.36560040
C       -0.51615673      -0.12121178      -1.05262265
C       -1.75812543      -0.77605114      -0.59508873
C       -0.04585760       1.10172829      -0.32805953
C       -0.62524693       1.45738601       0.94934962
N       -1.09445445       1.68317588       1.97274891
H        0.66258254      -1.24661884       1.19302593
H        2.31777499      -1.34723262       0.61472825
H        1.82614413      -0.04212054       1.68611520
H        2.03781799       0.82267796      -0.62951641
H        0.84970092      -0.26430525      -1.71059136
H       -2.56153934      -0.23497727      -1.11536149
H       -1.82268920      -1.81618330      -0.91567713
H       -1.93948899      -0.70408431       0.48089712
H       -0.02037545       1.93986984      -1.02417558
