13
Frame=0 idx=004831 GeodesicLength=0.0 rxn_smarts="[C:1]([C@@:2]1([H:10])[N:3]([H:11])[C:4]([H:12])([H:13])[C:5]1=[O:6])([H:7])([H:8])[H:9]>>[C:1]([C@@:2]1([H:10])[N+:3]([H:11])([H:12])[C:4]([H:13])=[C:5]1[O-:6])([H:7])([H:8])[H:9]"
C       -1.65258934      -0.09685346      -0.30450369
C       -0.33152790      -0.10440716       0.41951473
N        0.73609930      -0.96992560      -0.14615390
C        1.67799296       0.33812777      -0.19491558
C        0.59995686       1.12321316       0.32825981
O        0.41157593       2.28020800       0.61056388
H       -2.17240703      -1.05203931      -0.21178302
H       -1.50659240       0.11932885      -1.36420085
H       -2.28498593       0.68630520       0.11586883
H       -0.43991241      -0.36132925       1.47678179
H        1.07720422      -1.76182619       0.38036720
H        1.14890435      -0.46627394      -1.11705185
H        2.73628133       0.26547194       0.00725271
13
Frame=1 idx=004831 GeodesicLength=0.04786142259832352 rxn_smarts="[C:1]([C@@:2]1([H:10])[N:3]([H:11])[C:4]([H:12])([H:13])[C:5]1=[O:6])([H:7])([H:8])[H:9]>>[C:1]([C@@:2]1([H:10])[N+:3]([H:11])([H:12])[C:4]([H:13])=[C:5]1[O-:6])([H:7])([H:8])[H:9]"
C       -1.65210221      -0.09652308      -0.30252918
C       -0.33186135      -0.10431191       0.42316202
N        0.73793290      -0.96613159      -0.14659194
C        1.67552046       0.33371690      -0.19524701
C        0.59943523       1.12318615       0.32888578
O        0.41080321       2.28186071       0.60342114
H       -2.17053213      -1.05285020      -0.21357899
H       -1.50549646       0.12391960      -1.36128012
H       -2.28614961       0.68429214       0.11975145
H       -0.44198243      -0.36266865       1.48000349
H        1.07740869      -1.75844497       0.38056109
H        1.15462464      -0.46896213      -1.13270396
H        2.73239907       0.26291702       0.01614624
13
Frame=2 idx=004831 GeodesicLength=0.09572611239016401 rxn_smarts="[C:1]([C@@:2]1([H:10])[N:3]([H:11])[C:4]([H:12])([H:13])[C:5]1=[O:6])([H:7])([H:8])[H:9]>>[C:1]([C@@:2]1([H:10])[N+:3]([H:11])([H:12])[C:4]([H:13])=[C:5]1[O-:6])([H:7])([H:8])[H:9]"
C       -1.65160386      -0.09617101      -0.30056437
C       -0.33221614      -0.10422110       0.42686201
N        0.73969328      -0.96237106      -0.14699252
C        1.67299102       0.32936153      -0.19565300
C        0.59890262       1.12314537       0.32960804
O        0.41001233       2.28344694       0.59637403
H       -2.16868335      -1.05360084      -0.21538182
H       -1.50433672       0.12849591      -1.35835157
H       -2.28729637       0.68232175       0.12356705
H       -0.44410861      -0.36404643       1.48326024
H        1.07759892      -1.75505703       0.38080974
H        1.16062564      -0.47175296      -1.14830210
H        2.72842125       0.26044892       0.02476425
13
Frame=3 idx=004831 GeodesicLength=0.1435937224855438 rxn_smarts="[C:1]([C@@:2]1([H:10])[N:3]([H:11])[C:4]([H:12])([H:13])[C:5]1=[O:6])([H:7])([H:8])[H:9]>>[C:1]([C@@:2]1([H:10])[N+:3]([H:11])([H:12])[C:4]([H:13])=[C:5]1[O-:6])([H:7])([H:8])[H:9]"
C       -1.65109516      -0.09579687      -0.29860913
C       -0.33259361      -0.10413492       0.43061517
N        0.74137979      -0.95864436      -0.14735357
C        1.67040219       0.32506082      -0.19613375
C        0.59835768       1.12309063       0.33042753
O        0.40920264       2.28496560       0.58942948
H       -2.16686211      -1.05429043      -0.21718952
H       -1.50311270       0.13305402      -1.35541588
H       -2.28842602       0.68039712       0.12731322
H       -0.44629345      -0.36546206       1.48655210
H        1.07777762      -1.75166075       0.38111621
H        1.16691165      -0.47464580      -1.16385205
H        2.72435147       0.25806700       0.03310017
13
Frame=4 idx=004831 GeodesicLength=0.19146674837681255 rxn_smarts="[C:1]([C@@:2]1([H:10])[N:3]([H:11])[C:4]([H:12])([H:13])[C:5]1=[O:6])([H:7])([H:8])[H:9]>>[C:1]([C@@:2]1([H:10])[N+:3]([H:11])([H:12])[C:4]([H:13])=[C:5]1[O-:6])([H:7])([H:8])[H:9]"
C       -1.65057894      -0.09540132      -0.29665674
C       -0.33299202      -0.10405095       0.43441965
N        0.74299069      -0.95494968      -0.14768264
C        1.66775813       0.32081126      -0.19668521
C        0.59780246       1.12302402       0.33133724
O        0.40836901       2.28642515       0.58254581
H       -2.16506091      -1.05492663      -0.21900881
H       -1.50183537       0.13761682      -1.35246262
H       -2.28954772       0.67850237       0.13101603
H       -0.44852937      -0.36691343       1.48987751
H        1.07793839      -1.74826021       0.38146736
H        1.17349564      -0.47763372      -1.17936339
H        2.72019002       0.25575630       0.04119581
13
Frame=5 idx=004831 GeodesicLength=0.239345542152165 rxn_smarts="[C:1]([C@@:2]1([H:10])[N:3]([H:11])[C:4]([H:12])([H:13])[C:5]1=[O:6])([H:7])([H:8])[H:9]>>[C:1]([C@@:2]1([H:10])[N+:3]([H:11])([H:12])[C:4]([H:13])=[C:5]1[O-:6])([H:7])([H:8])[H:9]"
C       -1.65005661      -0.09498451      -0.29470657
C       -0.33341263      -0.10396897       0.43827551
N        0.74452524      -0.95128729      -0.14797880
C        1.66505747       0.31661210      -0.19730701
C        0.59723615       1.12294613       0.33233722
O        0.40751175       2.28782567       0.57572672
H       -2.16328175      -1.05550946      -0.22083653
H       -1.50050585       0.14218117      -1.34949204
H       -2.29066226       0.67663943       0.13467427
H       -0.45081815      -0.36840025       1.49323646
H        1.07808190      -1.74485539       0.38186411
H        1.18038462      -0.48071436      -1.19484177
H        2.71594012       0.25351574       0.04904842
13
Frame=6 idx=004831 GeodesicLength=0.2872307329030251 rxn_smarts="[C:1]([C@@:2]1([H:10])[N:3]([H:11])[C:4]([H:12])([H:13])[C:5]1=[O:6])([H:7])([H:8])[H:9]>>[C:1]([C@@:2]1([H:10])[N+:3]([H:11])([H:12])[C:4]([H:13])=[C:5]1[O-:6])([H:7])([H:8])[H:9]"
C       -1.64952955      -0.09454650      -0.29275820
C       -0.33385658      -0.10388866       0.44218268
N        0.74598278      -0.94765729      -0.14824032
C        1.66229835       0.31246240      -0.19799977
C        0.59665816       1.12285707       0.33342688
O        0.40663126       2.28916598       0.56897776
H       -2.16152647      -1.05603857      -0.22267008
H       -1.49912519       0.14674430      -1.34650434
H       -2.29177059       0.67480991       0.13828645
H       -0.45316144      -0.36992180       1.49662858
H        1.07820920      -1.74144531       0.38230876
H        1.18758548      -0.48388604      -1.21029250
H        2.71160460       0.25134451       0.05665410
13
Frame=7 idx=004831 GeodesicLength=0.3351219386692947 rxn_smarts="[C:1]([C@@:2]1([H:10])[N:3]([H:11])[C:4]([H:12])([H:13])[C:5]1=[O:6])([H:7])([H:8])[H:9]>>[C:1]([C@@:2]1([H:10])[N+:3]([H:11])([H:12])[C:4]([H:13])=[C:5]1[O-:6])([H:7])([H:8])[H:9]"
C       -1.64900024      -0.09408722      -0.29080640
C       -0.33432267      -0.10380904       0.44613818
N        0.74736158      -0.94405838      -0.14847612
C        1.65948252       0.30835989      -0.19876164
C        0.59606754       1.12275867       0.33459815
O        0.40572473       2.29044989       0.56227766
H       -2.15979339      -1.05651605      -0.22450331
H       -1.49770134       0.15131096      -1.34349368
H       -2.29287632       0.67300877       0.14186564
H       -0.45555325      -0.37147665       1.50005090
H        1.07831570      -1.73803244       0.38278887
H        1.19511350      -0.48714146      -1.22572433
H        2.70718162       0.24923305       0.06404607
13
Frame=8 idx=004831 GeodesicLength=0.38302416134556005 rxn_smarts="[C:1]([C@@:2]1([H:10])[N:3]([H:11])[C:4]([H:12])([H:13])[C:5]1=[O:6])([H:7])([H:8])[H:9]>>[C:1]([C@@:2]1([H:10])[N+:3]([H:11])([H:12])[C:4]([H:13])=[C:5]1[O-:6])([H:7])([H:8])[H:9]"
C       -1.64847133      -0.09360728      -0.28884472
C       -0.33480983      -0.10372928       0.45014288
N        0.74865936      -0.94048915      -0.14869270
C        1.65661235       0.30430189      -0.19958801
C        0.59546557       1.12265220       0.33584773
O        0.40478489       2.29168225       0.55559444
H       -2.15808010      -1.05694611      -0.22633771
H       -1.49624167       0.15589171      -1.34045229
H       -2.29398318       0.67123027       0.14542688
H       -0.45798767      -0.37306287       1.50350539
H        1.07839755      -1.73462166       0.38328974
H        1.20298504      -0.49047047      -1.24114511
H        2.70266903       0.24716849       0.07125346
13
Frame=9 idx=004831 GeodesicLength=0.4309374934710774 rxn_smarts="[C:1]([C@@:2]1([H:10])[N:3]([H:11])[C:4]([H:12])([H:13])[C:5]1=[O:6])([H:7])([H:8])[H:9]>>[C:1]([C@@:2]1([H:10])[N+:3]([H:11])([H:12])[C:4]([H:13])=[C:5]1[O-:6])([H:7])([H:8])[H:9]"
C       -1.64794136      -0.09310513      -0.28687776
C       -0.33532221      -0.10365272       0.45420163
N        0.74987679      -0.93695308      -0.14887513
C        1.65367951       0.30028872      -0.20048202
C        0.59485174       1.12253289       0.33719379
O        0.40381220       2.29285782       0.54894653
H       -2.15639082      -1.05732399      -0.22818053
H       -1.49473504       0.16048456      -1.33738372
H       -2.29508657       0.66948248       0.14895838
H       -0.46047909      -0.37468844       1.50699386
H        1.07846203      -1.73120893       0.38383365
H        1.21119779      -0.49387782      -1.25655338
H        2.69807503       0.24516364       0.07822470
13
Frame=10 idx=004831 GeodesicLength=0.4788640681975741 rxn_smarts="[C:1]([C@@:2]1([H:10])[N:3]([H:11])[C:4]([H:12])([H:13])[C:5]1=[O:6])([H:7])([H:8])[H:9]>>[C:1]([C@@:2]1([H:10])[N+:3]([H:11])([H:12])[C:4]([H:13])=[C:5]1[O-:6])([H:7])([H:8])[H:9]"
C       -1.64741269      -0.09258051      -0.28490129
C       -0.33586003      -0.10357712       0.45831466
N        0.75101116      -0.93345037      -0.14902575
C        1.65068486       0.29631717      -0.20144155
C        0.59422704       1.12240214       0.33863163
O        0.40280571       2.29398038       0.54230945
H       -2.15471877      -1.05765563      -0.23004280
H       -1.49318890       0.16510883      -1.33428036
H       -2.29619651       0.66775156       0.15247930
H       -0.46302503      -0.37634933       1.51051724
H        1.07850573      -1.72779574       0.38441763
H        1.21976682      -0.49735940      -1.27195407
H        2.69340061       0.24320802       0.08497589
13
Frame=11 idx=004831 GeodesicLength=0.5268008054145702 rxn_smarts="[C:1]([C@@:2]1([H:10])[N:3]([H:11])[C:4]([H:12])([H:13])[C:5]1=[O:6])([H:7])([H:8])[H:9]>>[C:1]([C@@:2]1([H:10])[N+:3]([H:11])([H:12])[C:4]([H:13])=[C:5]1[O-:6])([H:7])([H:8])[H:9]"
C       -1.64688904      -0.09203331      -0.28291009
C       -0.33642192      -0.10349901       0.46247790
N        0.75205989      -0.92997944      -0.14915186
C        1.64763016       0.29238214      -0.20246861
C        0.59359169       1.12226313       0.34014515
O        0.40176345       2.29505121       0.53566029
H       -2.15305644      -1.05794614      -0.23192974
H       -1.49161624       0.16978266      -1.33113246
H       -2.29732113       0.66602196       0.15601328
H       -0.46561770      -0.37803735       1.51407304
H        1.07852343      -1.72438178       0.38503239
H        1.22871482      -0.50091157      -1.28735151
H        2.68863902       0.24128751       0.09154223
13
Frame=12 idx=004831 GeodesicLength=0.5747535790363327 rxn_smarts="[C:1]([C@@:2]1([H:10])[N:3]([H:11])[C:4]([H:12])([H:13])[C:5]1=[O:6])([H:7])([H:8])[H:9]>>[C:1]([C@@:2]1([H:10])[N+:3]([H:11])([H:12])[C:4]([H:13])=[C:5]1[O-:6])([H:7])([H:8])[H:9]"
C       -1.64637206      -0.09146338      -0.28090370
C       -0.33700959      -0.10341901       0.46669175
N        0.75302152      -0.92654213      -0.14925178
C        1.64451323       0.28848307      -0.20356270
C        0.59294492       1.12211516       0.34173454
O        0.40068670       2.29606881       0.52900427
H       -2.15140693      -1.05819485      -0.23383747
H       -1.49001805       0.17450237      -1.32794093
H       -2.29846095       0.66429720       0.15955842
H       -0.46825999      -0.37975247       1.51766166
H        1.07851478      -1.72096870       0.38568139
H        1.23805288      -0.50453091      -1.30275165
H        2.68379354       0.23940482       0.09791621
13
Frame=13 idx=004831 GeodesicLength=0.6227135749793509 rxn_smarts="[C:1]([C@@:2]1([H:10])[N:3]([H:11])[C:4]([H:12])([H:13])[C:5]1=[O:6])([H:7])([H:8])[H:9]>>[C:1]([C@@:2]1([H:10])[N+:3]([H:11])([H:12])[C:4]([H:13])=[C:5]1[O-:6])([H:7])([H:8])[H:9]"
C       -1.64586387      -0.09087071      -0.27888108
C       -0.33762455      -0.10333649       0.47095525
N        0.75389440      -0.92313898      -0.14932535
C        1.64133133       0.28461813      -0.20472682
C        0.59228519       1.12195855       0.34339601
O        0.39957671       2.29703047       0.52234759
H       -2.14977294      -1.05840077      -0.23576195
H       -1.48839762       0.17926461      -1.32470472
H       -2.29961663       0.66257871       0.16311396
H       -0.47095277      -0.38149310       1.52128188
H        1.07847936      -1.71755558       0.38636536
H        1.24779674      -0.50821352      -1.31815362
H        2.67886466       0.23755869       0.10409348
13
Frame=14 idx=004831 GeodesicLength=0.670690011659625 rxn_smarts="[C:1]([C@@:2]1([H:10])[N:3]([H:11])[C:4]([H:12])([H:13])[C:5]1=[O:6])([H:7])([H:8])[H:9]>>[C:1]([C@@:2]1([H:10])[N+:3]([H:11])([H:12])[C:4]([H:13])=[C:5]1[O-:6])([H:7])([H:8])[H:9]"
C       -1.64536582      -0.09025605      -0.27684541
C       -0.33826952      -0.10325161       0.47526785
N        0.75467871      -0.91977150      -0.14936542
C        1.63807955       0.28078730      -0.20596402
C        0.59161024       1.12179320       0.34512894
O        0.39843916       2.29793042       0.51572765
H       -2.14816379      -1.05855948      -0.23768924
H       -1.48675276       0.18404691      -1.32143210
H       -2.30078483       0.66087971       0.16666030
H       -0.47370184      -0.38325799       1.52493318
H        1.07842120      -1.71414045       0.38709465
H        1.25795239      -0.51195628      -1.33356360
H        2.67385731       0.23575582       0.11004723
13
Frame=15 idx=004831 GeodesicLength=0.7186773693204881 rxn_smarts="[C:1]([C@@:2]1([H:10])[N:3]([H:11])[C:4]([H:12])([H:13])[C:5]1=[O:6])([H:7])([H:8])[H:9]>>[C:1]([C@@:2]1([H:10])[N+:3]([H:11])([H:12])[C:4]([H:13])=[C:5]1[O-:6])([H:7])([H:8])[H:9]"
C       -1.64487990      -0.08962023      -0.27479867
C       -0.33894702      -0.10316452       0.47962778
N        0.75537395      -0.91644110      -0.14936860
C        1.63475345       0.27699030      -0.20727883
C        0.59091744       1.12161895       0.34692977
O        0.39727929       2.29876401       0.50917759
H       -2.14658949      -1.05866698      -0.23960331
H       -1.48508382       0.18882698      -1.31813021
H       -2.30196163       0.65921329       0.17018061
H       -0.47651077      -0.38504584       1.52861365
H        1.07834282      -1.71072190       0.38787481
H        1.26853077      -0.51575460      -1.34898275
H        2.66877492       0.23400163       0.11575815
13
Frame=16 idx=004831 GeodesicLength=0.7666721527227366 rxn_smarts="[C:1]([C@@:2]1([H:10])[N:3]([H:11])[C:4]([H:12])([H:13])[C:5]1=[O:6])([H:7])([H:8])[H:9]>>[C:1]([C@@:2]1([H:10])[N+:3]([H:11])([H:12])[C:4]([H:13])=[C:5]1[O-:6])([H:7])([H:8])[H:9]"
C       -1.64440831      -0.08896416      -0.27274238
C       -0.33965935      -0.10307537       0.48403312
N        0.75597952      -0.91314931      -0.14933198
C        1.63134891       0.27322640      -0.20867538
C        0.59020452       1.12143550       0.34879440
O        0.39610194       2.29952773       0.50272763
H       -2.14505984      -1.05871991      -0.24148837
H       -1.48339184       0.19358374      -1.31480595
H       -2.30314360       0.65759180       0.17365995
H       -0.47938252      -0.38685511       1.53232149
H        1.07824642      -1.70729903       0.38871054
H        1.27954362      -0.51960270      -1.36441315
H        2.66362053       0.23230041       0.12121008
