14
Frame=0 idx=008375 GeodesicLength=0.0 rxn_smarts="[O:1]([C@@:2]1([H:9])[C:3]([H:10])([H:11])[N:4]([H:12])[C@:5]1([C:6](=[O:7])[H:14])[H:13])[H:8]>>[H:8][H:9].[O:1]=[C:2]1[C:3]([H:10])([H:11])[N:4]([H:12])[C@:5]1([C:6](=[O:7])[H:14])[H:13]"
O       -0.81237048      -1.46018157       1.17755088
C       -0.67596874      -0.61586631       0.19123370
C       -1.07241087       0.86380229       0.12018678
N       -0.00117169       1.07346810      -0.87603996
C        0.62903494      -0.20275090      -0.54596282
C        1.77001840      -0.14031945       0.44689740
O        2.22549714       0.89411472       0.84854716
H       -1.40761939      -1.63901311      -0.07798654
H       -1.40156472      -1.11746774      -0.89109635
H       -0.87770065       1.29996210       1.10610597
H       -2.07983514       1.12042220      -0.20713762
H        0.59943388       1.86410139      -0.67600775
H        0.94026578      -0.82217685      -1.39371912
H        2.16439160      -1.11809489       0.77742831
14
Frame=1 idx=008375 GeodesicLength=0.11426301232203995 rxn_smarts="[O:1]([C@@:2]1([H:9])[C:3]([H:10])([H:11])[N:4]([H:12])[C@:5]1([C:6](=[O:7])[H:14])[H:13])[H:8]>>[H:8][H:9].[O:1]=[C:2]1[C:3]([H:10])([H:11])[N:4]([H:12])[C@:5]1([C:6](=[O:7])[H:14])[H:13]"
O       -0.81511432      -1.46605577       1.16916310
C       -0.67599907      -0.61494880       0.19032835
C       -1.06694594       0.86644572       0.12813804
N       -0.00228208       1.06988541      -0.87692296
C        0.63198167      -0.20313762      -0.54070027
C        1.77256088      -0.13258011       0.45154161
O        2.23145350       0.90623750       0.83804234
H       -1.43223373      -1.66066290      -0.09520251
H       -1.41347788      -1.11951107      -0.90749188
H       -0.86509568       1.30436137       1.11173070
H       -2.07698208       1.12471366      -0.18987048
H        0.59959693       1.86177252      -0.68620822
H        0.94457961      -0.82944820      -1.38295341
H        2.16795821      -1.10707170       0.79040558
14
Frame=2 idx=008375 GeodesicLength=0.22823967720525667 rxn_smarts="[O:1]([C@@:2]1([H:9])[C:3]([H:10])([H:11])[N:4]([H:12])[C@:5]1([C:6](=[O:7])[H:14])[H:13])[H:8]>>[H:8][H:9].[O:1]=[C:2]1[C:3]([H:10])([H:11])[N:4]([H:12])[C@:5]1([C:6](=[O:7])[H:14])[H:13]"
O       -0.81821017      -1.47218432       1.16047825
C       -0.67576648      -0.61371360       0.18987322
C       -1.06145064       0.86919747       0.13611013
N       -0.00333047       1.06636186      -0.87762394
C        0.63501970      -0.20340981      -0.53525170
C        1.77518088      -0.12468673       0.45632511
O        2.23797618       0.91832926       0.82695292
H       -1.45768038      -1.68296930      -0.11291851
H       -1.42542070      -1.12164953      -0.92375717
H       -0.85264707       1.30901115       1.11729353
H       -2.07403336       1.12879104      -0.17275564
H        0.59974122       1.85944719      -0.69621194
H        0.94884442      -0.83671253      -1.37187486
H        2.17177688      -1.09581215       0.80336060
14
Frame=3 idx=008375 GeodesicLength=0.3420627950363025 rxn_smarts="[O:1]([C@@:2]1([H:9])[C:3]([H:10])([H:11])[N:4]([H:12])[C@:5]1([C:6](=[O:7])[H:14])[H:13])[H:8]>>[H:8][H:9].[O:1]=[C:2]1[C:3]([H:10])([H:11])[N:4]([H:12])[C@:5]1([C:6](=[O:7])[H:14])[H:13]"
O       -0.82169877      -1.47859024       1.15144405
C       -0.67524969      -0.61213280       0.18991228
C       -1.05591951       0.87208505       0.14411044
N       -0.00430964       1.06290367      -0.87814098
C        0.63815843      -0.20355539      -0.52960267
C        1.77788405      -0.11661743       0.46126501
O        2.24508309       0.93038003       0.81525475
H       -1.48402947      -1.70605152      -0.13119947
H       -1.43739857      -1.12391230      -0.93985087
H       -0.84034725       1.31394911       1.12279917
H       -2.07099156       1.13267097      -0.15578655
H        0.59987879       1.85713204      -0.70602872
H        0.95306502      -0.84396910      -1.36045667
H        2.17587508      -1.08429211       0.81628023
14
Frame=4 idx=008375 GeodesicLength=0.4558633490833869 rxn_smarts="[O:1]([C@@:2]1([H:9])[C:3]([H:10])([H:11])[N:4]([H:12])[C@:5]1([C:6](=[O:7])[H:14])[H:13])[H:8]>>[H:8][H:9].[O:1]=[C:2]1[C:3]([H:10])([H:11])[N:4]([H:12])[C@:5]1([C:6](=[O:7])[H:14])[H:13]"
O       -0.82563010      -1.48529924       1.14199474
C       -0.67442228      -0.61017256       0.19050040
C       -1.05034473       0.87514104       0.15214893
N       -0.00521233       1.05951771      -0.87847143
C        0.64140861      -0.20355984      -0.52373534
C        1.78068084      -0.10834177       0.46637981
O        2.25279118       0.94237393       0.80291689
H       -1.51135797      -1.73004375      -0.15013086
H       -1.44941790      -1.12633672      -0.95571612
H       -0.82818565       1.31922168       1.12825297
H       -2.06785864       1.13636946      -0.13895532
H        0.60002261       1.85483429      -0.71566979
H        0.95724403      -0.85121733      -1.34866719
H        2.18028233      -1.07248689       0.82915232
14
Frame=5 idx=008375 GeodesicLength=0.5696685272220318 rxn_smarts="[O:1]([C@@:2]1([H:9])[C:3]([H:10])([H:11])[N:4]([H:12])[C@:5]1([C:6](=[O:7])[H:14])[H:13])[H:8]>>[H:8][H:9].[O:1]=[C:2]1[C:3]([H:10])([H:11])[N:4]([H:12])[C@:5]1([C:6](=[O:7])[H:14])[H:13]"
O       -0.83004914      -1.49233848       1.13206834
C       -0.67325876      -0.60780380       0.19169242
C       -1.04471549       0.87839509       0.16023653
N       -0.00603201       1.05620606      -0.87861522
C        0.64478011      -0.20341339      -0.51763508
C        1.78358336      -0.09984067       0.47167809
O        2.26110666       0.95431225       0.78993067
H       -1.53974046      -1.75505557      -0.16981308
H       -1.46149119      -1.12896702      -0.97128691
H       -0.81614423       1.32487240       1.13365839
H       -2.06463296       1.13990481      -0.12224728
H        0.60018415       1.85255541      -0.72515230
H        0.96138235      -0.85845951      -1.33648007
H        2.18502763      -1.06036758       0.84196550
14
Frame=6 idx=008375 GeodesicLength=0.683614148015209 rxn_smarts="[O:1]([C@@:2]1([H:9])[C:3]([H:10])([H:11])[N:4]([H:12])[C@:5]1([C:6](=[O:7])[H:14])[H:13])[H:8]>>[H:8][H:9].[O:1]=[C:2]1[C:3]([H:10])([H:11])[N:4]([H:12])[C@:5]1([C:6](=[O:7])[H:14])[H:13]"
O       -0.83501711      -1.49972903       1.12156987
C       -0.67172683      -0.60498619       0.19356452
C       -1.03902048       0.88188686       0.16838944
N       -0.00676268       1.05297348      -0.87856794
C        0.64828414      -0.20310009      -0.51127712
C        1.78660842      -0.09107198       0.47717749
O        2.27004688       0.96617525       0.77625876
H       -1.56926745      -1.78125782      -0.19037243
H       -1.47363263      -1.13184779      -0.98648599
H       -0.80420519       1.33096229       1.13902260
H       -2.06131293       1.14329868      -0.10564492
H        0.60037675       1.85029907      -0.73449596
H        0.96547973      -0.86569761      -1.32385196
H        2.19014938      -1.04790513       0.85471362
14
Frame=7 idx=008375 GeodesicLength=0.7977190987053723 rxn_smarts="[O:1]([C@@:2]1([H:9])[C:3]([H:10])([H:11])[N:4]([H:12])[C@:5]1([C:6](=[O:7])[H:14])[H:13])[H:8]>>[H:8][H:9].[O:1]=[C:2]1[C:3]([H:10])([H:11])[N:4]([H:12])[C@:5]1([C:6](=[O:7])[H:14])[H:13]"
O       -0.84059067      -1.50748042       1.11041484
C       -0.66979618      -0.60168660       0.19619054
C       -1.03324306       0.88565224       0.17662505
N       -0.00740006       1.04981843      -0.87832863
C        0.65192998      -0.20261032      -0.50464164
C        1.78977634      -0.08200883       0.48288175
O        2.27960688       0.97795776       0.76189553
H       -1.60000621      -1.80880119      -0.21193354
H       -1.48586485      -1.13502037      -1.00124223
H       -0.79234036       1.33754794       1.14435039
H       -2.05789197       1.14657317      -0.08912323
H        0.60061181       1.84806189      -0.74372542
H        0.96953185      -0.87293667      -1.31074940
H        2.19567649      -1.03506703       0.86738599
14
Frame=8 idx=008375 GeodesicLength=0.9120335504967548 rxn_smarts="[O:1]([C@@:2]1([H:9])[C:3]([H:10])([H:11])[N:4]([H:12])[C@:5]1([C:6](=[O:7])[H:14])[H:13])[H:8]>>[H:8][H:9].[O:1]=[C:2]1[C:3]([H:10])([H:11])[N:4]([H:12])[C@:5]1([C:6](=[O:7])[H:14])[H:13]"
O       -0.84683502      -1.51561010       1.09849329
C       -0.66743141      -0.59786602       0.19967135
C       -1.02736796       0.88973030       0.18496792
N       -0.00794271       1.04673357      -0.87789148
C        0.65572779      -0.20193411      -0.49769566
C        1.79311396      -0.07260711       0.48880164
O        2.28979322       0.98965075       0.74680614
H       -1.63205017      -1.83784823      -0.23468233
H       -1.49821200      -1.13853472      -1.01545983
H       -0.78051793       1.34470294       1.14964688
H       -2.05436466       1.14975179      -0.07264985
H        0.60089729       1.84583492      -0.75287195
H        0.97353323      -0.88018751      -1.29711879
H        2.20165637      -1.02181647       0.87998267
14
Frame=9 idx=008375 GeodesicLength=1.0265650010667595 rxn_smarts="[O:1]([C@@:2]1([H:9])[C:3]([H:10])([H:11])[N:4]([H:12])[C@:5]1([C:6](=[O:7])[H:14])[H:13])[H:8]>>[H:8][H:9].[O:1]=[C:2]1[C:3]([H:10])([H:11])[N:4]([H:12])[C@:5]1([C:6](=[O:7])[H:14])[H:13]"
O       -0.85379864      -1.52409025       1.08570873
C       -0.66460203      -0.59350114       0.20408400
C       -1.02137391       0.89415414       0.19343892
N       -0.00838716       1.04371466      -0.87725696
C        0.65968415      -0.20106775      -0.49042331
C        1.79664158      -0.06285141       0.49492135
O        2.30059267       1.00126216       0.73101318
H       -1.66546881      -1.86859243      -0.25872939
H       -1.51070337      -1.14240781      -1.02908810
H       -0.76869827       1.35248585       1.15491208
H       -2.05071822       1.15285742      -0.05618717
H        0.60124472       1.84361247      -0.76196199
H        0.97747309      -0.88745676      -1.28293184
H        2.20811419      -1.00811916       0.89250050
14
Frame=10 idx=008375 GeodesicLength=1.141298320412146 rxn_smarts="[O:1]([C@@:2]1([H:9])[C:3]([H:10])([H:11])[N:4]([H:12])[C@:5]1([C:6](=[O:7])[H:14])[H:13])[H:8]>>[H:8][H:9].[O:1]=[C:2]1[C:3]([H:10])([H:11])[N:4]([H:12])[C@:5]1([C:6](=[O:7])[H:14])[H:13]"
O       -0.86158063      -1.53292440       1.07192311
C       -0.66125986      -0.58854851       0.20958096
C       -1.01523962       0.89896512       0.20207751
N       -0.00874172       1.04073392      -0.87641253
C        0.66380800      -0.20000925      -0.48277057
C        1.80040343      -0.05267780       0.50125531
O        2.31200594       1.01278141       0.71445563
H       -1.70034696      -1.90117639      -0.28438613
H       -1.52338407      -1.14672139      -1.04198341
H       -0.75683557       1.36099308       1.16015372
H       -2.04694182       1.15591373      -0.03968272
H        0.60164972       1.84136290      -0.77104481
H        0.98134171      -0.89476725      -1.26810593
H        2.21512145      -0.99392515       0.90493987
14
Frame=11 idx=008375 GeodesicLength=1.2561728953869102 rxn_smarts="[O:1]([C@@:2]1([H:9])[C:3]([H:10])([H:11])[N:4]([H:12])[C@:5]1([C:6](=[O:7])[H:14])[H:13])[H:8]>>[H:8][H:9].[O:1]=[C:2]1[C:3]([H:10])([H:11])[N:4]([H:12])[C@:5]1([C:6](=[O:7])[H:14])[H:13]"
O       -0.87025431      -1.54207621       1.05702962
C       -0.65736700      -0.58298259       0.21630238
C       -1.00894053       0.90419522       0.21092398
N       -0.00901753       1.03775690      -0.87534970
C        0.66810131      -0.19876862      -0.47469401
C        1.80443697      -0.04205416       0.50779186
O        2.32401586       1.02422644       0.69712165
H       -1.73673980      -1.93574496      -0.31193312
H       -1.53630637      -1.15152160      -1.05404457
H       -0.74487492       1.37031060       1.16537140
H       -2.04301883       1.15894371      -0.02307375
H        0.60210715       1.83904836      -0.78017225
H        0.98511897      -0.90214788      -1.25257447
H        2.22273902      -0.97918521       0.91730099
14
Frame=12 idx=008375 GeodesicLength=1.3711414744755024 rxn_smarts="[O:1]([C@@:2]1([H:9])[C:3]([H:10])([H:11])[N:4]([H:12])[C@:5]1([C:6](=[O:7])[H:14])[H:13])[H:8]>>[H:8][H:9].[O:1]=[C:2]1[C:3]([H:10])([H:11])[N:4]([H:12])[C@:5]1([C:6](=[O:7])[H:14])[H:13]"
O       -0.87990866      -1.55148413       1.04090838
C       -0.65287625      -0.57677874       0.22442231
C       -1.00245071       0.90987396       0.22003039
N       -0.00923535       1.03473297      -0.87405304
C        0.67256458      -0.19736071      -0.46613191
C        1.80878990      -0.03092805       0.51452256
O        2.33660885       1.03559808       0.67895716
H       -1.77468477      -1.97243910      -0.34173266
H       -1.54953474      -1.15685787      -1.06515551
H       -0.73275242       1.38053840       1.17056659
H       -2.03893107       1.16196725      -0.00627988
H        0.60259712       1.83661379      -0.78940459
H        0.98878332      -0.90963711      -1.23624567
H        2.23103020      -0.96383875       0.92959587
14
Frame=13 idx=008375 GeodesicLength=1.4860780446186488 rxn_smarts="[O:1]([C@@:2]1([H:9])[C:3]([H:10])([H:11])[N:4]([H:12])[C@:5]1([C:6](=[O:7])[H:14])[H:13])[H:8]>>[H:8][H:9].[O:1]=[C:2]1[C:3]([H:10])([H:11])[N:4]([H:12])[C@:5]1([C:6](=[O:7])[H:14])[H:13]"
O       -0.89060641      -1.56106315       1.02348487
C       -0.64775161      -0.56992879       0.23410752
C       -0.99574423       0.91601753       0.22944855
N       -0.00942061       1.03159860      -0.87251055
C        0.67719198      -0.19581517      -0.45702832
C        1.81350829      -0.01927171       0.52142045
O        2.34974765       1.04692792       0.65994965
H       -1.81419336      -2.01134374      -0.37414534
H       -1.56314229      -1.16276722      -1.07522669
H       -0.72039834       1.39176572       1.17573166
H       -2.03465939       1.16500030       0.01078693
H        0.60309571       1.83399251      -0.79880992
H        0.99230730      -0.91728351      -1.21903685
H        2.24006530      -0.94782928       0.94182806
14
Frame=14 idx=008375 GeodesicLength=1.6009324933842044 rxn_smarts="[O:1]([C@@:2]1([H:9])[C:3]([H:10])([H:11])[N:4]([H:12])[C@:5]1([C:6](=[O:7])[H:14])[H:13])[H:8]>>[H:8][H:9].[O:1]=[C:2]1[C:3]([H:10])([H:11])[N:4]([H:12])[C@:5]1([C:6](=[O:7])[H:14])[H:13]"
O       -0.90242755      -1.57068221       1.00467353
C       -0.64194573      -0.56242949       0.24557863
C       -0.98879695       0.92263505       0.23924876
N       -0.00961461       1.02826271      -0.87069358
C        0.68197526      -0.19417011      -0.44729533
C        1.81864858      -0.00702684       0.52846737
O        2.36340888       1.05821978       0.64001240
H       -1.85526577      -2.05252838      -0.40964987
H       -1.57721270      -1.16928823      -1.08416453
H       -0.70773959       1.40409906       1.18085879
H       -2.03018370       1.16805237       0.02823620
H        0.60355331       1.83108538      -0.80846511
H        0.99566264      -0.92515029      -1.20081874
H        2.24993793      -0.93107879       0.95401149
14
Frame=15 idx=008375 GeodesicLength=1.7156198578656587 rxn_smarts="[O:1]([C@@:2]1([H:9])[C:3]([H:10])([H:11])[N:4]([H:12])[C@:5]1([C:6](=[O:7])[H:14])[H:13])[H:8]>>[H:8][H:9].[O:1]=[C:2]1[C:3]([H:10])([H:11])[N:4]([H:12])[C@:5]1([C:6](=[O:7])[H:14])[H:13]"
O       -0.91543355      -1.58017276       0.98443550
C       -0.63541585      -0.55429163       0.25906805
C       -0.98158240       0.92972201       0.24950814
N       -0.00986859       1.02461003      -0.86857641
C        0.68689898      -0.19248225      -0.43684275
C        1.82426831       0.00584402       0.53562642
O        2.37754956       1.06950976       0.61907814
H       -1.89786119      -2.09599778      -0.44877596
H       -1.59184657      -1.17645616      -1.09188481
H       -0.69469259       1.41764058       1.18593201
H       -2.02548164       1.17112599       0.04619520
H        0.60390897       1.82777207      -0.81846122
H        0.99881243      -0.93331966      -1.18145933
H        2.26074412      -0.91350425       0.96615702
14
Frame=16 idx=008375 GeodesicLength=1.830061000275061 rxn_smarts="[O:1]([C@@:2]1([H:9])[C:3]([H:10])([H:11])[N:4]([H:12])[C@:5]1([C:6](=[O:7])[H:14])[H:13])[H:8]>>[H:8][H:9].[O:1]=[C:2]1[C:3]([H:10])([H:11])[N:4]([H:12])[C@:5]1([C:6](=[O:7])[H:14])[H:13]"
O       -0.92967215      -1.58931839       0.96278460
C       -0.62811534      -0.54554318       0.27483598
C       -0.97407718       0.93725617       0.26031491
N       -0.01025106       1.02049823      -0.86612347
C        0.69194217      -0.19082386      -0.42556245
C        1.83042878       0.01938998       0.54285468
O        2.39212517       1.08081948       0.59703201
H       -1.94190273      -2.14167321      -0.49215135
H       -1.60715346      -1.18431261      -1.09831160
H       -0.68117226       1.43249056       1.19092872
H       -2.02053133       1.17421094       0.06481072
H        0.60407466       1.82390214      -0.82889966
H        1.00171809      -0.94189084      -1.16079824
H        2.27258661      -0.89500541       0.97828516
