15
Frame=0 idx=009603 GeodesicLength=0.0 rxn_smarts="[O:1]([C@@:2]1([H:9])[C:3]([H:10])([H:11])[C@@:4]2([O:5][H:12])[C:6]([H:13])([H:14])[C@@:7]12[H:15])[H:8]>>[O:1]([C@@:2]([C:3]([H:10])([H:11])[H:12])([C@@:7]1([H:15])[C:4](=[O:5])[C:6]1([H:13])[H:14])[H:9])[H:8]"
O        2.03649496       0.37718449      -0.48110665
C        0.95713443       0.34435737       0.42485739
C       -0.16782815       1.27006569      -0.07328348
C       -1.16071158      -0.24860629       0.18273101
O       -2.34076021      -0.00632065       0.68663979
C       -0.57748979      -1.17302980      -0.81142241
C        0.14491078      -0.92458214       0.50975762
H        2.66807164      -0.30052798      -0.23186669
H        1.28097579       0.65148023       1.42421887
H       -0.28775439       2.16432393       0.54584534
H       -0.11579512       1.53169092      -1.12611584
H       -1.49137461       0.99003833       0.31445878
H       -1.14031710      -2.09858783      -0.84774136
H       -0.12659698      -0.86548715      -1.74737665
H        0.32104038      -1.71199913       1.23040433
15
Frame=1 idx=009603 GeodesicLength=0.08902852506337976 rxn_smarts="[O:1]([C@@:2]1([H:9])[C:3]([H:10])([H:11])[C@@:4]2([O:5][H:12])[C:6]([H:13])([H:14])[C@@:7]12[H:15])[H:8]>>[O:1]([C@@:2]([C:3]([H:10])([H:11])[H:12])([C@@:7]1([H:15])[C:4](=[O:5])[C:6]1([H:13])[H:14])[H:9])[H:8]"
O        2.03735192       0.37746656      -0.47904682
C        0.95691495       0.34666884       0.42578616
C       -0.16729765       1.27373499      -0.07084682
C       -1.16326305      -0.25791689       0.18433825
O       -2.34116389      -0.01172515       0.68709908
C       -0.57912265      -1.17871550      -0.81202454
C        0.14627426      -0.92458925       0.50688129
H        2.66756456      -0.30124797      -0.22911270
H        1.28102198       0.64977391       1.42635580
H       -0.27087840       2.17263051       0.54385322
H       -0.11518581       1.53213363      -1.12486966
H       -1.50879968       1.00713248       0.31249871
H       -1.13331039      -2.10936539      -0.84933277
H       -0.13451827      -0.86401156      -1.74865807
H        0.32441213      -1.71196919       1.22707887
15
Frame=2 idx=009603 GeodesicLength=0.17797985402041366 rxn_smarts="[O:1]([C@@:2]1([H:9])[C:3]([H:10])([H:11])[C@@:4]2([O:5][H:12])[C:6]([H:13])([H:14])[C@@:7]12[H:15])[H:8]>>[O:1]([C@@:2]([C:3]([H:10])([H:11])[H:12])([C@@:7]1([H:15])[C:4](=[O:5])[C:6]1([H:13])[H:14])[H:9])[H:8]"
O        2.03812689       0.37783549      -0.47698682
C        0.95664509       0.34892422       0.42674716
C       -0.16690255       1.27734324      -0.06822711
C       -1.16578261      -0.26763957       0.18605710
O       -2.34154737      -0.01660694       0.68713365
C       -0.58065336      -1.18457513      -0.81263163
C        0.14771478      -0.92472312       0.50398328
H        2.66705097      -0.30182386      -0.22640517
H        1.28102616       0.64797197       1.42851916
H       -0.25365328       2.18091705       0.54159246
H       -0.11481442       1.53244714      -1.12345970
H       -1.52654895       1.02485007       0.31087156
H       -1.12606253      -2.12028591      -0.85102491
H       -0.14252617      -0.86257634      -1.74989089
H        0.32792733      -1.71205830       1.22372185
15
Frame=3 idx=009603 GeodesicLength=0.26688312720512075 rxn_smarts="[O:1]([C@@:2]1([H:9])[C:3]([H:10])([H:11])[C@@:4]2([O:5][H:12])[C:6]([H:13])([H:14])[C@@:7]12[H:15])[H:8]>>[O:1]([C@@:2]([C:3]([H:10])([H:11])[H:12])([C@@:7]1([H:15])[C:4](=[O:5])[C:6]1([H:13])[H:14])[H:9])[H:8]"
O        2.03881305       0.37829574      -0.47492782
C        0.95631986       0.35111925       0.42774256
C       -0.16665480       1.28088421      -0.06541044
C       -1.16826758      -0.27780488       0.18789712
O       -2.34190789      -0.02093089       0.68669670
C       -0.58207266      -1.19061985      -0.81324396
C        0.14923818      -0.92499311       0.50106463
H        2.66652964      -0.30224760      -0.22374787
H        1.28098597       0.64607009       1.43070977
H       -0.23606613       2.18917036       0.53903872
H       -0.11470187       1.53262086      -1.12187354
H       -1.54463544       1.04325799       0.30961751
H       -1.11855716      -2.13136086      -0.85282472
H       -0.15062222      -0.86118622      -1.75107102
H        0.33159906      -1.71227511       1.22033235
15
Frame=4 idx=009603 GeodesicLength=0.35576728932313256 rxn_smarts="[O:1]([C@@:2]1([H:9])[C:3]([H:10])([H:11])[C@@:4]2([O:5][H:12])[C:6]([H:13])([H:14])[C@@:7]12[H:15])[H:8]>>[O:1]([C@@:2]([C:3]([H:10])([H:11])[H:12])([C@@:7]1([H:15])[C:4](=[O:5])[C:6]1([H:13])[H:14])[H:9])[H:8]"
O        2.03940219       0.37885213      -0.47287056
C        0.95593361       0.35324919       0.42877554
C       -0.16656806       1.28435175      -0.06237956
C       -1.17071573      -0.28844661       0.18987040
O       -2.34224048      -0.02465739       0.68573244
C       -0.58337076      -1.19686154      -0.81386136
C        0.15085072      -0.92540930       0.49812698
H        2.66599897      -0.30250983      -0.22114418
H        1.28089939       0.64406348       1.43292864
H       -0.21810361       2.19737238       0.53615802
H       -0.11487200       1.53264212      -1.12009593
H       -1.56307186       1.06243015       0.30878435
H       -1.11077583      -2.14260280      -0.85473969
H       -0.15880922      -0.85984379      -1.75219359
H        0.33544268      -1.71262992       1.21690848
15
Frame=5 idx=009603 GeodesicLength=0.444653871597292 rxn_smarts="[O:1]([C@@:2]1([H:9])[C:3]([H:10])([H:11])[C@@:4]2([O:5][H:12])[C:6]([H:13])([H:14])[C@@:7]12[H:15])[H:8]>>[O:1]([C@@:2]([C:3]([H:10])([H:11])[H:12])([C@@:7]1([H:15])[C:4](=[O:5])[C:6]1([H:13])[H:14])[H:9])[H:8]"
O        2.03988562       0.37950899      -0.47081673
C        0.95548010       0.35530920       0.42984832
C       -0.16665608       1.28773842      -0.05911922
C       -1.17312481      -0.29960133       0.19198956
O       -2.34253554      -0.02774218       0.68418009
C       -0.58453753      -1.20331290      -0.81448332
C        0.15255845      -0.92598216       0.49517233
H        2.66545723      -0.30260157      -0.21859799
H        1.28076333       0.64194786       1.43517660
H       -0.19975943       2.20550470       0.53292250
H       -0.11534932       1.53249731      -1.11811348
H       -1.58186807       1.08244648       0.30842397
H       -1.10269852      -2.15402440      -0.85677873
H       -0.16708964      -0.85855542      -1.75325301
H        0.33947420      -1.71313299       1.21344911
15
Frame=6 idx=009603 GeodesicLength=0.5335669504258017 rxn_smarts="[O:1]([C@@:2]1([H:9])[C:3]([H:10])([H:11])[C@@:4]2([O:5][H:12])[C:6]([H:13])([H:14])[C@@:7]12[H:15])[H:8]>>[O:1]([C@@:2]([C:3]([H:10])([H:11])[H:12])([C@@:7]1([H:15])[C:4](=[O:5])[C:6]1([H:13])[H:14])[H:9])[H:8]"
O        2.04025348       0.38027074      -0.46876723
C        0.95495213       0.35729363       0.43096436
C       -0.16693432       1.29103744      -0.05561038
C       -1.17549366      -0.31130921       0.19427039
O       -2.34277900      -0.03013557       0.68196687
C       -0.58556296      -1.20998668      -0.81510909
C        0.15436750      -0.92672272       0.49220301
H        2.66490210      -0.30251249      -0.21611179
H        1.28057415       0.63971849       1.43745507
H       -0.18102722       2.21354112       0.52929158
H       -0.11616169       1.53217100      -1.11590954
H       -1.60103390       1.10339587       0.30859909
H       -1.09430202      -2.16564042      -0.85895018
H       -0.17546799      -0.85732508      -1.75424257
H        0.34371340      -1.71379612       1.20995039
15
Frame=7 idx=009603 GeodesicLength=0.6225258184631836 rxn_smarts="[O:1]([C@@:2]1([H:9])[C:3]([H:10])([H:11])[C@@:4]2([O:5][H:12])[C:6]([H:13])([H:14])[C@@:7]12[H:15])[H:8]>>[O:1]([C@@:2]([C:3]([H:10])([H:11])[H:12])([C@@:7]1([H:15])[C:4](=[O:5])[C:6]1([H:13])[H:14])[H:9])[H:8]"
O        2.04049342       0.38114179      -0.46672426
C        0.95434111       0.35919650       0.43212592
C       -0.16742017       1.29423906      -0.05183646
C       -1.17782220      -0.32361606       0.19673058
O       -2.34294774      -0.03177807       0.67900270
C       -0.58643627      -1.21689808      -0.81573697
C        0.15628391      -0.92764297       0.48922211
H        2.66433004      -0.30223146      -0.21368956
H        1.28032750       0.63737081       1.43976418
H       -0.16190887       2.22145827       0.52523479
H       -0.11733931       1.53164582      -1.11346944
H       -1.62057323       1.12537636       0.30938306
H       -1.08556156      -2.17746891      -0.86126194
H       -0.18394868      -0.85616107      -1.75515426
H        0.34818204      -1.71463199       1.20640956
15
Frame=8 idx=009603 GeodesicLength=0.7115183966497722 rxn_smarts="[O:1]([C@@:2]1([H:9])[C:3]([H:10])([H:11])[C@@:4]2([O:5][H:12])[C:6]([H:13])([H:14])[C@@:7]12[H:15])[H:8]>>[O:1]([C@@:2]([C:3]([H:10])([H:11])[H:12])([C@@:7]1([H:15])[C:4](=[O:5])[C:6]1([H:13])[H:14])[H:9])[H:8]"
O        2.04059583       0.38212386      -0.46468954
C        0.95363970       0.36101248       0.43333548
C       -0.16812686       1.29733809      -0.04778143
C       -1.18011108      -0.33656325       0.19938792
O       -2.34301364      -0.03261163       0.67519814
C       -0.58714823      -1.22405921      -0.81636487
C        0.15831160      -0.92875208       0.48623343
H        2.66373812      -0.30175094      -0.21133293
H        1.28001951       0.63490226       1.44210399
H       -0.14241567       2.22922227       0.52071179
H       -0.11890955       1.53090526      -1.11077950
H       -1.64049274       1.14847757       0.31085715
H       -1.07645096      -2.18952258      -0.86372342
H       -0.19253664      -0.85507058      -1.75597906
H        0.35290061      -1.71565153       1.20282285
15
Frame=9 idx=009603 GeodesicLength=0.8005335765062097 rxn_smarts="[O:1]([C@@:2]1([H:9])[C:3]([H:10])([H:11])[C@@:4]2([O:5][H:12])[C:6]([H:13])([H:14])[C@@:7]12[H:15])[H:8]>>[O:1]([C@@:2]([C:3]([H:10])([H:11])[H:12])([C@@:7]1([H:15])[C:4](=[O:5])[C:6]1([H:13])[H:14])[H:9])[H:8]"
O        2.04054553       0.38322033      -0.46266714
C        0.95283605       0.36273599       0.43459468
C       -0.16907296       1.30032624      -0.04342939
C       -1.18236552      -0.35020150       0.20226504
O       -2.34292895      -0.03256373       0.67042489
C       -0.58768887      -1.23148594      -0.81698866
C        0.16045326      -0.93006021       0.48324281
H        2.66311869      -0.30106146      -0.20904720
H        1.27964334       0.63231024       1.44447399
H       -0.12256941       2.23679897       0.51568677
H       -0.12090459       1.52992922      -1.10782634
H       -1.66078117       1.17280384       0.31312964
H       -1.06694127      -2.20182149      -0.86634085
H       -0.20123693      -0.85406337      -1.75670678
H        0.35789281      -1.71686715       1.19918855
15
Frame=10 idx=009603 GeodesicLength=0.8895685129258407 rxn_smarts="[O:1]([C@@:2]1([H:9])[C:3]([H:10])([H:11])[C@@:4]2([O:5][H:12])[C:6]([H:13])([H:14])[C@@:7]12[H:15])[H:8]>>[O:1]([C@@:2]([C:3]([H:10])([H:11])[H:12])([C@@:7]1([H:15])[C:4](=[O:5])[C:6]1([H:13])[H:14])[H:9])[H:8]"
O        2.04033112       0.38442945      -0.46065713
C        0.95192100       0.36436126       0.43590595
C       -0.17027117       1.30319793      -0.03876784
C       -1.18458835      -0.36457731       0.20538186
O       -2.34265344      -0.03157866       0.66459037
C       -0.58805062      -1.23919026      -0.81760528
C        0.16270965      -0.93157596       0.48025540
H        2.66246767      -0.30015793      -0.20682979
H        1.27919291       0.62959330       1.44687336
H       -0.10238660       2.24415681       0.51012248
H       -0.12335352       1.52869997      -1.10459918
H       -1.68144567       1.19845886       0.31628369
H       -1.05700011      -2.21437849      -0.86912716
H       -0.21005663      -0.85315001      -1.75732535
H        0.36318376      -1.71828896       1.19549863
15
Frame=11 idx=009603 GeodesicLength=0.9785950205437093 rxn_smarts="[O:1]([C@@:2]1([H:9])[C:3]([H:10])([H:11])[C@@:4]2([O:5][H:12])[C:6]([H:13])([H:14])[C@@:7]12[H:15])[H:8]>>[O:1]([C@@:2]([C:3]([H:10])([H:11])[H:12])([C@@:7]1([H:15])[C:4](=[O:5])[C:6]1([H:13])[H:14])[H:9])[H:8]"
O        2.03994036       0.38574874      -0.45866264
C        0.95088375       0.36588336       0.43726951
C       -0.17173312       1.30595049      -0.03378757
C       -1.18678618      -0.37973718       0.20875857
O       -2.34212717      -0.02959088       0.65757048
C       -0.58822521      -1.24718398      -0.81821070
C        0.16507831      -0.93330526       0.47727820
H        2.66177740      -0.29903807      -0.20468135
H        1.27866015       0.62675222       1.44930049
H       -0.08190504       2.25125471       0.50398295
H       -0.12628432       1.52719869      -1.10109088
H       -1.70247851       1.22554211       0.32043647
H       -1.04659481      -2.22720857      -0.87208988
H       -0.21900008      -0.85234208      -1.75782328
H        0.36879447      -1.71992431       1.19174962
15
Frame=12 idx=009603 GeodesicLength=1.0676033607728812 rxn_smarts="[O:1]([C@@:2]1([H:9])[C:3]([H:10])([H:11])[C@@:4]2([O:5][H:12])[C:6]([H:13])([H:14])[C@@:7]12[H:15])[H:8]>>[O:1]([C@@:2]([C:3]([H:10])([H:11])[H:12])([C@@:7]1([H:15])[C:4](=[O:5])[C:6]1([H:13])[H:14])[H:9])[H:8]"
O        2.03935803       0.38717375      -0.45668533
C        0.94971059       0.36729769       0.43868568
C       -0.17347191       1.30858092      -0.02848184
C       -1.18897034      -0.39573222       0.21241822
O       -2.34127263      -0.02653626       0.64923260
C       -0.58820731      -1.25547981      -0.81879942
C        0.16755359      -0.93525289       0.47431932
H        2.66103775      -0.29770089      -0.20259917
H        1.27803416       0.62378915       1.45175301
H       -0.06116419       2.25805556       0.49723197
H       -0.12972540       1.52540696      -1.09729597
H       -1.72386991       1.25416074       0.32571208
H       -1.03568803      -2.24032639      -0.87523991
H       -0.22807370      -0.85165517      -1.75818637
H        0.37474931      -1.72178112       1.18793512
15
Frame=13 idx=009603 GeodesicLength=1.156552470914922 rxn_smarts="[O:1]([C@@:2]1([H:9])[C:3]([H:10])([H:11])[C@@:4]2([O:5][H:12])[C:6]([H:13])([H:14])[C@@:7]12[H:15])[H:8]>>[O:1]([C@@:2]([C:3]([H:10])([H:11])[H:12])([C@@:7]1([H:15])[C:4](=[O:5])[C:6]1([H:13])[H:14])[H:9])[H:8]"
O        2.03857257       0.38869624      -0.45472604
C        0.94838888       0.36860185       0.44015339
C       -0.17549334       1.31109196      -0.02285123
C       -1.19115376      -0.41260339       0.21637747
O       -2.34000484      -0.02236232       0.63945999
C       -0.58799371      -1.26408628      -0.81936664
C        0.17012471      -0.93741829       0.47138698
H        2.66023792      -0.29615136      -0.20057774
H        1.27730368       0.62070913       1.45422728
H       -0.04021533       2.26452297       0.48984002
H       -0.13369587       1.52331118      -1.09321590
H       -1.74560834       1.28439700       0.33223041
H       -1.02424769      -2.25374271      -0.87858589
H       -0.23728094      -0.85110418      -1.75840126
H        0.38106607      -1.72386180       1.18404916
15
Frame=14 idx=009603 GeodesicLength=1.2454367322539883 rxn_smarts="[O:1]([C@@:2]1([H:9])[C:3]([H:10])([H:11])[C@@:4]2([O:5][H:12])[C:6]([H:13])([H:14])[C@@:7]12[H:15])[H:8]>>[O:1]([C@@:2]([C:3]([H:10])([H:11])[H:12])([C@@:7]1([H:15])[C:4](=[O:5])[C:6]1([H:13])[H:14])[H:9])[H:8]"
O        2.03756963       0.39030520      -0.45278551
C        0.94690229       0.36979354       0.44167009
C       -0.17780430       1.31348874      -0.01690114
C       -1.19335489      -0.43039692       0.22065327
O       -2.33821068      -0.01700881       0.62811160
C       -0.58758146      -1.27301298      -0.81990723
C        0.17277486      -0.93979916       0.46849179
H        2.65936262      -0.29439856      -0.19860947
H        1.27645176       0.61751993       1.45671904
H       -0.01912046       2.27061699       0.48177172
H       -0.13821647       1.52089570      -1.08885660
H       -1.76767692       1.31633849       0.34014853
H       -1.01223284      -2.26746744      -0.88213834
H       -0.24662407      -0.85070926      -1.75845369
H        0.38776094      -1.72616547       1.18008593
15
Frame=15 idx=009603 GeodesicLength=1.334248573003252 rxn_smarts="[O:1]([C@@:2]1([H:9])[C:3]([H:10])([H:11])[C@@:4]2([O:5][H:12])[C:6]([H:13])([H:14])[C@@:7]12[H:15])[H:8]>>[O:1]([C@@:2]([C:3]([H:10])([H:11])[H:12])([C@@:7]1([H:15])[C:4](=[O:5])[C:6]1([H:13])[H:14])[H:9])[H:8]"
O        2.03633647       0.39198546      -0.45086302
C        0.94523340       0.37087345       0.44323126
C       -0.18040611       1.31578240      -0.01064749
C       -1.19559785      -0.44914959       0.22525565
O       -2.33575712      -0.01043370       0.61506320
C       -0.58697167      -1.28226592      -0.82041616
C        0.17547956      -0.94238690       0.46564497
H        2.65839398      -0.29245869      -0.19668276
H        1.27545887       0.61423304       1.45922192
H        0.00205302       2.27630637       0.47300367
H       -0.14329725       1.51815236      -1.08423343
H       -1.79005765       1.35004623       0.34961764
H       -0.99960750      -2.28150730      -0.88590573
H       -0.25610253      -0.85049147      -1.75833025
H        0.39484238      -1.72868576       1.17604052
15
Frame=16 idx=009603 GeodesicLength=1.423002434208082 rxn_smarts="[O:1]([C@@:2]1([H:9])[C:3]([H:10])([H:11])[C@@:4]2([O:5][H:12])[C:6]([H:13])([H:14])[C@@:7]12[H:15])[H:8]>>[O:1]([C@@:2]([C:3]([H:10])([H:11])[H:12])([C@@:7]1([H:15])[C:4](=[O:5])[C:6]1([H:13])[H:14])[H:9])[H:8]"
O        2.03486391       0.39371752      -0.44895601
C        0.94336527       0.37184476       0.44483111
C       -0.18329258       1.31799213      -0.00411285
C       -1.19790949      -0.46888680       0.23018702
O       -2.33250281      -0.00261636       0.60021900
C       -0.58616867      -1.29184665      -0.82089019
C        0.17820734      -0.94516671       0.46285743
H        2.65731311      -0.29035518      -0.19478139
H        1.27430251       0.61086328       1.46172997
H        0.02323314       2.28156113       0.46351020
H       -0.14893826       1.51507961      -1.07936728
H       -1.81273336       1.38555743       0.36078261
H       -0.98633784      -2.29586130      -0.88989740
H       -0.26571137      -0.85047329      -1.75801974
H        0.40230910      -1.73140958       1.17190752
