14
Frame=0 idx=009205 GeodesicLength=0.0 rxn_smarts="[O:1]([C:2]([C:3]#[C:4][C@@:5]1([H:11])[C:6]([H:12])([H:13])[N:7]1[H:14])([H:9])[H:10])[H:8]>>[H:10][H:14].[O:1]([C:2](=[C:3]=[C:4]1[C@@:5]2([H:11])[C:6]([H:12])([H:13])[N:7]12)[H:9])[H:8]"
O        2.76078832      -0.84691768       0.93716181
C        2.02782228      -0.37726404      -0.06918979
C        1.20941069       0.71992840       0.04014240
C        0.05200901       1.08778892       0.22674024
C       -1.36241786       1.05477339       0.35519848
C       -1.98005628       0.33635798      -0.78288220
N       -1.46455345      -0.40418268       0.33990015
H        2.42210612      -0.49974800       1.76989780
H        2.39750049      -0.71527334      -1.02946450
H        0.58634208      -1.50450112      -0.23197434
H       -1.91317734       1.66935416       1.05718322
H       -1.46453959       0.31256446      -1.74069037
H       -3.06540730       0.37923706      -0.84346161
H       -0.20582720      -1.21211750      -0.02856130
14
Frame=1 idx=009205 GeodesicLength=0.09298423734039843 rxn_smarts="[O:1]([C:2]([C:3]#[C:4][C@@:5]1([H:11])[C:6]([H:12])([H:13])[N:7]1[H:14])([H:9])[H:10])[H:8]>>[H:10][H:14].[O:1]([C:2](=[C:3]=[C:4]1[C@@:5]2([H:11])[C:6]([H:12])([H:13])[N:7]12)[H:9])[H:8]"
O        2.78502454      -0.83297282       0.94652001
C        2.03172459      -0.39036989      -0.06137135
C        1.20746721       0.70471654       0.04124860
C        0.04608145       1.07325600       0.20865598
C       -1.36752420       1.05745134       0.34994476
C       -1.99639204       0.35459899      -0.79096227
N       -1.46786184      -0.40215456       0.31589004
H        2.45218607      -0.47616530       1.77726922
H        2.42495817      -0.70355965      -1.02146075
H        0.58743130      -1.54421285      -0.21608482
H       -1.90511274       1.65761528       1.07380369
H       -1.49039335       0.33845286      -1.75379311
H       -3.08211584       0.39676174      -0.83999970
H       -0.22547331      -1.23341768      -0.02966029
14
Frame=2 idx=009205 GeodesicLength=0.18561062761559083 rxn_smarts="[O:1]([C:2]([C:3]#[C:4][C@@:5]1([H:11])[C:6]([H:12])([H:13])[N:7]1[H:14])([H:9])[H:10])[H:8]>>[H:10][H:14].[O:1]([C:2](=[C:3]=[C:4]1[C@@:5]2([H:11])[C:6]([H:12])([H:13])[N:7]12)[H:9])[H:8]"
O        2.80912795      -0.81795553       0.95582034
C        2.03586443      -0.40394944      -0.05352987
C        1.20548437       0.68890397       0.04185511
C        0.04037247       1.05814020       0.18971449
C       -1.37205108       1.05949623       0.34483603
C       -2.01272817       0.37351341      -0.79905644
N       -1.47111857      -0.40049238       0.29050825
H        2.48144665      -0.45126732       1.78406574
H        2.45215747      -0.69132979      -1.01283922
H        0.58851521      -1.58491497      -0.19824254
H       -1.89594412       1.64418236       1.09070956
H       -1.51663346       0.36594085      -1.76695959
H       -3.09872579       0.41502079      -0.83617101
H       -0.24576734      -1.25528838      -0.03071085
14
Frame=3 idx=009205 GeodesicLength=0.2778827635957734 rxn_smarts="[O:1]([C:2]([C:3]#[C:4][C@@:5]1([H:11])[C:6]([H:12])([H:13])[N:7]1[H:14])([H:9])[H:10])[H:8]>>[H:10][H:14].[O:1]([C:2](=[C:3]=[C:4]1[C@@:5]2([H:11])[C:6]([H:12])([H:13])[N:7]12)[H:9])[H:8]"
O        2.83300385      -0.80186003       0.96498635
C        2.04028819      -0.41790305      -0.04571279
C        1.20346279       0.67253515       0.04194422
C        0.03489043       1.04246034       0.16994877
C       -1.37597266       1.06083220       0.33988829
C       -2.02898218       0.39311438      -0.80715843
N       -1.47429052      -0.39919068       0.26365156
H        2.50977504      -0.42509851       1.79020840
H        2.47889491      -0.67868328      -1.00366171
H        0.58960605      -1.62652529      -0.17824698
H       -1.88566873       1.62888226       1.10784254
H       -1.54316352       0.39514296      -1.78011856
H       -3.11513205       0.43396948      -0.83200338
H       -0.26671161      -1.27767592      -0.03156825
14
Frame=4 idx=009205 GeodesicLength=0.369914931243696 rxn_smarts="[O:1]([C:2]([C:3]#[C:4][C@@:5]1([H:11])[C:6]([H:12])([H:13])[N:7]1[H:14])([H:9])[H:10])[H:8]>>[H:10][H:14].[O:1]([C:2](=[C:3]=[C:4]1[C@@:5]2([H:11])[C:6]([H:12])([H:13])[N:7]12)[H:9])[H:8]"
O        2.85654134      -0.78468460       0.97395862
C        2.04503883      -0.43212894      -0.03796564
C        1.20139607       0.65564933       0.04146689
C        0.02964283       1.02623741       0.14940370
C       -1.37926175       1.06137477       0.33511747
C       -2.04507465       0.41342381      -0.81525321
N       -1.47734433      -0.39824405       0.23520863
H        2.53705800      -0.39765550       1.79563292
H        2.50499933      -0.66576079      -0.99399198
H        0.59074066      -1.66895478      -0.15594563
H       -1.87427650       1.61148755       1.12513126
H       -1.56988247       0.42619862      -1.79319618
H       -3.13123205       0.45357736      -0.82750427
H       -0.28834531      -1.30052020      -0.03206257
14
Frame=5 idx=009205 GeodesicLength=0.4616530949739136 rxn_smarts="[O:1]([C:2]([C:3]#[C:4][C@@:5]1([H:11])[C:6]([H:12])([H:13])[N:7]1[H:14])([H:9])[H:10])[H:8]>>[H:10][H:14].[O:1]([C:2](=[C:3]=[C:4]1[C@@:5]2([H:11])[C:6]([H:12])([H:13])[N:7]12)[H:9])[H:8]"
O        2.87968747      -0.76644528       0.98262941
C        2.05013210      -0.44652436      -0.03033047
C        1.19928399       0.63831276       0.04042805
C        0.02462691       1.00951097       0.12819363
C       -1.38191965       1.06103334       0.33055898
C       -2.06088454       0.43445368      -0.82334952
N       -1.48024237      -0.39764509       0.20504433
H        2.56330061      -0.36897737       1.80022517
H        2.53021550      -0.65273060      -0.98395727
H        0.59190436      -1.71210477      -0.13104392
H       -1.86188719       1.59181394       1.14251993
H       -1.59660684       0.45926462      -1.80609769
H       -3.14690744       0.47376178      -0.82277297
H       -0.31070291      -1.32372361      -0.03204766
14
Frame=6 idx=009205 GeodesicLength=0.5532703738410043 rxn_smarts="[O:1]([C:2]([C:3]#[C:4][C@@:5]1([H:11])[C:6]([H:12])([H:13])[N:7]1[H:14])([H:9])[H:10])[H:8]>>[H:10][H:14].[O:1]([C:2](=[C:3]=[C:4]1[C@@:5]2([H:11])[C:6]([H:12])([H:13])[N:7]12)[H:9])[H:8]"
O        2.90236027      -0.74718098       0.99091014
C        2.05559123      -0.46098691      -0.02285285
C        1.19711514       0.62056298       0.03880437
C        0.01984694       0.99232357       0.10642204
C       -1.38394641       1.05972408       0.32621804
C       -2.07631253       0.45621638      -0.83142344
N       -1.48294444      -0.39735773       0.17305232
H        2.58844639      -0.33908176       1.80391554
H        2.55440292      -0.63973813      -0.97366850
H        0.59314155      -1.75584079      -0.10346182
H       -1.84859263       1.56963118       1.15987912
H       -1.62317160       0.49447510      -1.81871860
H       -3.16203864       0.49446056      -0.81783988
H       -0.33389819      -1.34720756      -0.03123649
14
Frame=7 idx=009205 GeodesicLength=0.6447104844718781 rxn_smarts="[O:1]([C:2]([C:3]#[C:4][C@@:5]1([H:11])[C:6]([H:12])([H:13])[N:7]1[H:14])([H:9])[H:10])[H:8]>>[H:10][H:14].[O:1]([C:2](=[C:3]=[C:4]1[C@@:5]2([H:11])[C:6]([H:12])([H:13])[N:7]12)[H:9])[H:8]"
O        2.92452746      -0.72692098       0.99868616
C        2.06140117      -0.47544198      -0.01556261
C        1.19488531       0.60245469       0.03660159
C        0.01530196       0.97473679       0.08422674
C       -1.38536113       1.05735390       0.32212556
C       -2.09123353       0.47870477      -0.83947237
N       -1.48540236      -0.39734926       0.13910497
H        2.61254390      -0.30799881       1.80658991
H        2.57738332      -0.62693930      -0.96328385
H        0.59441559      -1.80003009      -0.07297098
H       -1.83457252       1.54473950       1.17714564
H       -1.64933547       0.53198287      -1.83093931
H       -3.17650316       0.51556185      -0.81282123
H       -0.35805055      -1.37085394      -0.02943022
14
Frame=8 idx=009205 GeodesicLength=0.7361262036794727 rxn_smarts="[O:1]([C:2]([C:3]#[C:4][C@@:5]1([H:11])[C:6]([H:12])([H:13])[N:7]1[H:14])([H:9])[H:10])[H:8]>>[H:10][H:14].[O:1]([C:2](=[C:3]=[C:4]1[C@@:5]2([H:11])[C:6]([H:12])([H:13])[N:7]12)[H:9])[H:8]"
O        2.94619862      -0.70570936       1.00579874
C        2.06755266      -0.48981164      -0.00849946
C        1.19257839       0.58401929       0.03386945
C        0.01098430       0.95681059       0.06180707
C       -1.38621403       1.05383546       0.31828915
C       -2.10551917       0.50191453      -0.84748362
N       -1.48757068      -0.39755896       0.10309425
H        2.63568384      -0.27578020       1.80813196
H        2.59899246      -0.61446860      -0.95294785
H        0.59576456      -1.84453497      -0.03939921
H       -1.82005746       1.51693124       1.19415655
H       -1.67483374       0.57193611      -1.84262304
H       -3.19018140       0.53695333      -0.80782805
H       -0.38337835      -1.39453682      -0.02636597
14
Frame=9 idx=009205 GeodesicLength=0.8276984941403868 rxn_smarts="[O:1]([C:2]([C:3]#[C:4][C@@:5]1([H:11])[C:6]([H:12])([H:13])[N:7]1[H:14])([H:9])[H:10])[H:8]>>[H:10][H:14].[O:1]([C:2](=[C:3]=[C:4]1[C@@:5]2([H:11])[C:6]([H:12])([H:13])[N:7]12)[H:9])[H:8]"
O        2.96739227      -0.68379918       1.01221129
C        2.07416964      -0.50390354      -0.00174766
C        1.19018558       0.56526567       0.03081274
C        0.00682192       0.93848623       0.03947389
C       -1.38660490       1.04929776       0.31461327
C       -2.11914931       0.52564008      -0.85537641
N       -1.48941159      -0.39789372       0.06538906
H        2.65784343      -0.24290415       1.80857908
H        2.61933739      -0.60212979      -0.94289584
H        0.59742012      -1.88908647      -0.00368510
H       -1.80539534       1.48690057       1.21053170
H       -1.69937582       0.61406759      -1.85355590
H       -3.20310753       0.55835100      -0.80304435
H       -0.41012585      -1.41829206      -0.02130576
14
Frame=10 idx=009205 GeodesicLength=0.9192063297813872 rxn_smarts="[O:1]([C:2]([C:3]#[C:4][C@@:5]1([H:11])[C:6]([H:12])([H:13])[N:7]1[H:14])([H:9])[H:10])[H:8]>>[H:10][H:14].[O:1]([C:2](=[C:3]=[C:4]1[C@@:5]2([H:11])[C:6]([H:12])([H:13])[N:7]12)[H:9])[H:8]"
O        2.98812532      -0.66106635       1.01768549
C        2.08104060      -0.51782618       0.00472354
C        1.18770952       0.54626760       0.02737721
C        0.00288759       0.92002507       0.01730781
C       -1.38655082       1.04347396       0.31120127
C       -2.13188644       0.54997233      -0.86320228
N       -1.49077045      -0.39827887       0.02552855
H        2.67926131      -0.20906469       1.80769729
H        2.63808121      -0.59026770      -0.93322042
H        0.59916973      -1.93365188       0.03526015
H       -1.79071919       1.45365826       1.22636458
H       -1.72271766       0.65878571      -1.86361055
H       -3.21501416       0.57967824      -0.79858746
H       -0.43861657      -1.44170549      -0.01452519
14
Frame=11 idx=009205 GeodesicLength=1.010726711024225 rxn_smarts="[O:1]([C:2]([C:3]#[C:4][C@@:5]1([H:11])[C:6]([H:12])([H:13])[N:7]1[H:14])([H:9])[H:10])[H:8]>>[H:10][H:14].[O:1]([C:2](=[C:3]=[C:4]1[C@@:5]2([H:11])[C:6]([H:12])([H:13])[N:7]12)[H:9])[H:8]"
O        3.00844489      -0.63756783       1.02208514
C        2.08811807      -0.53154978       0.01091536
C        1.18515894       0.52707499       0.02365670
C       -0.00081135       0.90157099      -0.00451394
C       -1.38611554       1.03633240       0.30806515
C       -2.14360229       0.57481712      -0.87093362
N       -1.49153416      -0.39859699      -0.01646762
H        2.70006432      -0.17436278       1.80539049
H        2.65512021      -0.57896483      -0.92405633
H        0.60102781      -1.97807798       0.07765942
H       -1.77625517       1.41705825       1.24156179
H       -1.74461230       0.70604710      -1.87257938
H       -3.22580119       0.60071952      -0.79461160
H       -0.46920225      -1.46450018      -0.00617155
14
Frame=12 idx=009205 GeodesicLength=1.102196058095952 rxn_smarts="[O:1]([C:2]([C:3]#[C:4][C@@:5]1([H:11])[C:6]([H:12])([H:13])[N:7]1[H:14])([H:9])[H:10])[H:8]>>[H:10][H:14].[O:1]([C:2](=[C:3]=[C:4]1[C@@:5]2([H:11])[C:6]([H:12])([H:13])[N:7]12)[H:9])[H:8]"
O        3.02841541      -0.61341237       1.02524948
C        2.09534967      -0.54504847       0.01685028
C        1.18253981       0.50774119       0.01983313
C       -0.00425225       0.88327210      -0.02575758
C       -1.38537872       1.02783780       0.30521292
C       -2.15416674       0.60004475      -0.87850361
N       -1.49156843      -0.39870765      -0.06049424
H        2.72044551      -0.13892820       1.80156572
H        2.67037054      -0.56824713      -0.91552813
H        0.60298472      -2.02215199       0.12367879
H       -1.76229408       1.37709807       1.25590252
H       -1.76481509       0.75571973      -1.88022567
H       -3.23537516       0.62122217      -0.79124369
H       -0.50225518      -1.48643999       0.00346006
14
Frame=13 idx=009205 GeodesicLength=1.1936823551689404 rxn_smarts="[O:1]([C:2]([C:3]#[C:4][C@@:5]1([H:11])[C:6]([H:12])([H:13])[N:7]1[H:14])([H:9])[H:10])[H:8]>>[H:10][H:14].[O:1]([C:2](=[C:3]=[C:4]1[C@@:5]2([H:11])[C:6]([H:12])([H:13])[N:7]12)[H:9])[H:8]"
O        3.04816182      -0.58871431       1.02697329
C        2.10265949      -0.55830649       0.02258189
C        1.17985759       0.48833887       0.01619508
C       -0.00744400       0.86528833      -0.04611635
C       -1.38446071       1.01800605       0.30267331
C       -2.16345892       0.62549461      -0.88585718
N       -1.49069648      -0.39845645      -0.10632560
H        2.74076582      -0.10291017       1.79609410
H        2.68364115      -0.55815497      -0.90777960
H        0.60503146      -2.06565352       0.17369447
H       -1.74919203       1.33383907       1.26923155
H       -1.78301660       0.80756097      -1.88632904
H       -3.24365934       0.64090122      -0.78869343
H       -0.53818925      -1.50723322       0.01365751
14
Frame=14 idx=009205 GeodesicLength=1.2850057839991778 rxn_smarts="[O:1]([C:2]([C:3]#[C:4][C@@:5]1([H:11])[C:6]([H:12])([H:13])[N:7]1[H:14])([H:9])[H:10])[H:8]>>[H:10][H:14].[O:1]([C:2](=[C:3]=[C:4]1[C@@:5]2([H:11])[C:6]([H:12])([H:13])[N:7]12)[H:9])[H:8]"
O        3.06775599      -0.56355000       1.02725119
C        2.11008196      -0.57132578       0.02817170
C        1.17713109       0.46884677       0.01287137
C       -0.01035573       0.84768526      -0.06546591
C       -1.38341668       1.00690154       0.30045610
C       -2.17147540       0.65095857      -0.89284573
N       -1.48891569      -0.39768674      -0.15357606
H        2.76107919      -0.06636880       1.78897911
H        2.69503383      -0.54871597      -0.90083016
H        0.60719700      -2.10836689       0.22788051
H       -1.73707477       1.28760233       1.28139941
H       -1.79914379       0.86118363      -1.89062368
H       -3.25066853       0.65959632      -0.78695101
H       -0.57722847      -1.52676026       0.02328316
14
Frame=15 idx=009205 GeodesicLength=1.3759833378085393 rxn_smarts="[O:1]([C:2]([C:3]#[C:4][C@@:5]1([H:11])[C:6]([H:12])([H:13])[N:7]1[H:14])([H:9])[H:10])[H:8]>>[H:10][H:14].[O:1]([C:2](=[C:3]=[C:4]1[C@@:5]2([H:11])[C:6]([H:12])([H:13])[N:7]12)[H:9])[H:8]"
O        3.08729310      -0.53802899       1.02604720
C        2.11763081      -0.58410175       0.03367681
C        1.17438550       0.44927814       0.01007646
C       -0.01297812       0.83055064      -0.08364595
C       -1.38231957       0.99464797       0.29858214
C       -2.17821294       0.67621579      -0.89935343
N       -1.48619617      -0.39625807      -0.20176197
H        2.78154208      -0.02945716       1.78021984
H        2.70457664      -0.53991706      -0.89474735
H        0.60944578      -2.15003617       0.28653786
H       -1.72610889       1.23878599       1.29233282
H       -1.81312185       0.91606648      -1.89288585
H       -3.25643379       0.67713354      -0.78607838
H       -0.61950260      -1.54487935       0.03099982
14
Frame=16 idx=009205 GeodesicLength=1.4664965043555773 rxn_smarts="[O:1]([C:2]([C:3]#[C:4][C@@:5]1([H:11])[C:6]([H:12])([H:13])[N:7]1[H:14])([H:9])[H:10])[H:8]>>[H:10][H:14].[O:1]([C:2](=[C:3]=[C:4]1[C@@:5]2([H:11])[C:6]([H:12])([H:13])[N:7]12)[H:9])[H:8]"
O        3.10689311      -0.51218990       1.02337168
C        2.12534866      -0.59667863       0.03919245
C        1.17162006       0.42955050       0.00798173
C       -0.01532059       0.81385823      -0.10052325
C       -1.38124261       0.98134260       0.29708244
C       -2.18373938       0.70112290      -0.90525857
N       -1.48260412      -0.39405093      -0.25041772
H        2.80233121       0.00787729       1.76978248
H        2.71234651      -0.53182226      -0.88953791
H        0.61179977      -2.19043539       0.35003690
H       -1.71639590       1.18773012       1.30198652
H       -1.82493570       0.97180668      -1.89294740
H       -3.26104246       0.69351191      -0.78608327
H       -0.66505857      -1.56162312       0.03533391
