19
Frame=0 idx=007844 GeodesicLength=0.0 rxn_smarts="[C:1]([O:2][C:3]([C:4]1([C:5]([H:13])([H:14])[H:15])[C:6]([H:16])([H:17])[C:7]1([H:18])[H:19])([H:11])[H:12])([H:8])([H:9])[H:10]>>[C:1]([O:2][C:6]([C:7]([C:4](=[C:3]([H:11])[H:12])[C:5]([H:13])([H:14])[H:15])([H:18])[H:19])([H:16])[H:17])([H:8])([H:9])[H:10]"
C        2.42147230      -0.39436318      -0.60282359
O        1.16759835       0.23431848      -0.40801475
C        0.49798651       0.12336898       1.06186260
C       -0.89301517       0.12572136       0.80296514
C       -1.71719603       1.37838534       0.82649168
C       -0.45300770      -0.49224481      -1.26021103
C       -1.29785253      -0.97035503      -0.15788852
H        2.40630625      -1.43387318      -0.24794099
H        3.20724084       0.14832031      -0.07200403
H        2.65712756      -0.38227222      -1.66799340
H        0.93716059      -0.82924161       1.38355012
H        0.87932681       0.95827604       1.64645671
H       -1.24498272       2.14080809       1.44947619
H       -2.71802132       1.19788838       1.23644543
H       -1.87056563       1.83525295      -0.16448689
H        0.20334114      -1.14031468      -1.83148082
H       -0.77235984       0.40367745      -1.77400580
H       -1.04668583      -1.98105242       0.17055929
H       -2.36387353      -0.92230017      -0.39095734
19
Frame=1 idx=007844 GeodesicLength=0.08252218461428963 rxn_smarts="[C:1]([O:2][C:3]([C:4]1([C:5]([H:13])([H:14])[H:15])[C:6]([H:16])([H:17])[C:7]1([H:18])[H:19])([H:11])[H:12])([H:8])([H:9])[H:10]>>[C:1]([O:2][C:6]([C:7]([C:4](=[C:3]([H:11])[H:12])[C:5]([H:13])([H:14])[H:15])([H:18])[H:19])([H:16])[H:17])([H:8])([H:9])[H:10]"
C        2.43223257      -0.38191038      -0.61183857
O        1.17205164       0.22635292      -0.40346332
C        0.49011388       0.10930665       1.08433223
C       -0.89459246       0.12548133       0.79499341
C       -1.70746960       1.38513563       0.81315690
C       -0.45639076      -0.49027531      -1.24988240
C       -1.30718389      -0.97652068      -0.15282637
H        2.42959137      -1.42899518      -0.27961649
H        3.21196229       0.15830234      -0.06952639
H        2.66778109      -0.34342111      -1.67664641
H        0.91633819      -0.85082944       1.40008323
H        0.86806459       0.93461885       1.68463412
H       -1.22645277       2.15502923       1.41979667
H       -2.70446701       1.21335200       1.23562703
H       -1.86927434       1.83144656      -0.18060990
H        0.18393436      -1.15144860      -1.82490943
H       -0.78259108       0.39622033      -1.77647655
H       -1.05110259      -1.98408581       0.18012972
H       -2.37254551      -0.92775935      -0.38695749
19
Frame=2 idx=007844 GeodesicLength=0.16504207021311113 rxn_smarts="[C:1]([O:2][C:3]([C:4]1([C:5]([H:13])([H:14])[H:15])[C:6]([H:16])([H:17])[C:7]1([H:18])[H:19])([H:11])[H:12])([H:8])([H:9])[H:10]>>[C:1]([O:2][C:6]([C:7]([C:4](=[C:3]([H:11])[H:12])[C:5]([H:13])([H:14])[H:15])([H:18])[H:19])([H:16])[H:17])([H:8])([H:9])[H:10]"
C        2.44304118      -0.36892602      -0.62104289
O        1.17655656       0.21783450      -0.39909807
C        0.48173030       0.09501012       1.10694986
C       -0.89589427       0.12502353       0.78709248
C       -1.69709841       1.39178800       0.79969982
C       -0.45973326      -0.48890360      -1.23960414
C       -1.31668388      -0.98260093      -0.14767574
H        2.45318532      -1.42327083      -0.31266796
H        3.21650694       0.16820276      -0.06663609
H        2.67833167      -0.30291947      -1.68482134
H        0.89473605      -0.87231300       1.41735099
H        0.85565264       0.91078756       1.72274945
H       -1.20684914       2.16865641       1.38966397
H       -2.69008267       1.22924599       1.23474281
H       -1.86741174       1.82756201      -0.19665044
H        0.16430522      -1.16314790      -1.81798923
H       -0.79266701       0.38785239      -1.77908709
H       -1.05625716      -1.98710318       0.18990901
H       -2.38136832      -0.93277833      -0.38288541
19
Frame=3 idx=007844 GeodesicLength=0.24755993721165404 rxn_smarts="[C:1]([O:2][C:3]([C:4]1([C:5]([H:13])([H:14])[H:15])[C:6]([H:16])([H:17])[C:7]1([H:18])[H:19])([H:11])[H:12])([H:8])([H:9])[H:10]>>[C:1]([O:2][C:6]([C:7]([C:4](=[C:3]([H:11])[H:12])[C:5]([H:13])([H:14])[H:15])([H:18])[H:19])([H:16])[H:17])([H:8])([H:9])[H:10]"
C        2.45388894      -0.35544845      -0.63045345
O        1.18114538       0.20870644      -0.39493207
C        0.47282792       0.08053607       1.12971861
C       -0.89690134       0.12435173       0.77926469
C       -1.68607915       1.39832603       0.78611705
C       -0.46303100      -0.48811966      -1.22938491
C       -1.32632996      -0.98859241      -0.14242115
H        2.47709252      -1.41668389      -0.34721099
H        3.22089123       0.17787285      -0.06334043
H        2.68871766      -0.26071778      -1.69246230
H        0.87231392      -0.89362913       1.43544487
H        0.84203588       0.88688363       1.76075395
H       -1.18622021       2.18162700       1.35911174
H       -2.67486287       1.24553722       1.23374163
H       -1.86494529       1.82360955      -0.21260485
H        0.14443681      -1.17539470      -1.81074416
H       -0.80256478       0.37861180      -1.78179292
H       -1.06209362      -1.99009764       0.19990975
H       -2.39032204      -0.93737865      -0.37871505
19
Frame=4 idx=007844 GeodesicLength=0.33007207000982364 rxn_smarts="[C:1]([O:2][C:3]([C:4]1([C:5]([H:13])([H:14])[H:15])[C:6]([H:16])([H:17])[C:7]1([H:18])[H:19])([H:11])[H:12])([H:8])([H:9])[H:10]>>[C:1]([O:2][C:6]([C:7]([C:4](=[C:3]([H:11])[H:12])[C:5]([H:13])([H:14])[H:15])([H:18])[H:19])([H:16])[H:17])([H:8])([H:9])[H:10]"
C        2.46476013      -0.34149230      -0.64009060
O        1.18585115       0.19890072      -0.39097437
C        0.46339666       0.06593671       1.15264722
C       -0.89759718       0.12346442       0.77151593
C       -1.67439544       1.40472911       0.77239860
C       -0.46627732      -0.48792495      -1.21922843
C       -1.33610179      -0.99449721      -0.13704645
H        2.50131161      -1.40919651      -0.38339516
H        3.22513343       0.18715600      -0.05964210
H        2.69884613      -0.21673232      -1.69948379
H        0.84902012      -0.91472367       1.45445746
H        0.82715536       0.86300477       1.79860109
H       -1.16459024       2.19388377       1.32816886
H       -2.65879466       1.26219843       1.23256045
H       -1.86182445       1.81959574      -0.22847529
H        0.12431471      -1.18818424      -1.80318984
H       -0.81225717       0.36852648      -1.78455061
H       -1.06856444      -1.99306624       0.21015101
H       -2.39938662      -0.94157872      -0.37442401
19
Frame=5 idx=007844 GeodesicLength=0.4125853760453789 rxn_smarts="[C:1]([O:2][C:3]([C:4]1([C:5]([H:13])([H:14])[H:15])[C:6]([H:16])([H:17])[C:7]1([H:18])[H:19])([H:11])[H:12])([H:8])([H:9])[H:10]>>[C:1]([O:2][C:6]([C:7]([C:4](=[C:3]([H:11])[H:12])[C:5]([H:13])([H:14])[H:15])([H:18])[H:19])([H:16])[H:17])([H:8])([H:9])[H:10]"
C        2.47565293      -0.32708788      -0.64997053
O        1.19070580       0.18835549      -0.38722945
C        0.45342656       0.05125367       1.17575225
C       -0.89796595       0.12236132       0.76384690
C       -1.66204584       1.41098272       0.75853714
C       -0.46946123      -0.48831606      -1.20913651
C       -1.34598362      -1.00031132      -0.13153837
H        2.52589332      -1.40076720      -0.42130295
H        3.22923761       0.19592549      -0.05556688
H        2.70862605      -0.17092255      -1.70587524
H        0.82479450      -0.93555673       1.47447243
H        0.81098064       0.83924595       1.83626571
H       -1.14199999       2.20536686       1.29689059
H       -2.64188861       1.27919749       1.23113314
H       -1.85800730       1.81554329      -0.24426633
H        0.10392674      -1.20150739      -1.79533743
H       -0.82171252       0.35763066      -1.78732077
H       -1.07563240      -1.99600367       0.22064430
H       -2.40854668      -0.94539015      -0.36999800
19
Frame=6 idx=007844 GeodesicLength=0.4951059001557733 rxn_smarts="[C:1]([O:2][C:3]([C:4]1([C:5]([H:13])([H:14])[H:15])[C:6]([H:16])([H:17])[C:7]1([H:18])[H:19])([H:11])[H:12])([H:8])([H:9])[H:10]>>[C:1]([O:2][C:6]([C:7]([C:4](=[C:3]([H:11])[H:12])[C:5]([H:13])([H:14])[H:15])([H:18])[H:19])([H:16])[H:17])([H:8])([H:9])[H:10]"
C        2.48655033      -0.31223760      -0.66012490
O        1.19574572       0.17697797      -0.38370005
C        0.44289941       0.03653041       1.19905538
C       -0.89798768       0.12103774       0.75626128
C       -1.64900109       1.41706322       0.74451426
C       -0.47257279      -0.48931482      -1.19910542
C       -1.35596035      -1.00603967      -0.12587764
H        2.55081437      -1.39127481      -0.46116516
H        3.23324521       0.20400728      -0.05113623
H        2.71792583      -0.12316429      -1.71146569
H        0.79955816      -0.95608678       1.49558737
H        0.79345610       0.81570282       1.87372819
H       -1.11844039       2.21602136       1.26530287
H       -2.62412590       1.29651125       1.22938238
H       -1.85341788       1.81144868      -0.26000284
H        0.08326068      -1.21538259      -1.78718831
H       -0.83089499       0.34593115      -1.79006728
H       -1.08327023      -1.99890808       0.23141992
H       -2.41778449      -0.94882323      -0.36541811
19
Frame=7 idx=007844 GeodesicLength=0.5776437749828951 rxn_smarts="[C:1]([O:2][C:3]([C:4]1([C:5]([H:13])([H:14])[H:15])[C:6]([H:16])([H:17])[C:7]1([H:18])[H:19])([H:11])[H:12])([H:8])([H:9])[H:10]>>[C:1]([O:2][C:6]([C:7]([C:4](=[C:3]([H:11])[H:12])[C:5]([H:13])([H:14])[H:15])([H:18])[H:19])([H:16])[H:17])([H:8])([H:9])[H:10]"
C        2.49745015      -0.29696191      -0.67057432
O        1.20100348       0.16468186      -0.38038275
C        0.43180033       0.02178951       1.22258542
C       -0.89764800       0.11948560       0.74875895
C       -1.63523510       1.42295543       0.73030732
C       -0.47559653      -0.49094400      -1.18912924
C       -1.36602968      -1.01168371      -0.12004845
H        2.57611763      -1.38060126      -0.50312609
H        3.23717356       0.21130971      -0.04639584
H        2.72659749      -0.07337787      -1.71617112
H        0.77322690      -0.97629517       1.51787157
H        0.77455665       0.79244491       1.91100107
H       -1.09390731       2.22580440       1.23345652
H       -2.60550743       1.31411989       1.22722175
H       -1.84797610       1.80732432      -0.27570967
H        0.06230833      -1.22983175      -1.77873274
H       -0.83976398       0.33343786      -1.79275617
H       -1.09147488      -2.00178005       0.24249974
H       -2.42709551      -0.95187780      -0.36067596
19
Frame=8 idx=007844 GeodesicLength=0.660206714007197 rxn_smarts="[C:1]([O:2][C:3]([C:4]1([C:5]([H:13])([H:14])[H:15])[C:6]([H:16])([H:17])[C:7]1([H:18])[H:19])([H:11])[H:12])([H:8])([H:9])[H:10]>>[C:1]([O:2][C:6]([C:7]([C:4](=[C:3]([H:11])[H:12])[C:5]([H:13])([H:14])[H:15])([H:18])[H:19])([H:16])[H:17])([H:8])([H:9])[H:10]"
C        2.50831804      -0.28121766      -0.68135469
O        1.20652650       0.15134040      -0.37725154
C        0.42009891       0.00705485       1.24638181
C       -0.89692170       0.11768824       0.74134114
C       -1.62069421       1.42863044       0.71588655
C       -0.47850710      -0.49324705      -1.17918729
C       -1.37618922      -1.01724666      -0.11403343
H        2.60180179      -1.36853770      -0.54743925
H        3.24106003       0.21768025      -0.04139462
H        2.73441994      -0.02143980      -1.71981450
H        0.74568628      -0.99615793       1.54142497
H        0.75422515       0.76954884       1.94809155
H       -1.06834178       2.23464631       1.20136796
H       -2.58600307       1.33201278       1.22455517
H       -1.84157270       1.80316292      -0.29143053
H        0.04106990      -1.24489878      -1.76993845
H       -0.84825209       0.32014126      -1.79534578
H       -1.10025576      -2.00461908       0.25391552
H       -2.43646891      -0.95454164      -0.35577460
19
Frame=9 idx=007844 GeodesicLength=0.7427494149799955 rxn_smarts="[C:1]([O:2][C:3]([C:4]1([C:5]([H:13])([H:14])[H:15])[C:6]([H:16])([H:17])[C:7]1([H:18])[H:19])([H:11])[H:12])([H:8])([H:9])[H:10]>>[C:1]([O:2][C:6]([C:7]([C:4](=[C:3]([H:11])[H:12])[C:5]([H:13])([H:14])[H:15])([H:18])[H:19])([H:16])[H:17])([H:8])([H:9])[H:10]"
C        2.51909414      -0.26486773      -0.69259264
O        1.21232396       0.13680475      -0.37425560
C        0.40779314      -0.00767769       1.27052257
C       -0.89582321       0.11564721       0.73403761
C       -1.60536460       1.43407994       0.70120677
C       -0.48129863      -0.49631960      -1.16924320
C       -1.38643642      -1.02273783      -0.10778532
H        2.62759885      -1.35462155      -0.59463331
H        3.24501105       0.22283860      -0.03632114
H        2.74153411       0.03275399      -1.72190319
H        0.71672892      -1.01566696       1.56633630
H        0.73258685       0.74703817       1.98504844
H       -1.04177055       2.24255934       1.16913660
H       -2.56563720       1.35018401       1.22123036
H       -1.83407020       1.79895421      -0.30727277
H        0.01957264      -1.26068813      -1.76073648
H       -0.85631353       0.30595103      -1.79784900
H       -1.10964866      -2.00741240       0.26576625
H       -2.44588067      -0.95681937      -0.35069226
19
Frame=10 idx=007844 GeodesicLength=0.8253019475723495 rxn_smarts="[C:1]([O:2][C:3]([C:4]1([C:5]([H:13])([H:14])[H:15])[C:6]([H:16])([H:17])[C:7]1([H:18])[H:19])([H:11])[H:12])([H:8])([H:9])[H:10]>>[C:1]([O:2][C:6]([C:7]([C:4](=[C:3]([H:11])[H:12])[C:5]([H:13])([H:14])[H:15])([H:18])[H:19])([H:16])[H:17])([H:8])([H:9])[H:10]"
C        2.52975816      -0.24793183      -0.70423719
O        1.21846097       0.12093273      -0.37138499
C        0.39482478      -0.02241195       1.29501655
C       -0.89429200       0.11332228       0.72683171
C       -1.58912321       1.43927873       0.68623690
C       -0.48393360      -0.50020100      -1.15928842
C       -1.39679140      -1.02815344      -0.10130234
H        2.65374617      -1.33876648      -0.64469570
H        3.24900173       0.22676417      -0.03118185
H        2.74740014       0.08943366      -1.72244731
H        0.68631086      -1.03481575       1.59265839
H        0.70944744       0.72495227       2.02185350
H       -1.01406366       2.24946082       1.13670058
H       -2.54430046       1.36864827       1.21719731
H       -1.82532893       1.79468765      -0.32325179
H       -0.00220660      -1.27724883      -1.75110192
H       -0.86385659       0.29087928      -1.80020803
H       -1.11970298      -2.01017386       0.27804874
H       -2.45535081      -0.95865671      -0.34544415
19
Frame=11 idx=007844 GeodesicLength=0.9078650809275103 rxn_smarts="[C:1]([O:2][C:3]([C:4]1([C:5]([H:13])([H:14])[H:15])[C:6]([H:16])([H:17])[C:7]1([H:18])[H:19])([H:11])[H:12])([H:8])([H:9])[H:10]>>[C:1]([O:2][C:6]([C:7]([C:4](=[C:3]([H:11])[H:12])[C:5]([H:13])([H:14])[H:15])([H:18])[H:19])([H:16])[H:17])([H:8])([H:9])[H:10]"
C        2.54026232      -0.23033328      -0.71632589
O        1.22497846       0.10355233      -0.36859602
C        0.38116426      -0.03717531       1.31991712
C       -0.89230168       0.11068186       0.71972884
C       -1.57187412       1.44420727       0.67092803
C       -0.48638287      -0.50497512      -1.14929379
C       -1.40727601      -1.03349322      -0.09456032
H        2.68022728      -1.32061749      -0.69786309
H        3.25306865       0.22936515      -0.02610956
H        2.75173554       0.14875737      -1.72118530
H        0.65429098      -1.05361569       1.62044946
H        0.68476704       0.70329204       2.05855003
H       -0.98511961       2.25528526       1.10406100
H       -2.52192813       1.38742945       1.21233319
H       -1.81517087       1.79035666      -0.33944677
H       -0.02426520      -1.29467514      -1.74096153
H       -0.87079623       0.27486706      -1.80240461
H       -1.13049410      -2.01290419       0.29081650
H       -2.46488571      -0.96000501      -0.34003730
19
Frame=12 idx=007844 GeodesicLength=0.9904552314657818 rxn_smarts="[C:1]([O:2][C:3]([C:4]1([C:5]([H:13])([H:14])[H:15])[C:6]([H:16])([H:17])[C:7]1([H:18])[H:19])([H:11])[H:12])([H:8])([H:9])[H:10]>>[C:1]([O:2][C:6]([C:7]([C:4](=[C:3]([H:11])[H:12])[C:5]([H:13])([H:14])[H:15])([H:18])[H:19])([H:16])[H:17])([H:8])([H:9])[H:10]"
C        2.55052426      -0.21195407      -0.72888458
O        1.23192913       0.08443831      -0.36583051
C        0.36676305      -0.05200581       1.34528367
C       -0.88981788       0.10768596       0.71273411
C       -1.55347959       1.44883440       0.65521384
C       -0.48861196      -0.51076082      -1.13921295
C       -1.41792299      -1.03875659      -0.08753252
H        2.70700417      -1.29970743      -0.75446921
H        3.25726103       0.23052102      -0.02125338
H        2.75416991       0.21094899      -1.71774990
H        0.62048928      -1.07208078       1.64978329
H        0.65849876       0.68205594       2.09516823
H       -0.95477283       2.25996984       1.07119967
H       -2.49841772       1.40656680       1.20649574
H       -1.80336834       1.78593421      -0.35595658
H       -0.04659373      -1.31310741      -1.73022006
H       -0.87702202       0.25781864      -1.80441642
H       -1.14213362      -2.01560166       0.30413467
H       -2.47449891      -0.96079954      -0.33448710
19
Frame=13 idx=007844 GeodesicLength=1.0730662747654418 rxn_smarts="[C:1]([O:2][C:3]([C:4]1([C:5]([H:13])([H:14])[H:15])[C:6]([H:16])([H:17])[C:7]1([H:18])[H:19])([H:11])[H:12])([H:8])([H:9])[H:10]>>[C:1]([O:2][C:6]([C:7]([C:4](=[C:3]([H:11])[H:12])[C:5]([H:13])([H:14])[H:15])([H:18])[H:19])([H:16])[H:17])([H:8])([H:9])[H:10]"
C        2.56042186      -0.19260788      -0.74192953
O        1.23935166       0.06329369      -0.36299169
C        0.35157171      -0.06693945       1.37120305
C       -0.88680767       0.10429073       0.70587506
C       -1.53379199       1.45314001       0.63900236
C       -0.49058833      -0.51774751      -1.12898857
C       -1.42876165      -1.04396170      -0.08015881
H        2.73376241      -1.27536603      -0.81515821
H        3.26172512       0.22986625      -0.01680800
H        2.75454309       0.27644694      -1.71155177
H        0.58465507      -1.09018660       1.68075385
H        0.63063658       0.66125200       2.13174576
H       -0.92287016       2.26350153       1.03810945
H       -2.47366384       1.42612415       1.19949670
H       -1.78964348       1.78137572      -0.37294724
H       -0.06918379      -1.33276372      -1.71874287
H       -0.88241745       0.23954671      -1.80626371
H       -1.15475285      -2.01826780       0.31813942
H       -2.48418630      -0.96099703      -0.32878527
19
Frame=14 idx=007844 GeodesicLength=1.155752096149855 rxn_smarts="[C:1]([O:2][C:3]([C:4]1([C:5]([H:13])([H:14])[H:15])[C:6]([H:16])([H:17])[C:7]1([H:18])[H:19])([H:11])[H:12])([H:8])([H:9])[H:10]>>[C:1]([O:2][C:6]([C:7]([C:4](=[C:3]([H:11])[H:12])[C:5]([H:13])([H:14])[H:15])([H:18])[H:19])([H:16])[H:17])([H:8])([H:9])[H:10]"
C        2.56982493      -0.17213214      -0.75545066
O        1.24733460       0.03979262      -0.36001075
C        0.33552081      -0.08208199       1.39772640
C       -0.88320302       0.10041778       0.69913823
C       -1.51254509       1.45708292       0.62219466
C       -0.49225731      -0.52608972      -1.11856463
C       -1.43986920      -1.04909298      -0.07242596
H        2.76061169      -1.24697768      -0.88006114
H        3.26644222       0.22751173      -0.01297879
H        2.75201638       0.34546314      -1.70221249
H        0.54662110      -1.10801472       1.71340445
H        0.60104553       0.64080679       2.16832342
H       -0.88905151       2.26572042       1.00468479
H       -2.44743344       1.44620219       1.19116540
H       -1.77364425       1.77665071      -0.39053533
H       -0.09204069      -1.35383714      -1.70639390
H       -0.88680723       0.21993279      -1.80790681
H       -1.16856530      -2.02090767       0.33288415
H       -2.49400021      -0.96044706      -0.32298103
19
Frame=15 idx=007844 GeodesicLength=1.2385438680910488 rxn_smarts="[C:1]([O:2][C:3]([C:4]1([C:5]([H:13])([H:14])[H:15])[C:6]([H:16])([H:17])[C:7]1([H:18])[H:19])([H:11])[H:12])([H:8])([H:9])[H:10]>>[C:1]([O:2][C:6]([C:7]([C:4](=[C:3]([H:11])[H:12])[C:5]([H:13])([H:14])[H:15])([H:18])[H:19])([H:16])[H:17])([H:8])([H:9])[H:10]"
C        2.57855480      -0.15028874      -0.76943896
O        1.25595951       0.01352289      -0.35677171
C        0.31853975      -0.09755101       1.42492496
C       -0.87894244       0.09598090       0.69252697
C       -1.48945486       1.46061471       0.60466796
C       -0.49355936      -0.53600431      -1.10785850
C       -1.45132432      -1.05413090      -0.06430140
H        2.78741445      -1.21371834      -0.94946323
H        3.27145925       0.22346439      -0.01008304
H        2.74590479       0.41829685      -1.68919514
H        0.50611830      -1.12561257       1.74777380
H        0.56967575       0.62062229       2.20493343
H       -0.85296041       2.26648717       0.97085953
H       -2.41949153       1.46690439       1.18126001
H       -1.75493462       1.77170683      -0.40888694
H       -0.11516245      -1.37658118      -1.69298228
H       -0.88999121       0.19877521      -1.80931933
H       -1.18382419      -2.02349888       0.34846854
H       -2.50398122      -0.95898970      -0.31711467
19
Frame=16 idx=007844 GeodesicLength=1.321551669542615 rxn_smarts="[C:1]([O:2][C:3]([C:4]1([C:5]([H:13])([H:14])[H:15])[C:6]([H:16])([H:17])[C:7]1([H:18])[H:19])([H:11])[H:12])([H:8])([H:9])[H:10]>>[C:1]([O:2][C:6]([C:7]([C:4](=[C:3]([H:11])[H:12])[C:5]([H:13])([H:14])[H:15])([H:18])[H:19])([H:16])[H:17])([H:8])([H:9])[H:10]"
C        2.58634817      -0.12674706      -0.78384891
O        1.26531739      -0.01608235      -0.35319022
C        0.30054948      -0.11346765       1.45288469
C       -0.87394364       0.09088809       0.68605837
C       -1.46413833       1.46372327       0.58622109
C       -0.49443622      -0.54786624      -1.09679385
C       -1.46322798      -1.05910693      -0.05568019
H        2.81371904      -1.17427847      -1.02429148
H        3.27690899       0.21723286      -0.00834385
H        2.73549885       0.49576632      -1.67131351
H        0.46284659      -1.14302642       1.78395923
H        0.53645175       0.60065332       2.24158184
H       -0.81408698       2.26571502       0.93641737
H       -2.38948476       1.48847049       1.16949810
H       -1.73298133       1.76646686      -0.42830170
H       -0.13856873      -1.40146752      -1.67827740
H       -0.89174431       0.17568728      -1.81056188
H       -1.20085100      -2.02606940       0.36513855
H       -2.51417699      -0.95649147      -0.31115626
