14
Frame=0 idx=000663 GeodesicLength=0.0 rxn_smarts="[O:1]([C@@:2]1([H:8])[C:3]([H:9])([H:10])[C@@:4]2([H:11])[C:5]([H:12])([H:13])[C@@:6]12[H:14])[H:7]>>[O:1]([C@@:2]1([H:8])[C:3]([H:9])([H:10])[C@:6]1([C:5]([C:4][H:11])([H:12])[H:13])[H:14])[H:7]"
O       -0.98748258       1.78438832      -0.53196224
C       -0.83883503       0.84193618       0.47733906
C       -1.17640978      -0.53960079       0.09463010
C        0.59380029      -1.41916118      -0.80185769
C        1.38599886      -0.17800272      -0.58609536
C        0.36482538      -0.04771782       0.49265880
H       -0.32802284       2.47136907      -0.41330728
H       -1.14389504       1.17736420       1.46615903
H       -1.52960421      -0.65950241      -0.91367831
H       -1.62706080      -1.18887297       0.83094710
H        0.91161642      -2.15009529      -0.04069029
H        1.32786122       0.56341914      -1.38096840
H        2.38578768      -0.25662314      -0.16348203
H        0.66142048      -0.39890064       1.47030757
14
Frame=1 idx=000663 GeodesicLength=0.045727264117407074 rxn_smarts="[O:1]([C@@:2]1([H:8])[C:3]([H:9])([H:10])[C@@:4]2([H:11])[C:5]([H:12])([H:13])[C@@:6]12[H:14])[H:7]>>[O:1]([C@@:2]1([H:8])[C:3]([H:9])([H:10])[C@:6]1([C:5]([C:4][H:11])([H:12])[H:13])[H:14])[H:7]"
O       -0.98731766       1.79260729      -0.51921899
C       -0.83730727       0.83849890       0.47868353
C       -1.17550696      -0.54209402       0.08526614
C        0.59029444      -1.42090315      -0.78030379
C        1.38129475      -0.17646394      -0.58920816
C        0.36942937      -0.04779918       0.50026217
H       -0.30943490       2.46355803      -0.41472336
H       -1.15224444       1.16555516       1.46731029
H       -1.52957068      -0.65132843      -0.92477424
H       -1.64188717      -1.18838363       0.81492596
H        0.92391823      -2.15590016      -0.03093171
H        1.30823228       0.55761272      -1.38961496
H        2.38598153      -0.24755662      -0.17720060
H        0.67411846      -0.38740296       1.47952771
14
Frame=2 idx=000663 GeodesicLength=0.09143919855436977 rxn_smarts="[O:1]([C@@:2]1([H:8])[C:3]([H:9])([H:10])[C@@:4]2([H:11])[C:5]([H:12])([H:13])[C@@:6]12[H:14])[H:7]>>[O:1]([C@@:2]1([H:8])[C:3]([H:9])([H:10])[C@:6]1([C:5]([C:4][H:11])([H:12])[H:13])[H:14])[H:7]"
O       -0.98708525       1.80076229      -0.50618522
C       -0.83572934       0.83506598       0.48013778
C       -1.17454801      -0.54448969       0.07594510
C        0.58687786      -1.42239333      -0.75873194
C        1.37652826      -0.17506578      -0.59215970
C        0.37408352      -0.04783260       0.50797756
H       -0.29161238       2.45546709      -0.41668157
H       -1.16041200       1.15369154       1.46846732
H       -1.52920283      -0.64310164      -0.93581263
H       -1.65663280      -1.18769775       0.79863934
H        0.93588774      -2.16168817      -0.02172953
H        1.28874743       0.55169196      -1.39771783
H        2.38593773      -0.23893975      -0.19084882
H        0.68716007      -0.37547014       1.48870014
14
Frame=3 idx=000663 GeodesicLength=0.1371193145488452 rxn_smarts="[O:1]([C@@:2]1([H:8])[C:3]([H:9])([H:10])[C@@:4]2([H:11])[C:5]([H:12])([H:13])[C@@:6]12[H:14])[H:7]>>[O:1]([C@@:2]1([H:8])[C:3]([H:9])([H:10])[C@:6]1([C:5]([C:4][H:11])([H:12])[H:13])[H:14])[H:7]"
O       -0.98678627       1.80884673      -0.49288515
C       -0.83410993       0.83164177       0.48169100
C       -1.17353888      -0.54679578       0.06667896
C        0.58354197      -1.42362847      -0.73715712
C        1.37171864      -0.17380863      -0.59493736
C        0.37879065      -0.04781232       0.51580200
H       -0.27459309       2.44711780      -0.41917489
H       -1.16839376       1.14179868       1.46961807
H       -1.52852838      -0.63484279      -0.94677394
H       -1.67127108      -1.18682556       0.78211688
H        0.94749656      -2.16748627      -0.01312209
H        1.26945518       0.54569069      -1.40526113
H        2.38567518      -0.23079493      -0.20438884
H        0.70054320      -0.36310093       1.49779362
14
Frame=4 idx=000663 GeodesicLength=0.18277898877447402 rxn_smarts="[O:1]([C@@:2]1([H:8])[C:3]([H:9])([H:10])[C@@:4]2([H:11])[C:5]([H:12])([H:13])[C@@:6]12[H:14])[H:7]>>[O:1]([C@@:2]1([H:8])[C:3]([H:9])([H:10])[C@:6]1([C:5]([C:4][H:11])([H:12])[H:13])[H:14])[H:7]"
O       -0.98641369       1.81685332      -0.47929121
C       -0.83244781       0.82821645       0.48335836
C       -1.17247006      -0.54900985       0.05746015
C        0.58027930      -1.42461411      -0.71556157
C        1.36685941      -0.17269124      -0.59753865
C        0.38355063      -0.04773400       0.52374429
H       -0.25836605       2.43850251      -0.42224289
H       -1.17620236       1.12984699       1.47078424
H       -1.52752976      -0.62653176      -0.95767144
H       -1.68579973      -1.18575904       0.76533592
H        0.95873594      -2.17329485      -0.00510086
H        1.25034463       0.53960676      -1.41226027
H        2.38519171      -0.22310917      -0.21782378
H        0.71426783      -0.35028201       1.50680772
14
Frame=5 idx=000663 GeodesicLength=0.2284423531418484 rxn_smarts="[O:1]([C@@:2]1([H:8])[C:3]([H:9])([H:10])[C@@:4]2([H:11])[C:5]([H:12])([H:13])[C@@:6]12[H:14])[H:7]>>[O:1]([C@@:2]1([H:8])[C:3]([H:9])([H:10])[C@:6]1([C:5]([C:4][H:11])([H:12])[H:13])[H:14])[H:7]"
O       -0.98597019       1.82480845      -0.46537950
C       -0.83075720       0.82479643       0.48514856
C       -1.17135083      -0.55113465       0.04827590
C        0.57709549      -1.42538545      -0.69392492
C        1.36195886      -0.17172173      -0.59996307
C        0.38837346      -0.04759030       0.53180951
H       -0.24293209       2.42963542      -0.42587438
H       -1.18386435       1.11783225       1.47197957
H       -1.52622134      -0.61815974      -0.96852784
H       -1.70023249      -1.18450538       0.74827420
H        0.96961823      -2.17914994       0.00234822
H        1.23140861       0.53342845      -1.41874302
H        2.38451704      -0.21587499      -0.23115590
H        0.72835680      -0.33697883       1.51573266
14
Frame=6 idx=000663 GeodesicLength=0.27412992270344627 rxn_smarts="[O:1]([C@@:2]1([H:8])[C:3]([H:9])([H:10])[C@@:4]2([H:11])[C:5]([H:12])([H:13])[C@@:6]12[H:14])[H:7]>>[O:1]([C@@:2]1([H:8])[C:3]([H:9])([H:10])[C@:6]1([C:5]([C:4][H:11])([H:12])[H:13])[H:14])[H:7]"
O       -0.98542414       1.83270455      -0.45112731
C       -0.82903310       0.82135875       0.48706378
C       -1.17016100      -0.55317123       0.03912246
C        0.57397236      -1.42592046      -0.67220701
C        1.35700223      -0.17089417      -0.60220891
C        0.39324892      -0.04737503       0.53999701
H       -0.22827002       2.42048531      -0.43007790
H       -1.19138153       1.10570046       1.47320311
H       -1.52456463      -0.60970244      -0.97933542
H       -1.71455038      -1.18307224       0.73090963
H        0.98010888      -2.18502349       0.00925059
H        1.21263896       0.52714812      -1.42472525
H        2.38362586      -0.20907593      -0.24440105
H        0.74278760      -0.32316221       1.52453626
14
Frame=7 idx=000663 GeodesicLength=0.3198090558497969 rxn_smarts="[O:1]([C@@:2]1([H:8])[C:3]([H:9])([H:10])[C@@:4]2([H:11])[C:5]([H:12])([H:13])[C@@:6]12[H:14])[H:7]>>[O:1]([C@@:2]1([H:8])[C:3]([H:9])([H:10])[C@:6]1([C:5]([C:4][H:11])([H:12])[H:13])[H:14])[H:7]"
O       -0.98476313       1.84050598      -0.43656021
C       -0.82727028       0.81790406       0.48909899
C       -1.16889983      -0.55512105       0.03002016
C        0.57090140      -1.42621380      -0.65044002
C        1.35200438      -0.17019730      -0.60425436
C        0.39818541      -0.04708800       0.54831252
H       -0.21443732       2.41105113      -0.43490298
H       -1.19874220       1.09347841       1.47444350
H       -1.52258544      -0.60117261      -0.99007059
H       -1.72873077      -1.18144069       0.71328866
H        0.99017499      -2.19094153       0.01553263
H        1.19408130       0.52082524      -1.43017896
H        2.38252713      -0.20272347      -0.25749749
H        0.75755435      -0.30886637       1.53320814
14
Frame=8 idx=000663 GeodesicLength=0.36550613943883775 rxn_smarts="[O:1]([C@@:2]1([H:8])[C:3]([H:9])([H:10])[C@@:4]2([H:11])[C:5]([H:12])([H:13])[C@@:6]12[H:14])[H:7]>>[O:1]([C@@:2]1([H:8])[C:3]([H:9])([H:10])[C@:6]1([C:5]([C:4][H:11])([H:12])[H:13])[H:14])[H:7]"
O       -0.98400577       1.84824577      -0.42166222
C       -0.82548798       0.81444318       0.49126179
C       -1.16757448      -0.55699094       0.02095586
C        0.56789104      -1.42628358      -0.62860602
C        1.34698669      -0.16965343      -0.60609715
C        0.40319275      -0.04671502       0.55676326
H       -0.20146410       2.40136750      -0.44032269
H       -1.20597172       1.08117752       1.47571964
H       -1.52030175      -0.59257045      -1.00075116
H       -1.74277205      -1.17962793       0.69538544
H        0.99981917      -2.19693215       0.02119287
H        1.17574965       0.51442625      -1.43511738
H        2.38126413      -0.19684452      -0.27045424
H        0.77267444      -0.29404220       1.54173199
14
Frame=9 idx=000663 GeodesicLength=0.4112367692354127 rxn_smarts="[O:1]([C@@:2]1([H:8])[C:3]([H:9])([H:10])[C@@:4]2([H:11])[C:5]([H:12])([H:13])[C@@:6]12[H:14])[H:7]>>[O:1]([C@@:2]1([H:8])[C:3]([H:9])([H:10])[C@:6]1([C:5]([C:4][H:11])([H:12])[H:13])[H:14])[H:7]"
O       -0.98312689       1.85591808      -0.40639844
C       -0.82367903       0.81096419       0.49356568
C       -1.16617079      -0.55877529       0.01192641
C        0.56492865      -1.42613327      -0.60668186
C        1.34193986      -0.16925239      -0.60773046
C        0.40827304      -0.04625287       0.56535888
H       -0.18935435       2.39139647      -0.44639795
H       -1.21307756       1.06875899       1.47704097
H       -1.51768875      -0.58386798      -1.01138038
H       -1.75666791      -1.17762649       0.67718065
H        1.00901182      -2.20299492       0.02623630
H        1.15763507       0.50796802      -1.43955549
H        2.37982692      -0.19141725      -0.28326451
H        0.78814992      -0.27868529       1.55010021
14
Frame=10 idx=000663 GeodesicLength=0.45701720400623724 rxn_smarts="[O:1]([C@@:2]1([H:8])[C:3]([H:9])([H:10])[C@@:4]2([H:11])[C:5]([H:12])([H:13])[C@@:6]12[H:14])[H:7]>>[O:1]([C@@:2]1([H:8])[C:3]([H:9])([H:10])[C@:6]1([C:5]([C:4][H:11])([H:12])[H:13])[H:14])[H:7]"
O       -0.98210526       1.86353617      -0.39074334
C       -0.82184919       0.80746491       0.49601848
C       -1.16468425      -0.56047635       0.00292567
C        0.56202056      -1.42577411      -0.58464168
C        1.33686779      -0.16899957      -0.60914773
C        0.41343433      -0.04569326       0.57410424
H       -0.17814367       2.38114691      -0.45313384
H       -1.22007390       1.05620967       1.47841249
H       -1.51473754      -0.57505467      -1.02196694
H       -1.77041750      -1.17544124       0.65865164
H        1.01773038      -2.20914052       0.03066758
H        1.13973976       0.50143723      -1.44350406
H        2.37822335      -0.18644565      -0.29593128
H        0.80399515      -0.26276953       1.55828879
14
Frame=11 idx=000663 GeodesicLength=0.5028509885994104 rxn_smarts="[O:1]([C@@:2]1([H:8])[C:3]([H:9])([H:10])[C@@:4]2([H:11])[C:5]([H:12])([H:13])[C@@:6]12[H:14])[H:7]>>[O:1]([C@@:2]1([H:8])[C:3]([H:9])([H:10])[C@:6]1([C:5]([C:4][H:11])([H:12])[H:13])[H:14])[H:7]"
O       -0.98091011       1.87109069      -0.37469613
C       -0.82000424       0.80393298       0.49861615
C       -1.16310812      -0.56209550      -0.00605563
C        0.55915011      -1.42521045      -0.56246011
C        1.33177675      -0.16890256      -0.61035393
C        0.41866944      -0.04502227       0.58299866
H       -0.16782529       2.37054956      -0.46045445
H       -1.22697110       1.04351254       1.47983385
H       -1.51143960      -0.56610882      -1.03251025
H       -1.78401157      -1.17306363       0.63979529
H        1.02597406      -2.21536689       0.03448370
H        1.12206098       0.49481375      -1.44699603
H        2.37647293      -0.18191259      -0.30846417
H        0.82016577      -0.24621681       1.56626304
14
Frame=12 idx=000663 GeodesicLength=0.5487345058190563 rxn_smarts="[O:1]([C@@:2]1([H:8])[C:3]([H:9])([H:10])[C@@:4]2([H:11])[C:5]([H:12])([H:13])[C@@:6]12[H:14])[H:7]>>[O:1]([C@@:2]1([H:8])[C:3]([H:9])([H:10])[C@:6]1([C:5]([C:4][H:11])([H:12])[H:13])[H:14])[H:7]"
O       -0.97953460       1.87858725      -0.35823847
C       -0.81813005       0.80038537       0.50137968
C       -1.16143573      -0.56363881      -0.01499297
C        0.55634399      -1.42442638      -0.54016470
C        1.32669101      -0.16894426      -0.61131259
C        0.42401526      -0.04423166       0.59205419
H       -0.15854302       2.35968061      -0.46852162
H       -1.23376384       1.03068921       1.48132126
H       -1.50780221      -0.55706634      -1.04300266
H       -1.79744142      -1.17050720       0.62062535
H        1.03363083      -2.22170707       0.03763585
H        1.10467436       0.48815836      -1.44998578
H        2.37457746      -0.17786221      -0.32079910
H        0.83671796      -0.22911686       1.57400155
14
Frame=13 idx=000663 GeodesicLength=0.5946939221080688 rxn_smarts="[O:1]([C@@:2]1([H:8])[C:3]([H:9])([H:10])[C@@:4]2([H:11])[C:5]([H:12])([H:13])[C@@:6]12[H:14])[H:7]>>[O:1]([C@@:2]1([H:8])[C:3]([H:9])([H:10])[C@:6]1([C:5]([C:4][H:11])([H:12])[H:13])[H:14])[H:7]"
O       -0.97796438       1.88599371      -0.34138852
C       -0.81623129       0.79678700       0.50427821
C       -1.15964107      -0.56509428      -0.02390131
C        0.55354910      -1.42340734      -0.51770300
C        1.32159193      -0.16913600      -0.61202110
C        0.42943806      -0.04332779       0.60127739
H       -0.15025751       2.34843161      -0.47727597
H       -1.24042742       1.01770079       1.48283041
H       -1.50380714      -0.54785500      -1.05341050
H       -1.81062874      -1.16773512       0.60114687
H        1.04074518      -2.22811815       0.04007064
H        1.08753487       0.48145537      -1.45247985
H        2.37253529      -0.17428868      -0.33294173
H        0.85356311      -0.21140612       1.58151847
14
Frame=14 idx=000663 GeodesicLength=0.6406940278197054 rxn_smarts="[O:1]([C@@:2]1([H:8])[C:3]([H:9])([H:10])[C@@:4]2([H:11])[C:5]([H:12])([H:13])[C@@:6]12[H:14])[H:7]>>[O:1]([C@@:2]1([H:8])[C:3]([H:9])([H:10])[C@:6]1([C:5]([C:4][H:11])([H:12])[H:13])[H:14])[H:7]"
O       -0.97618226       1.89332399      -0.32413295
C       -0.81430897       0.79316460       0.50733567
C       -1.15773485      -0.56647742      -0.03275773
C        0.55079959      -1.42215768      -0.49511529
C        1.31653119      -0.16946693      -0.61246008
C        0.43497245      -0.04228674       0.61067573
H       -0.14310595       2.33685521      -0.48679770
H       -1.24697863       1.00460138       1.48439480
H       -1.49948010      -0.53853188      -1.06373221
H       -1.82359141      -1.16477432       0.58138606
H        1.04721247      -2.23464714       0.04173998
H        1.07074752       0.47474121      -1.45447114
H        2.37039317      -0.17121779      -0.34484151
H        0.87072579      -0.19312650       1.58877638
14
Frame=15 idx=000663 GeodesicLength=0.6867283528735161 rxn_smarts="[O:1]([C@@:2]1([H:8])[C:3]([H:9])([H:10])[C@@:4]2([H:11])[C:5]([H:12])([H:13])[C@@:6]12[H:14])[H:7]>>[O:1]([C@@:2]1([H:8])[C:3]([H:9])([H:10])[C@:6]1([C:5]([C:4][H:11])([H:12])[H:13])[H:14])[H:7]"
O       -0.97416029       1.90055916      -0.30650202
C       -0.81235512       0.78951449       0.51054020
C       -1.15570446      -0.56779256      -0.04154948
C        0.54808916      -1.42065647      -0.47240565
C        1.31152571      -0.16992685      -0.61261144
C        0.44062368      -0.04109931       0.62025323
H       -0.13716140       2.32493132      -0.49710094
H       -1.25339933       0.99140871       1.48599808
H       -1.49482939      -0.52910240      -1.07394350
H       -1.83628124      -1.16162449       0.56138639
H        1.05297376      -2.24129335       0.04258011
H        1.05435119       0.46804717      -1.45595085
H        2.36816562      -0.16866164      -0.35645636
H        0.88816211      -0.17430378       1.59576223
14
Frame=16 idx=000663 GeodesicLength=0.732784365571844 rxn_smarts="[O:1]([C@@:2]1([H:8])[C:3]([H:9])([H:10])[C@@:4]2([H:11])[C:5]([H:12])([H:13])[C@@:6]12[H:14])[H:7]>>[O:1]([C@@:2]1([H:8])[C:3]([H:9])([H:10])[C@:6]1([C:5]([C:4][H:11])([H:12])[H:13])[H:14])[H:7]"
O       -0.97187063       1.90768790      -0.28852118
C       -0.81036344       0.78583836       0.51388231
C       -1.15353900      -0.56904491      -0.05026313
C        0.54541764      -1.41889112      -0.44957848
C        1.30659664      -0.17050570      -0.61245767
C        0.44639902      -0.03975526       0.63001399
H       -0.13250414       2.31264753      -0.50820717
H       -1.25967675       0.97814923       1.48762692
H       -1.48986373      -0.51957772      -1.08402011
H       -1.84865574      -1.15828801       0.54119161
H        1.05796892      -2.24805682       0.04252252
H        1.03838891       0.46139962      -1.45691295
H        2.36587229      -0.16662790      -0.36774402
H        0.90583000      -0.15497519       1.60246736
