12
Frame=0 idx=004250 GeodesicLength=0.0 rxn_smarts="[C:1]1([H:7])([H:8])[C@@:2]2([H:9])[C@:3]1([H:10])[C@@:4]1([H:11])[O:5][C@@:6]21[H:12]>>[C:1]([C@:3]1([H:10])[C:2]([H:8])([H:9])[C@@:6]2([H:12])[C@:4]1([H:11])[O:5]2)[H:7]"
C        1.55561936       0.49774711      -0.26121882
C        0.43988115      -0.84533395       0.01239802
C        0.50492672       0.47902174       0.75544041
C       -0.97966977       0.73502081       0.30582694
O       -1.02831373       0.71207296      -1.10901014
C       -1.01464747      -0.51965107      -0.42148339
H        1.16950509       0.92177131      -1.19199067
H        1.47708634      -0.77911412      -0.67088689
H        0.69069430      -1.75221908       0.55009073
H        0.73672747       0.51257600       1.81347228
H       -1.75083330       1.27173182       0.83855973
H       -1.80097612      -1.23362358      -0.62119822
12
Frame=1 idx=004250 GeodesicLength=0.039586844160135005 rxn_smarts="[C:1]1([H:7])([H:8])[C@@:2]2([H:9])[C@:3]1([H:10])[C@@:4]1([H:11])[O:5][C@@:6]21[H:12]>>[C:1]([C@:3]1([H:10])[C:2]([H:8])([H:9])[C@@:6]2([H:12])[C@:4]1([H:11])[O:5]2)[H:7]"
C        1.55222894       0.49828751      -0.26271807
C        0.43987693      -0.84618406       0.00970750
C        0.50322317       0.48092562       0.75457297
C       -0.98057237       0.73497058       0.30636710
O       -1.03119377       0.71168265      -1.10850007
C       -1.01522402      -0.52012605      -0.42034534
H        1.17354808       0.92821835      -1.19355633
H        1.49184671      -0.78465675      -0.67177013
H        0.68420354      -1.75205625       0.55218768
H        0.73604107       0.51059414       1.81250118
H       -1.75125897       1.27176699       0.83981910
H       -1.80271931      -1.23342274      -0.61826560
12
Frame=2 idx=004250 GeodesicLength=0.07917142134415275 rxn_smarts="[C:1]1([H:7])([H:8])[C@@:2]2([H:9])[C@:3]1([H:10])[C@@:4]1([H:11])[O:5][C@@:6]21[H:12]>>[C:1]([C@:3]1([H:10])[C:2]([H:8])([H:9])[C@@:6]2([H:12])[C@:4]1([H:11])[O:5]2)[H:7]"
C        1.54878852       0.49874667      -0.26431499
C        0.43981787      -0.84706410       0.00699449
C        0.50151279       0.48282610       0.75366873
C       -0.98149351       0.73492273       0.30691100
O       -1.03412369       0.71128803      -1.10798277
C       -1.01585106      -0.52059996      -0.41919770
H        1.17760583       0.93472640      -1.19508534
H        1.50684151      -0.79017981      -0.67242265
H        0.67770746      -1.75189030       0.55417880
H        0.73539194       0.50861834       1.81146805
H       -1.75168210       1.27181972       0.84109573
H       -1.80451556      -1.23321383      -0.61531336
12
Frame=3 idx=004250 GeodesicLength=0.11875205549226234 rxn_smarts="[C:1]1([H:7])([H:8])[C@@:2]2([H:9])[C@:3]1([H:10])[C@@:4]1([H:11])[O:5][C@@:6]21[H:12]>>[C:1]([C@:3]1([H:10])[C:2]([H:8])([H:9])[C@@:6]2([H:12])[C@:4]1([H:11])[O:5]2)[H:7]"
C        1.54529707       0.49912205      -0.26601197
C        0.43970104      -0.84797563       0.00425929
C        0.49979612       0.48472228       0.75272643
C       -0.98243306       0.73487756       0.30745933
O       -1.03710484       0.71088918      -1.10745738
C       -1.01653094      -0.52107269      -0.41803920
H        1.18167848       0.94129376      -1.19657608
H        1.52207113      -0.79567805      -0.67284014
H        0.67121056      -1.75172358       0.55606324
H        0.73478165       0.50664993       1.81037132
H       -1.75210139       1.27189196       0.84239019
H       -1.80636584      -1.23299676      -0.61234502
12
Frame=4 idx=004250 GeodesicLength=0.1583289476259659 rxn_smarts="[C:1]1([H:7])([H:8])[C@@:2]2([H:9])[C@:3]1([H:10])[C@@:4]1([H:11])[O:5][C@@:6]21[H:12]>>[C:1]([C@:3]1([H:10])[C:2]([H:8])([H:9])[C@@:6]2([H:12])[C@:4]1([H:11])[O:5]2)[H:7]"
C        1.54175361       0.49941103      -0.26781122
C        0.43952343      -0.84892028       0.00150245
C        0.49807370       0.48661323       0.75174496
C       -0.98339087       0.73483535       0.30801277
O       -1.04013846       0.71048609      -1.10692306
C       -1.01726600      -0.52154415      -0.41686850
H        1.18576635       0.94791856      -1.19802663
H        1.53753582      -0.80114586      -0.67301983
H        0.66471738      -1.75155848       0.55784068
H        0.73421164       0.50469019       1.80920965
H       -1.75251551       1.27198586       0.84370285
H       -1.80827111      -1.23277155      -0.60936410
12
Frame=5 idx=004250 GeodesicLength=0.19790590077660844 rxn_smarts="[C:1]1([H:7])([H:8])[C@@:2]2([H:9])[C@:3]1([H:10])[C@@:4]1([H:11])[O:5][C@@:6]21[H:12]>>[C:1]([C@:3]1([H:10])[C:2]([H:8])([H:9])[C@@:6]2([H:12])[C@:4]1([H:11])[O:5]2)[H:7]"
C        1.53815727       0.49961159      -0.26971539
C        0.43928196      -0.84989996      -0.00127555
C        0.49634597       0.48849828       0.75072347
C       -0.98436687       0.73479659       0.30857215
O       -1.04322558       0.71007900      -1.10637926
C       -1.01805852      -0.52201448      -0.41568443
H        1.18986983       0.95459891      -1.19943452
H        1.55323612      -0.80657864      -0.67296039
H        0.65823238      -1.75139719       0.55951132
H        0.73368308       0.50274068       1.80798235
H       -1.75292332       1.27210392       0.84503451
H       -1.81023233      -1.23253869      -0.60637426
12
Frame=6 idx=004250 GeodesicLength=0.23746536085113473 rxn_smarts="[C:1]1([H:7])([H:8])[C@@:2]2([H:9])[C@:3]1([H:10])[C@@:4]1([H:11])[O:5][C@@:6]21[H:12]>>[C:1]([C@:3]1([H:10])[C:2]([H:8])([H:9])[C@@:6]2([H:12])[C@:4]1([H:11])[O:5]2)[H:7]"
C        1.53450873       0.49971638      -0.27172542
C        0.43897307      -0.85091691      -0.00407408
C        0.49461476       0.49037462       0.74966010
C       -0.98536083       0.73476137       0.30913705
O       -1.04636863       0.70966632      -1.10582580
C       -1.01891226      -0.52248327      -0.41448570
H        1.19398812       0.96133358      -1.20079922
H        1.56917187      -0.81196029      -0.67265519
H        0.65176195      -1.75124536       0.56107624
H        0.73319964       0.50080092       1.80668707
H       -1.75332334       1.27224923       0.84638352
H       -1.81225307      -1.23229658      -0.60337855
12
Frame=7 idx=004250 GeodesicLength=0.27699664504079796 rxn_smarts="[C:1]1([H:7])([H:8])[C@@:2]2([H:9])[C@:3]1([H:10])[C@@:4]1([H:11])[O:5][C@@:6]21[H:12]>>[C:1]([C@:3]1([H:10])[C:2]([H:8])([H:9])[C@@:6]2([H:12])[C@:4]1([H:11])[O:5]2)[H:7]"
C        1.53080125       0.49973244      -0.27384671
C        0.43859525      -0.85196903      -0.00689534
C        0.49287904       0.49224521       0.74855140
C       -0.98637163       0.73472927       0.30971094
O       -1.04956671       0.70925459      -1.10525714
C       -1.01982640      -0.52294848      -0.41327180
H        1.19813048       0.96811072      -1.20211924
H        1.58533468      -0.81730020      -0.67209547
H        0.64529960      -1.75109568       0.56253145
H        0.73276383       0.49887993       1.80531753
H       -1.75371483       1.27240963       0.84776019
H       -1.81432457      -1.23204841      -0.60038582
12
Frame=8 idx=004250 GeodesicLength=0.31650510832515866 rxn_smarts="[C:1]1([H:7])([H:8])[C@@:2]2([H:9])[C@:3]1([H:10])[C@@:4]1([H:11])[O:5][C@@:6]21[H:12]>>[C:1]([C@:3]1([H:10])[C:2]([H:8])([H:9])[C@@:6]2([H:12])[C@:4]1([H:11])[O:5]2)[H:7]"
C        1.52704079       0.49964966      -0.27608223
C        0.43814611      -0.85306026      -0.00974021
C        0.49114190       0.49410811       0.74739558
C       -0.98739985       0.73470205       0.31029143
O       -1.05282262       0.70884374      -1.10467799
C       -1.02080361      -0.52340941      -0.41204666
H        1.20229347       0.97493599      -1.20339705
H        1.60173498      -0.82258280      -0.67127801
H        0.63884863      -1.75095603       0.56388732
H        0.73237851       0.49697367       1.80387468
H       -1.75410140       1.27258395       0.84916566
H       -1.81645691      -1.23178867      -0.59739252
12
Frame=9 idx=004250 GeodesicLength=0.35601159829656476 rxn_smarts="[C:1]1([H:7])([H:8])[C@@:2]2([H:9])[C@:3]1([H:10])[C@@:4]1([H:11])[O:5][C@@:6]21[H:12]>>[C:1]([C@:3]1([H:10])[C:2]([H:8])([H:9])[C@@:6]2([H:12])[C@:4]1([H:11])[O:5]2)[H:7]"
C        1.52322355       0.49947129      -0.27843623
C        0.43762369      -0.85419191      -0.01261528
C        0.48940230       0.49596055       0.74618935
C       -0.98844482       0.73467937       0.31087649
O       -1.05613850       0.70842988      -1.10408887
C       -1.02184694      -0.52386850      -0.41080812
H        1.20648059       0.98181243      -1.20462710
H        1.61838951      -0.82780005      -0.67019400
H        0.63240551      -1.75082710       0.56513559
H        0.73203843       0.49507235       1.80235533
H       -1.75447656       1.27278125       0.85059587
H       -1.81865676      -1.23151955      -0.59438304
12
Frame=10 idx=004250 GeodesicLength=0.3955180190028267 rxn_smarts="[C:1]1([H:7])([H:8])[C@@:2]2([H:9])[C@:3]1([H:10])[C@@:4]1([H:11])[O:5][C@@:6]21[H:12]>>[C:1]([C@:3]1([H:10])[C:2]([H:8])([H:9])[C@@:6]2([H:12])[C@:4]1([H:11])[O:5]2)[H:7]"
C        1.51934568       0.49919580      -0.28091210
C        0.43702603      -0.85536463      -0.01552565
C        0.48766019       0.49779909       0.74492976
C       -0.98950641       0.73466002       0.31146501
O       -1.05951855       0.70801047      -1.10349062
C       -1.02295900      -0.52432644      -0.40955561
H        1.21068974       0.98874343      -1.20580824
H        1.63531162      -0.83294272      -0.66882684
H        0.62597050      -1.75071351       0.56627159
H        0.73174680       0.49316972       1.80075571
H       -1.75483586       1.27300641       0.85204725
H       -1.82093074      -1.23123763      -0.59135026
12
Frame=11 idx=004250 GeodesicLength=0.4350178022747047 rxn_smarts="[C:1]1([H:7])([H:8])[C@@:2]2([H:9])[C@:3]1([H:10])[C@@:4]1([H:11])[O:5][C@@:6]21[H:12]>>[C:1]([C@:3]1([H:10])[C:2]([H:8])([H:9])[C@@:6]2([H:12])[C@:4]1([H:11])[O:5]2)[H:7]"
C        1.51540705       0.49882262      -0.28351490
C        0.43635136      -0.85658078      -0.01847542
C        0.48591640       0.49962267       0.74361397
C       -0.99058467       0.73464451       0.31205725
O       -1.06296472       0.70758597      -1.10288298
C       -1.02414245      -0.52478409      -0.40828877
H        1.21492454       0.99572693      -1.20693914
H        1.65250509      -0.83800190      -0.66716547
H        0.61954378      -1.75061758       0.56729260
H        0.73150488       0.49126426       1.79907299
H       -1.75517845       1.27326119       0.85352195
H       -1.82328281      -1.23094378      -0.58829209
12
Frame=12 idx=004250 GeodesicLength=0.47450400485798855 rxn_smarts="[C:1]1([H:7])([H:8])[C@@:2]2([H:9])[C@:3]1([H:10])[C@@:4]1([H:11])[O:5][C@@:6]21[H:12]>>[C:1]([C@:3]1([H:10])[C:2]([H:8])([H:9])[C@@:6]2([H:12])[C@:4]1([H:11])[O:5]2)[H:7]"
C        1.51140614       0.49834869      -0.28624817
C        0.43559701      -0.85784199      -0.02146734
C        0.48417172       0.50142900       0.74223912
C       -0.99167866       0.73463257       0.31265266
O       -1.06647862       0.70715544      -1.10226586
C       -1.02539956      -0.52524156      -0.40700700
H        1.21918676       1.00276095      -1.20801798
H        1.66997316      -0.84296494      -0.66520068
H        0.61312544      -1.75054143       0.56819722
H        0.73131426       0.48935359       1.79730380
H       -1.75550144       1.27354641       0.85502006
H       -1.82571620      -1.23063674      -0.58520582
12
Frame=13 idx=004250 GeodesicLength=0.5139870306490126 rxn_smarts="[C:1]1([H:7])([H:8])[C@@:2]2([H:9])[C@:3]1([H:10])[C@@:4]1([H:11])[O:5][C@@:6]21[H:12]>>[C:1]([C@:3]1([H:10])[C:2]([H:8])([H:9])[C@@:6]2([H:12])[C@:4]1([H:11])[O:5]2)[H:7]"
C        1.50734112       0.49777198      -0.28911787
C        0.43476033      -0.85915037      -0.02450680
C        0.48242668       0.50321622       0.74080087
C       -0.99278808       0.73462489       0.31324954
O       -1.07006256       0.70671989      -1.10164076
C       -1.02673279      -0.52569866      -0.40571238
H        1.22348029       1.00984867      -1.20904222
H        1.68772798      -0.84782446      -0.66291906
H        0.60671207      -1.75048852       0.56898312
H        0.73117679       0.48743577       1.79544359
H       -1.75580428       1.27385952       0.85654389
H       -1.82823756      -1.23031493      -0.58208192
12
Frame=14 idx=004250 GeodesicLength=0.5534672320679924 rxn_smarts="[C:1]1([H:7])([H:8])[C@@:2]2([H:9])[C@:3]1([H:10])[C@@:4]1([H:11])[O:5][C@@:6]21[H:12]>>[C:1]([C@:3]1([H:10])[C:2]([H:8])([H:9])[C@@:6]2([H:12])[C@:4]1([H:11])[O:5]2)[H:7]"
C        1.50320986       0.49709081      -0.29212777
C        0.43383935      -0.86050744      -0.02760069
C        0.48068175       0.50498075       0.73929578
C       -0.99391227       0.73462233       0.31384537
O       -1.07372035       0.70627648      -1.10100919
C       -1.02814592      -0.52615605      -0.40440377
H        1.22780750       1.01699205      -1.21000747
H        1.70578037      -0.85256609      -0.66030641
H        0.60030363      -1.75046196       0.56964389
H        0.73109334       0.48550022       1.79348841
H       -1.75608360       1.27420685       0.85808789
H       -1.83085365      -1.22997797      -0.57890603
12
Frame=15 idx=004250 GeodesicLength=0.5929463462679919 rxn_smarts="[C:1]1([H:7])([H:8])[C@@:2]2([H:9])[C@:3]1([H:10])[C@@:4]1([H:11])[O:5][C@@:6]21[H:12]>>[C:1]([C@:3]1([H:10])[C:2]([H:8])([H:9])[C@@:6]2([H:12])[C@:4]1([H:11])[O:5]2)[H:7]"
C        1.49901012       0.49630258      -0.29528751
C        0.43282997      -0.86191533      -0.03075403
C        0.47893825       0.50672170       0.73771778
C       -0.99505140       0.73462420       0.31444117
O       -1.07745618       0.70582896      -1.10036952
C       -1.02964181      -0.52661274      -0.40308310
H        1.23217133       1.02418717      -1.21091751
H        1.72414265      -0.85717899      -0.65733875
H        0.59389414      -1.75046346       0.57017902
H        0.73106865       0.48354716       1.79143116
H       -1.75633752       1.27458258       0.85966187
H       -1.83356821      -1.22962382      -0.57568058
12
Frame=16 idx=004250 GeodesicLength=0.6324186315532431 rxn_smarts="[C:1]1([H:7])([H:8])[C@@:2]2([H:9])[C@:3]1([H:10])[C@@:4]1([H:11])[O:5][C@@:6]21[H:12]>>[C:1]([C@:3]1([H:10])[C:2]([H:8])([H:9])[C@@:6]2([H:12])[C@:4]1([H:11])[O:5]2)[H:7]"
C        1.49473942       0.49540268      -0.29859959
C        0.43172892      -0.86337578      -0.03396889
C        0.47719616       0.50843520       0.73606500
C       -0.99620367       0.73462945       0.31503658
O       -1.08126989       0.70537206      -1.09972153
C       -1.03122245      -0.52707021      -0.40174649
H        1.23657424       1.03143128      -1.21176591
H        1.74281335      -0.86164600      -0.65401447
H        0.58748599      -1.75049436       0.57058658
H        0.73110246       0.48157412       1.78926940
H       -1.75656067       1.27499207       0.86126218
H       -1.83638387      -1.22925050      -0.57240288
