13
Frame=0 idx=006512 GeodesicLength=0.0 rxn_smarts="[C:1](#[C:2][C@:3]12[C:4]([H:9])([H:10])[C@@:5]1([H:11])[O:6][C:7]2([H:12])[H:13])[H:8]>>[C:1](#[C:2][C:3]([C:4]([C:5](=[O:6])[H:11])([H:9])[H:10])=[C:7]([H:12])[H:13])[H:8]"
C        2.79288737       0.50529732       0.06520585
C        1.63313135       0.25529665      -0.17332504
C        0.30148314      -0.02912138      -0.47791764
C       -0.83835408       0.94578681      -0.33605141
C       -1.40465062       0.22533773       0.81576904
O       -1.34702179      -1.05497286       0.80677812
C       -0.31695418      -1.34314625      -0.31207605
H        3.81750964       0.72635586       0.24176660
H       -1.54765936       0.98464923      -1.18271886
H       -0.54965152       1.96378347      -0.07948658
H       -1.89955739       0.66196344       1.68089525
H        0.31300176      -2.13752650       0.07728071
H       -0.95416430      -1.70370353      -1.12611997
13
Frame=1 idx=006512 GeodesicLength=0.088672981471908 rxn_smarts="[C:1](#[C:2][C@:3]12[C:4]([H:9])([H:10])[C@@:5]1([H:11])[O:6][C:7]2([H:12])[H:13])[H:8]>>[C:1](#[C:2][C:3]([C:4]([C:5](=[O:6])[H:11])([H:9])[H:10])=[C:7]([H:12])[H:13])[H:8]"
C        2.78098723       0.50994760       0.08974275
C        1.62405977       0.25388225      -0.15244184
C        0.29369749      -0.03431743      -0.46749384
C       -0.84580832       0.94348145      -0.34695131
C       -1.39475068       0.23135023       0.81978698
O       -1.38605330      -1.05144388       0.79825275
C       -0.31920287      -1.35112922      -0.32490673
H        3.80648230       0.74028593       0.24921935
H       -1.55800784       0.96289269      -1.19012783
H       -0.55541153       1.96447709      -0.10548485
H       -1.81268921       0.68214792       1.71804998
H        0.31022849      -2.14643705       0.06362119
H       -0.94353153      -1.70513756      -1.15126659
13
Frame=2 idx=006512 GeodesicLength=0.17748240829857886 rxn_smarts="[C:1](#[C:2][C@:3]12[C:4]([H:9])([H:10])[C@@:5]1([H:11])[O:6][C:7]2([H:12])[H:13])[H:8]>>[C:1](#[C:2][C:3]([C:4]([C:5](=[O:6])[H:11])([H:9])[H:10])=[C:7]([H:12])[H:13])[H:8]"
C        2.76931094       0.51434736       0.11100867
C        1.61502643       0.25238031      -0.13391133
C        0.28555732      -0.03954688      -0.45760952
C       -0.85288636       0.94148248      -0.35697217
C       -1.38454337       0.23771466       0.82428795
O       -1.42414220      -1.04569577       0.79189961
C       -0.32130708      -1.35886548      -0.33695783
H        3.79447586       0.75392219       0.25936414
H       -1.56811634       0.94235253      -1.19609514
H       -0.56016691       1.96493563      -0.13002026
H       -1.72763669       0.69845790       1.74925476
H        0.30821288      -2.15492988       0.05010284
H       -0.93378450      -1.70655505      -1.17435171
13
Frame=3 idx=006512 GeodesicLength=0.2664580618617576 rxn_smarts="[C:1](#[C:2][C@:3]12[C:4]([H:9])([H:10])[C@@:5]1([H:11])[O:6][C:7]2([H:12])[H:13])[H:8]>>[C:1](#[C:2][C:3]([C:4]([C:5](=[O:6])[H:11])([H:9])[H:10])=[C:7]([H:12])[H:13])[H:8]"
C        2.75773193       0.51821921       0.12962814
C        1.60618297       0.25061075      -0.11854065
C        0.27707052      -0.04496059      -0.44866482
C       -0.85960363       0.93966154      -0.36630953
C       -1.37359245       0.24443406       0.82935134
O       -1.46090859      -1.03783626       0.78808819
C       -0.32338631      -1.36650329      -0.34852869
H        3.78124634       0.76798327       0.27325010
H       -1.57832595       0.92277918      -1.20058300
H       -0.56387352       1.96510027      -0.15355463
H       -1.64407017       0.71176636       1.77531033
H        0.30697206      -2.16321332       0.03607086
H       -0.92544319      -1.70804117      -1.19551764
13
Frame=4 idx=006512 GeodesicLength=0.35556707580897734 rxn_smarts="[C:1](#[C:2][C@:3]12[C:4]([H:9])([H:10])[C@@:5]1([H:11])[O:6][C:7]2([H:12])[H:13])[H:8]>>[C:1](#[C:2][C:3]([C:4]([C:5](=[O:6])[H:11])([H:9])[H:10])=[C:7]([H:12])[H:13])[H:8]"
C        2.74605677       0.52166703       0.14585772
C        1.59762462       0.24867784      -0.10736111
C        0.26819097      -0.05056535      -0.44113910
C       -0.86614571       0.93790489      -0.37517559
C       -1.36137967       0.25154657       0.83507265
O       -1.49593569      -1.02789419       0.78715977
C       -0.32544652      -1.37407991      -0.35987211
H        3.76656300       0.78221171       0.29248307
H       -1.58922543       0.90382236      -1.20346777
H       -0.56676403       1.96493317      -0.17668420
H       -1.56138323       0.72272847       1.79694813
H        0.30672578      -2.17125590       0.02100992
H       -0.91888085      -1.70969671      -1.21483137
13
Frame=5 idx=006512 GeodesicLength=0.4448671262061903 rxn_smarts="[C:1](#[C:2][C@:3]12[C:4]([H:9])([H:10])[C@@:5]1([H:11])[O:6][C:7]2([H:12])[H:13])[H:8]>>[C:1](#[C:2][C:3]([C:4]([C:5](=[O:6])[H:11])([H:9])[H:10])=[C:7]([H:12])[H:13])[H:8]"
C        2.73436870       0.52478842       0.16050106
C        1.58938890       0.24661418      -0.09921672
C        0.25909592      -0.05633714      -0.43452037
C       -0.87247824       0.93620227      -0.38351999
C       -1.34825769       0.25893147       0.84125704
O       -1.52960511      -1.01608341       0.78890809
C       -0.32739698      -1.38165123      -0.37100323
H        3.75089221       0.79650324       0.31509603
H       -1.60045895       0.88546807      -1.20499310
H       -0.56897710       1.96447336      -0.19923742
H       -1.48033341       0.73172850       1.81444703
H        0.30743411      -2.17917924       0.00498720
H       -0.91367235      -1.71145850      -1.23270562
13
Frame=6 idx=006512 GeodesicLength=0.5343041870089822 rxn_smarts="[C:1](#[C:2][C@:3]12[C:4]([H:9])([H:10])[C@@:5]1([H:11])[O:6][C:7]2([H:12])[H:13])[H:8]>>[C:1](#[C:2][C:3]([C:4]([C:5](=[O:6])[H:11])([H:9])[H:10])=[C:7]([H:12])[H:13])[H:8]"
C        2.72281975       0.52760972       0.17386396
C        1.58149808       0.24442153      -0.09314960
C        0.24992002      -0.06227180      -0.42836878
C       -0.87854973       0.93449230      -0.39129544
C       -1.33452644       0.26647732       0.84772658
O       -1.56228791      -1.00252171       0.79308698
C       -0.32917885      -1.38921386      -0.38192355
H        3.73449214       0.81085017       0.33974245
H       -1.61171879       0.86764482      -1.20532696
H       -0.57057123       1.96366053      -0.22108092
H       -1.40146772       0.73905077       1.82809813
H        0.30903103      -2.18698678      -0.01193595
H       -0.90946037      -1.71321303      -1.24943691
13
Frame=7 idx=006512 GeodesicLength=0.6239213015881939 rxn_smarts="[C:1](#[C:2][C@:3]12[C:4]([H:9])([H:10])[C@@:5]1([H:11])[O:6][C:7]2([H:12])[H:13])[H:8]>>[C:1](#[C:2][C:3]([C:4]([C:5](=[O:6])[H:11])([H:9])[H:10])=[C:7]([H:12])[H:13])[H:8]"
C        2.71123675       0.53039782       0.18577792
C        1.57396656       0.24230009      -0.09000790
C        0.24059835      -0.06833044      -0.42306774
C       -0.88456317       0.93271393      -0.39867553
C       -1.31980352       0.27423133       0.85456487
O       -1.59362032      -0.98720985       0.80001316
C       -0.33074583      -1.39680429      -0.39281458
H        3.71703651       0.82463892       0.36804886
H       -1.62350789       0.85008329      -1.20436989
H       -0.57182934       1.96251876      -0.24270049
H       -1.32408701       0.74518849       1.83842621
H        0.31176052      -2.19462970      -0.03012812
H       -0.90644161      -1.71509837      -1.26506676
13
Frame=8 idx=006512 GeodesicLength=0.713533313287114 rxn_smarts="[C:1](#[C:2][C@:3]12[C:4]([H:9])([H:10])[C@@:5]1([H:11])[O:6][C:7]2([H:12])[H:13])[H:8]>>[C:1](#[C:2][C:3]([C:4]([C:5](=[O:6])[H:11])([H:9])[H:10])=[C:7]([H:12])[H:13])[H:8]"
C        2.70024062       0.53314173       0.19532789
C        1.56677721       0.24014298      -0.08774527
C        0.23137465      -0.07451000      -0.41759442
C       -0.89032014       0.93090089      -0.40539042
C       -1.30475860       0.28199517       0.86157394
O       -1.62423512      -0.97033985       0.80916067
C       -0.33188572      -1.40442278      -0.40350968
H        3.69914602       0.83775896       0.39763644
H       -1.63502921       0.83294445      -1.20241550
H       -0.57272189       1.96106771      -0.26346411
H       -1.25038752       0.75038877       1.84563171
H        0.31557188      -2.20222035      -0.04922967
H       -0.90377219      -1.71684768      -1.27998158
13
Frame=9 idx=006512 GeodesicLength=0.8034005663243756 rxn_smarts="[C:1](#[C:2][C@:3]12[C:4]([H:9])([H:10])[C@@:5]1([H:11])[O:6][C:7]2([H:12])[H:13])[H:8]>>[C:1](#[C:2][C:3]([C:4]([C:5](=[O:6])[H:11])([H:9])[H:10])=[C:7]([H:12])[H:13])[H:8]"
C        2.68851637       0.53526898       0.20578707
C        1.55997338       0.23774947      -0.08891872
C        0.22202363      -0.08102326      -0.41330263
C       -0.89587013       0.92885217      -0.41197022
C       -1.28827320       0.29001422       0.86880680
O       -1.65358729      -0.95151124       0.82106631
C       -0.33307380      -1.41219093      -0.41445339
H        3.67905856       0.85177484       0.43063402
H       -1.64710242       0.81585053      -1.19913770
H       -0.57301794       1.95910718      -0.28464243
H       -1.17610251       0.75464502       1.85016202
H        0.32008425      -2.20974633      -0.07000397
H       -0.90262890      -1.71879065      -1.29402717
13
Frame=10 idx=006512 GeodesicLength=0.8934239614397561 rxn_smarts="[C:1](#[C:2][C@:3]12[C:4]([H:9])([H:10])[C@@:5]1([H:11])[O:6][C:7]2([H:12])[H:13])[H:8]>>[C:1](#[C:2][C:3]([C:4]([C:5](=[O:6])[H:11])([H:9])[H:10])=[C:7]([H:12])[H:13])[H:8]"
C        2.67708895       0.53852304       0.21360413
C        1.55333921       0.23593093      -0.09125069
C        0.21266847      -0.08744595      -0.40903520
C       -0.90165515       0.92666249      -0.41812655
C       -1.27144006       0.29810770       0.87613423
O       -1.68204243      -0.93101752       0.83535587
C       -0.33358027      -1.41990465      -0.42531988
H        3.65837091       0.86285133       0.46632420
H       -1.65954133       0.79871635      -1.19492345
H       -0.57376375       1.95684346      -0.30553163
H       -1.10409394       0.75833722       1.85211257
H        0.32619554      -2.21686661      -0.09186478
H       -0.90154615      -1.72073778      -1.30747882
13
Frame=11 idx=006512 GeodesicLength=0.9835314325366212 rxn_smarts="[C:1](#[C:2][C@:3]12[C:4]([H:9])([H:10])[C@@:5]1([H:11])[O:6][C:7]2([H:12])[H:13])[H:8]>>[C:1](#[C:2][C:3]([C:4]([C:5](=[O:6])[H:11])([H:9])[H:10])=[C:7]([H:12])[H:13])[H:8]"
C        2.66605389       0.54076027       0.22302142
C        1.54696472       0.23334958      -0.09132891
C        0.20368052      -0.09430518      -0.40332341
C       -0.90664610       0.92438578      -0.42351702
C       -1.25541790       0.30599529       0.88317589
O       -1.71161100      -0.90880172       0.85047201
C       -0.33380050      -1.42779360      -0.43600056
H        3.63828511       0.87577304       0.49634965
H       -1.67031190       0.78227519      -1.19049048
H       -0.57348726       1.95413675      -0.32499495
H       -1.03642734       0.76071669       1.85191690
H        0.33251061      -2.22425194      -0.11412239
H       -0.89979285      -1.72224016      -1.32115815
13
Frame=12 idx=006512 GeodesicLength=1.0737427198248297 rxn_smarts="[C:1](#[C:2][C@:3]12[C:4]([H:9])([H:10])[C@@:5]1([H:11])[O:6][C:7]2([H:12])[H:13])[H:8]>>[C:1](#[C:2][C:3]([C:4]([C:5](=[O:6])[H:11])([H:9])[H:10])=[C:7]([H:12])[H:13])[H:8]"
C        2.65543271       0.54193441       0.23279762
C        1.54086056       0.23001909      -0.09048674
C        0.19490851      -0.10167164      -0.39674922
C       -0.91102492       0.92193025      -0.42832861
C       -1.23965502       0.31377593       0.89010536
O       -1.74175397      -0.88462132       0.86691832
C       -0.33378811      -1.43591980      -0.44668448
H        3.61797489       0.89049991       0.52386708
H       -1.68006122       0.76628244      -1.18561323
H       -0.57234273       1.95092785      -0.34358372
H       -0.97191513       0.76216725       1.84994439
H        0.33921925      -2.23187071      -0.13725602
H       -0.89785482      -1.72345368      -1.33493074
13
Frame=13 idx=006512 GeodesicLength=1.1640787718153198 rxn_smarts="[C:1](#[C:2][C@:3]12[C:4]([H:9])([H:10])[C@@:5]1([H:11])[O:6][C:7]2([H:12])[H:13])[H:8]>>[C:1](#[C:2][C:3]([C:4]([C:5](=[O:6])[H:11])([H:9])[H:10])=[C:7]([H:12])[H:13])[H:8]"
C        2.64494521       0.54539369       0.23865629
C        1.53478861       0.22790578      -0.09187041
C        0.18600270      -0.10880511      -0.39060022
C       -0.91599007       0.91914227      -0.43298491
C       -1.22319428       0.32167365       0.89722534
O       -1.77064169      -0.85850978       0.88618865
C       -0.33285844      -1.44397267      -0.45746013
H        3.59652372       0.90009738       0.55691720
H       -1.69083282       0.74959359      -1.17965885
H       -0.57219341       1.94735998      -0.36267564
H       -0.90865946       0.76371263       1.84619440
H        0.34801888      -2.23868960      -0.16186792
H       -0.89590894      -1.72490179      -1.34806381
13
Frame=14 idx=006512 GeodesicLength=1.254513583566737 rxn_smarts="[C:1](#[C:2][C@:3]12[C:4]([H:9])([H:10])[C@@:5]1([H:11])[O:6][C:7]2([H:12])[H:13])[H:8]>>[C:1](#[C:2][C:3]([C:4]([C:5](=[O:6])[H:11])([H:9])[H:10])=[C:7]([H:12])[H:13])[H:8]"
C        2.63436921       0.54712839       0.24797997
C        1.52890657       0.22474652      -0.09107818
C        0.17736850      -0.11660729      -0.38305527
C       -0.92016382       0.91611589      -0.43701756
C       -1.20750930       0.32930223       0.90410311
O       -1.80082663      -0.83019024       0.90620633
C       -0.33166832      -1.45231491      -0.46835812
H        3.57607340       0.91261892       0.58334901
H       -1.70009323       0.73342761      -1.17358751
H       -0.57094795       1.94318983      -0.38062883
H       -0.84924493       0.76424178       1.84121532
H        0.35701692      -2.24580659      -0.18735622
H       -0.89328042      -1.72585213      -1.36177206
13
Frame=15 idx=006512 GeodesicLength=1.3450812145583317 rxn_smarts="[C:1](#[C:2][C@:3]12[C:4]([H:9])([H:10])[C@@:5]1([H:11])[O:6][C:7]2([H:12])[H:13])[H:8]>>[C:1](#[C:2][C:3]([C:4]([C:5](=[O:6])[H:11])([H:9])[H:10])=[C:7]([H:12])[H:13])[H:8]"
C        2.62385176       0.54871602       0.25708426
C        1.52314853       0.22142322      -0.09040191
C        0.16878239      -0.12480890      -0.37504545
C       -0.92416499       0.91271921      -0.44070610
C       -1.19176369       0.33685075       0.91098706
O       -1.83111121      -0.79944383       0.92806571
C       -0.32995819      -1.46087363      -0.47949771
H        3.55520084       0.92488553       0.60959351
H       -1.70912694       0.71711023      -1.16690313
H       -0.56950557       1.93843669      -0.39840577
H       -0.79198263       0.76443062       1.83505255
H        0.36703853      -2.25275304      -0.21423614
H       -0.89040883      -1.72669288      -1.37558688
13
Frame=16 idx=006512 GeodesicLength=1.435783010027213 rxn_smarts="[C:1](#[C:2][C@:3]12[C:4]([H:9])([H:10])[C@@:5]1([H:11])[O:6][C:7]2([H:12])[H:13])[H:8]>>[C:1](#[C:2][C:3]([C:4]([C:5](=[O:6])[H:11])([H:9])[H:10])=[C:7]([H:12])[H:13])[H:8]"
C        2.61336582       0.55147569       0.26406049
C        1.51741301       0.21863584      -0.09091860
C        0.16014165      -0.13318243      -0.36696304
C       -0.92842117       0.90883542      -0.44419269
C       -1.17562502       0.34440555       0.91795669
O       -1.86087037      -0.76608652       0.95234696
C       -0.32743652      -1.46954306      -0.49091612
H        3.53336605       0.93425637       0.63880547
H       -1.71862380       0.70014752      -1.15933003
H       -0.56856763       1.93307155      -0.41653668
H       -0.73613713       0.76469714       1.82766737
H        0.37868622      -2.25909568      -0.24272180
H       -0.88729110      -1.72761739      -1.38925801
