14
Frame=0 idx=006139 GeodesicLength=0.0 rxn_smarts="[O:1]([C:2]([C:3]1([H:10])[C:4]([H:11])([H:12])[O:5][C:6]1([H:13])[H:14])([H:8])[H:9])[H:7]>>[C:3]1([H:8])([H:10])[C:4]([H:11])([H:12])[O:5][C:6]1([H:13])[H:14].[O:1]([C:2][H:9])[H:7]"
O        2.10258295       0.75408003      -0.72732654
C        1.71695794      -0.36660345      -0.08419016
C       -0.26657623       0.11387876       0.69036905
C       -0.87356659       0.79843661      -0.51878970
O       -1.51126673      -0.42737976      -0.92279343
C       -1.17506416      -1.04698163       0.32772302
H        2.72333549       1.22974116      -0.17056659
H        1.01807510      -0.22317314       0.90505402
H        1.18357418      -0.99729535      -0.79801348
H       -0.35753713       0.59074522       1.66746824
H       -1.61525218       1.56600883      -0.26869136
H       -0.18547207       1.19147699      -1.27177706
H       -2.05447852      -1.15562761       0.97283880
H       -0.70531202      -2.02730671       0.19869520
14
Frame=1 idx=006139 GeodesicLength=0.06969560082180896 rxn_smarts="[O:1]([C:2]([C:3]1([H:10])[C:4]([H:11])([H:12])[O:5][C:6]1([H:13])[H:14])([H:8])[H:9])[H:7]>>[C:3]1([H:8])([H:10])[C:4]([H:11])([H:12])[O:5][C:6]1([H:13])[H:14].[O:1]([C:2][H:9])[H:7]"
O        2.11096490       0.75246085      -0.73174919
C        1.70547184      -0.36210872      -0.08947845
C       -0.26978880       0.11950343       0.69411176
C       -0.88177487       0.80204780      -0.51510335
O       -1.49935233      -0.43129307      -0.92705830
C       -1.17193240      -1.04659919       0.32808330
H        2.75387434       1.20781108      -0.18320489
H        1.01600375      -0.22278969       0.92934901
H        1.19362260      -1.00084623      -0.81246449
H       -0.37495697       0.59816286       1.66882870
H       -1.63390925       1.56017237      -0.26803571
H       -0.19689027       1.20770869      -1.26417871
H       -2.05565981      -1.15983836       0.96619426
H       -0.69567273      -2.02439182       0.20470607
14
Frame=2 idx=006139 GeodesicLength=0.13936418144157417 rxn_smarts="[O:1]([C:2]([C:3]1([H:10])[C:4]([H:11])([H:12])[O:5][C:6]1([H:13])[H:14])([H:8])[H:9])[H:7]>>[C:3]1([H:8])([H:10])[C:4]([H:11])([H:12])[O:5][C:6]1([H:13])[H:14].[O:1]([C:2][H:9])[H:7]"
O        2.11949520       0.75092713      -0.73609364
C        1.69374363      -0.35715675      -0.09488927
C       -0.27309594       0.12527928       0.69792861
C       -0.89015742       0.80569203      -0.51138553
O       -1.48736888      -0.43491648      -0.93116646
C       -1.16869606      -1.04613943       0.32840365
H        2.78434083       1.18464188      -0.19617341
H        1.01368104      -0.22207931       0.95369317
H        1.20442471      -1.00430187      -0.82663019
H       -0.39254732       0.60543617       1.67018738
H       -1.65265863       1.55419544      -0.26740997
H       -0.20865482       1.22392065      -1.25649444
H       -2.05662497      -1.16422080       0.95948035
H       -0.68588137      -2.02127794       0.21054976
14
Frame=3 idx=006139 GeodesicLength=0.20898702973794225 rxn_smarts="[O:1]([C:2]([C:3]1([H:10])[C:4]([H:11])([H:12])[O:5][C:6]1([H:13])[H:14])([H:8])[H:9])[H:7]>>[C:3]1([H:8])([H:10])[C:4]([H:11])([H:12])[O:5][C:6]1([H:13])[H:14].[O:1]([C:2][H:9])[H:7]"
O        2.12819911       0.74945463      -0.74036649
C        1.68181175      -0.35177601      -0.10049065
C       -0.27646911       0.13120096       0.70180152
C       -0.89869350       0.80937024      -0.50764422
O       -1.47532498      -0.43823563      -0.93511481
C       -1.16535455      -1.04558838       0.32868844
H        2.81450428       1.16031299      -0.20938209
H        1.01112189      -0.22110665       0.97806266
H        1.21599088      -1.00768698      -0.84046854
H       -0.41025058       0.61256099       1.67152641
H       -1.67146018       1.54809207      -0.26681037
H       -0.22075734       1.24009996      -1.24874917
H       -2.05736319      -1.16873787       0.95271605
H       -0.67595448      -2.01796032       0.21623126
14
Frame=4 idx=006139 GeodesicLength=0.27856057513209787 rxn_smarts="[O:1]([C:2]([C:3]1([H:10])[C:4]([H:11])([H:12])[O:5][C:6]1([H:13])[H:14])([H:8])[H:9])[H:7]>>[C:3]1([H:8])([H:10])[C:4]([H:11])([H:12])[O:5][C:6]1([H:13])[H:14].[O:1]([C:2][H:9])[H:7]"
O        2.13709279       0.74804801      -0.74456105
C        1.66970795      -0.34597806      -0.10633836
C       -0.27988890       0.13726636       0.70571407
C       -0.90737545       0.81308140      -0.50388616
O       -1.46323238      -0.44124278      -0.93890407
C       -1.16190752      -1.04493703       0.32894061
H        2.84423706       1.13485636      -0.22277515
H        1.00833043      -0.21992223       1.00244662
H        1.22832570      -1.01101316      -0.85394287
H       -0.42802806       0.61953681       1.67283161
H       -1.69029511       1.54186636      -0.26623191
H       -0.23320094       1.25623929      -1.24096456
H       -2.05786553      -1.17336664       0.94591701
H       -0.66590004      -2.01443468       0.22175419
14
Frame=5 idx=006139 GeodesicLength=0.3480625286896932 rxn_smarts="[O:1]([C:2]([C:3]1([H:10])[C:4]([H:11])([H:12])[O:5][C:6]1([H:13])[H:14])([H:8])[H:9])[H:7]>>[C:3]1([H:8])([H:10])[C:4]([H:11])([H:12])[O:5][C:6]1([H:13])[H:14].[O:1]([C:2][H:9])[H:7]"
O        2.14619797       0.74666899      -0.74868571
C        1.65746063      -0.33979339      -0.11250010
C       -0.28332790       0.14346748       0.70964660
C       -0.91618687       0.81682614      -0.50011790
O       -1.45110691      -0.44392392      -0.94253089
C       -1.15835562      -1.04417456       0.32916189
H        2.87334584       1.10837191      -0.23627162
H        1.00532042      -0.21858615       1.02682697
H        1.24144013      -1.01430170      -0.86699882
H       -0.44582539       0.62635820       1.67408341
H       -1.70912465       1.53553457      -0.26566779
H       -0.24598175       1.27232649      -1.23316347
H       -2.05812116      -1.17807484       0.93910143
H       -0.65573473      -2.01069923       0.22711600
14
Frame=6 idx=006139 GeodesicLength=0.41749347268367654 rxn_smarts="[O:1]([C:2]([C:3]1([H:10])[C:4]([H:11])([H:12])[O:5][C:6]1([H:13])[H:14])([H:8])[H:9])[H:7]>>[C:3]1([H:8])([H:10])[C:4]([H:11])([H:12])[O:5][C:6]1([H:13])[H:14].[O:1]([C:2][H:9])[H:7]"
O        2.15553592       0.74530941      -0.75273967
C        1.64509638      -0.33324292      -0.11903518
C       -0.28675996       0.14980004       0.71357904
C       -0.92511668       0.82060228      -0.49634766
O       -1.43896754      -0.44627182      -0.94599477
C       -1.15469951      -1.04329214       0.32935546
H        2.90169683       1.08093395      -0.24979765
H        1.00209795      -0.21715517       1.05119827
H        1.25532810      -1.01757480      -0.87960799
H       -0.46359635       0.63302668       1.67526482
H       -1.72792476       1.52910323      -0.26511030
H       -0.25909836       1.28834980      -1.22537259
H       -2.05812142      -1.18283664       0.93229115
H       -0.64547060      -2.00675190       0.23231708
14
Frame=7 idx=006139 GeodesicLength=0.4868439970572808 rxn_smarts="[O:1]([C:2]([C:3]1([H:10])[C:4]([H:11])([H:12])[O:5][C:6]1([H:13])[H:14])([H:8])[H:9])[H:7]>>[C:3]1([H:8])([H:10])[C:4]([H:11])([H:12])[O:5][C:6]1([H:13])[H:14].[O:1]([C:2][H:9])[H:7]"
O        2.16513549       0.74393085      -0.75673379
C        1.63264061      -0.32636365      -0.12600825
C       -0.29015192       0.15625580       0.71748837
C       -0.93414522       0.82440859      -0.49258397
O       -1.42683831      -0.44827605      -0.94929216
C       -1.15094036      -1.04227946       0.32952461
H        2.92910544       1.05266855      -0.26325449
H        0.99867529      -0.21569281       1.07555278
H        1.26998325      -1.02086208      -0.89174131
H       -0.48128096       0.63954175       1.67635430
H       -1.74665819       1.52258803      -0.26455121
H       -0.27254459       1.30429170      -1.21762070
H       -2.05785466      -1.18761840       0.92551147
H       -0.63512588      -2.00259283       0.23735434
14
Frame=8 idx=006139 GeodesicLength=0.5561233336704908 rxn_smarts="[O:1]([C:2]([C:3]1([H:10])[C:4]([H:11])([H:12])[O:5][C:6]1([H:13])[H:14])([H:8])[H:9])[H:7]>>[C:3]1([H:8])([H:10])[C:4]([H:11])([H:12])[O:5][C:6]1([H:13])[H:14].[O:1]([C:2][H:9])[H:7]"
O        2.17500619       0.74253186      -0.76065601
C        1.62010380      -0.31916506      -0.13347951
C       -0.29348725       0.16283149       0.72135444
C       -0.94327635       0.82824115      -0.48883300
O       -1.41474775      -0.44993505      -0.95242229
C       -1.14708040      -1.04113334       0.32967043
H        2.95555576       1.02362423      -0.27659341
H        0.99505024      -0.21423822       1.09989335
H        1.28540167      -1.02416823      -0.90336294
H       -0.49884974       0.64590574       1.67733433
H       -1.76532008       1.51599116      -0.26398028
H       -0.28633600       1.32014368      -1.20993013
H       -2.05731259      -1.19240747       0.91878254
H       -0.62470750      -1.99822195       0.24222247
14
Frame=9 idx=006139 GeodesicLength=0.625386273989403 rxn_smarts="[O:1]([C:2]([C:3]1([H:10])[C:4]([H:11])([H:12])[O:5][C:6]1([H:13])[H:14])([H:8])[H:9])[H:7]>>[C:3]1([H:8])([H:10])[C:4]([H:11])([H:12])[O:5][C:6]1([H:13])[H:14].[O:1]([C:2][H:9])[H:7]"
O        2.18520088       0.74105879      -0.76451144
C        1.60749348      -0.31170038      -0.14153699
C       -0.29672206       0.16951375       0.72514477
C       -0.95249210       0.83209503      -0.48510524
O       -1.40274542      -0.45124160      -0.95536998
C       -1.14312363      -1.03984685       0.32979974
H        2.98091775       0.99400835      -0.28968005
H        0.99123126      -0.21285762       1.12423126
H        1.30154154      -1.02755058      -0.91447279
H       -0.51624361       0.65212534       1.67817243
H       -1.78386755       1.50933456      -0.26338757
H       -0.30046965       1.33587654      -1.20234026
H       -2.05647889      -1.19717276       0.91214557
H       -0.61424198      -1.99364256       0.24691054
14
Frame=10 idx=006139 GeodesicLength=0.6945765265650361 rxn_smarts="[O:1]([C:2]([C:3]1([H:10])[C:4]([H:11])([H:12])[O:5][C:6]1([H:13])[H:14])([H:8])[H:9])[H:7]>>[C:3]1([H:8])([H:10])[C:4]([H:11])([H:12])[O:5][C:6]1([H:13])[H:14].[O:1]([C:2][H:9])[H:7]"
O        2.19570407       0.73951360      -0.76830485
C        1.59481988      -0.30395837      -0.15024346
C       -0.29984243       0.17630614       0.72883868
C       -0.96180310       0.83596944      -0.48140684
O       -1.39085266      -0.45220015      -0.95814669
C       -1.13906774      -1.03841586       0.32991010
H        3.00516454       0.96380446      -0.30244789
H        0.98721829      -0.21158088       1.14854638
H        1.31842043      -1.03099486      -0.92500723
H       -0.53341770       0.65820301       1.67885615
H       -1.80230727       1.50261726      -0.26275207
H       -0.31496820       1.35149151      -1.19487476
H       -2.05534525      -1.20190242       0.90561895
H       -0.60372286      -1.98885288       0.25141352
14
Frame=11 idx=006139 GeodesicLength=0.7636919590550189 rxn_smarts="[O:1]([C:2]([C:3]1([H:10])[C:4]([H:11])([H:12])[O:5][C:6]1([H:13])[H:14])([H:8])[H:9])[H:7]>>[C:3]1([H:8])([H:10])[C:4]([H:11])([H:12])[O:5][C:6]1([H:13])[H:14].[O:1]([C:2][H:9])[H:7]"
O        2.20653638       0.73783652      -0.77206335
C        1.58208934      -0.29597904      -0.15968456
C       -0.30281062       0.18320092       0.73240409
C       -0.97119954       0.83986045      -0.47774889
O       -1.37911528      -0.45280979      -0.96074700
C       -1.13491349      -1.03683400       0.33000581
H        3.02818747       0.93317366      -0.31474018
H        0.98302312      -0.21046213       1.17283182
H        1.33601124      -1.03453383      -0.93495057
H       -0.55030162       0.66414524       1.67935669
H       -1.82060660       1.49585972      -0.26205539
H       -0.32983908       1.36696653      -1.18757153
H       -2.05389517      -1.20656759       0.89924149
H       -0.59316616      -1.98385665       0.25572156
14
Frame=12 idx=006139 GeodesicLength=0.8327369274509042 rxn_smarts="[O:1]([C:2]([C:3]1([H:10])[C:4]([H:11])([H:12])[O:5][C:6]1([H:13])[H:14])([H:8])[H:9])[H:7]>>[C:3]1([H:8])([H:10])[C:4]([H:11])([H:12])[O:5][C:6]1([H:13])[H:14].[O:1]([C:2][H:9])[H:7]"
O        2.21771095       0.73600479      -0.77579666
C        1.56929984      -0.28777720      -0.16995662
C       -0.30559460       0.19019659       0.73580830
C       -0.98068611       0.84376389      -0.47413976
O       -1.36758134      -0.45307707      -0.96317212
C       -1.13066171      -1.03509708       0.33008929
H        3.04996809       0.90220619      -0.32642212
H        0.97864851      -0.20954387       1.19707796
H        1.35429284      -1.03819189      -0.94427565
H       -0.56683759       0.66996320       1.67965034
H       -1.83876212       1.48906797      -0.26127271
H       -0.34510269       1.38228858      -1.18046693
H       -2.05211649      -1.21114955       0.89305281
H       -0.58257759      -1.97865455       0.25982388
14
Frame=13 idx=006139 GeodesicLength=0.9017130817849642 rxn_smarts="[O:1]([C:2]([C:3]1([H:10])[C:4]([H:11])([H:12])[O:5][C:6]1([H:13])[H:14])([H:8])[H:9])[H:7]>>[C:3]1([H:8])([H:10])[C:4]([H:11])([H:12])[O:5][C:6]1([H:13])[H:14].[O:1]([C:2][H:9])[H:7]"
O        2.22924381       0.73396483      -0.77952673
C        1.55644619      -0.27938248      -0.18115935
C       -0.30815665       0.19728774       0.73901522
C       -0.99026384       0.84767649      -0.47058963
O       -1.35630610      -0.45300380      -0.96541803
C       -1.12631142      -1.03320101       0.33016318
H        3.07044941       0.87103535      -0.33732921
H        0.97410261      -0.20887019       1.22127844
H        1.37323825      -1.04199568      -0.95295935
H       -0.58295394       0.67566632       1.67970782
H       -1.85675450       1.48226112      -0.26037920
H       -0.36078033       1.39743799      -1.17360210
H       -2.04998758      -1.21562645       0.88709719
H       -0.57196591      -1.97325023       0.26370175
14
Frame=14 idx=006139 GeodesicLength=0.9706340875036601 rxn_smarts="[O:1]([C:2]([C:3]1([H:10])[C:4]([H:11])([H:12])[O:5][C:6]1([H:13])[H:14])([H:8])[H:9])[H:7]>>[C:3]1([H:8])([H:10])[C:4]([H:11])([H:12])[O:5][C:6]1([H:13])[H:14].[O:1]([C:2][H:9])[H:7]"
O        2.24114336       0.73169410      -0.78327096
C        1.54351751      -0.27080112      -0.19340176
C       -0.31045952       0.20447627       0.74198546
C       -0.99994208       0.85159266      -0.46710768
O       -1.34534772      -0.45260280      -0.96748592
C       -1.12185899      -1.03114262       0.33023053
H        3.08964134       0.83973637      -0.34728437
H        0.96938680      -0.20847350       1.24542880
H        1.39281037      -1.04596975      -0.96099892
H       -0.59858532       0.68127322       1.67950210
H       -1.87458677       1.47544357      -0.25934248
H       -0.37690130       1.41240002      -1.16701811
H       -2.04748875      -1.21998309       0.88142264
H       -0.56132893      -1.96764334       0.26734066
14
Frame=15 idx=006139 GeodesicLength=1.0395072911403789 rxn_smarts="[O:1]([C:2]([C:3]1([H:10])[C:4]([H:11])([H:12])[O:5][C:6]1([H:13])[H:14])([H:8])[H:9])[H:7]>>[C:3]1([H:8])([H:10])[C:4]([H:11])([H:12])[O:5][C:6]1([H:13])[H:14].[O:1]([C:2][H:9])[H:7]"
O        2.25341949       0.72914264      -0.78705101
C        1.53049815      -0.26205137      -0.20680575
C       -0.31246123       0.21175996       0.74467681
C       -1.00972834       0.85550942      -0.46370234
O       -1.33476905      -0.45188144      -0.96937661
C       -1.11730084      -1.02891856       0.33029207
H        3.10752731       0.80842535      -0.35610026
H        0.96450632      -0.20839046       1.26952117
H        1.41297657      -1.05014573      -0.96836921
H       -0.61365380       0.68679834       1.67900290
H       -1.89225176       1.46863058      -0.25812604
H       -0.39349766       1.42715850      -1.16075660
H       -2.04459659      -1.22420083       0.87607819
H       -0.55066854      -1.96183640       0.27071667
14
Frame=16 idx=006139 GeodesicLength=1.1083437987788172 rxn_smarts="[O:1]([C:2]([C:3]1([H:10])[C:4]([H:11])([H:12])[O:5][C:6]1([H:13])[H:14])([H:8])[H:9])[H:7]>>[C:3]1([H:8])([H:10])[C:4]([H:11])([H:12])[O:5][C:6]1([H:13])[H:14].[O:1]([C:2][H:9])[H:7]"
O        2.26607898       0.72626512      -0.79089487
C        1.51736691      -0.25314154      -0.22151213
C       -0.31411430       0.21913990       0.74704166
C       -1.01963524       0.85942436      -0.46038178
O       -1.32463843      -0.45084946      -0.97109315
C       -1.11262973      -1.02652526       0.33034672
H        3.12410242       0.77719588      -0.36355791
H        0.95946881      -0.20865235       1.29354291
H        1.43370132      -1.05455895      -0.97504293
H       -0.62807439       0.69226069       1.67818061
H       -1.90975399       1.46183439      -0.25668604
H       -0.41060994       1.44169976      -1.15486237
H       -2.04128340      -1.22826258       0.87111844
H       -0.53997903      -1.95582995       0.27380083
