19
Frame=0 idx=008080 GeodesicLength=0.0 rxn_smarts="[C:1]([C:2]([C@@:3]([O:4][H:14])([C@@:5]([C:6]([H:16])([H:17])[H:18])([O:7][H:19])[H:15])[H:13])([H:11])[H:12])([H:8])([H:9])[H:10]>>[C:1]([C:2]([C:3]([C:5]([C:6]([H:16])([H:17])[H:18])=[O:7])([H:13])[H:15])([H:11])[H:12])([H:8])([H:9])[H:10].[O:4]([H:14])[H:19]"
C        2.16131094       0.12271390       1.29153424
C        0.76296039       0.67533977       1.04547394
C        0.17900932       0.30897144      -0.26779900
O       -0.18846246      -1.79201927       0.19718493
C       -1.24874435       0.39371055      -0.53459262
C       -1.66652767       0.02802937      -1.96132890
O       -2.02624547      -0.02741291       0.43258123
H        2.16439854      -0.96680249       1.32546528
H        2.85558829       0.42919761       0.50643570
H        2.54994398       0.48902200       2.24169955
H        0.05118181       0.41471846       1.82921366
H        0.81825769       1.77186492       1.03448494
H        0.85846777       0.28106653      -1.12111883
H        0.20529106      -2.12296116       1.00625238
H       -1.05149636       1.55682454      -0.58328199
H       -1.67360245      -1.05828556      -2.05960034
H       -2.67931362       0.39138693      -2.12854897
H       -1.00479178       0.45436023      -2.72033093
H       -1.06722559      -1.34972488       0.46627579
19
Frame=1 idx=008080 GeodesicLength=0.12634607130728628 rxn_smarts="[C:1]([C:2]([C@@:3]([O:4][H:14])([C@@:5]([C:6]([H:16])([H:17])[H:18])([O:7][H:19])[H:15])[H:13])([H:11])[H:12])([H:8])([H:9])[H:10]>>[C:1]([C:2]([C:3]([C:5]([C:6]([H:16])([H:17])[H:18])=[O:7])([H:13])[H:15])([H:11])[H:12])([H:8])([H:9])[H:10].[O:4]([H:14])[H:19]"
C        2.16210866       0.12685735       1.29401515
C        0.76745315       0.68614633       1.04348057
C        0.18326927       0.31108870      -0.26950750
O       -0.19687159      -1.80808212       0.19004211
C       -1.24774437       0.39164525      -0.53485966
C       -1.66868914       0.02887062      -1.95962214
O       -2.01520306      -0.03817524       0.43675624
H        2.15564902      -0.96237551       1.33533839
H        2.85888601       0.42425937       0.50753946
H        2.55335181       0.49606183       2.24209639
H        0.05621870       0.43505408       1.83096309
H        0.82946017       1.78211350       1.02824222
H        0.86117998       0.28300762      -1.12376769
H        0.17793657      -2.14365071       1.00620046
H       -1.01522145       1.56107785      -0.58128104
H       -1.63030430      -1.05423155      -2.08335544
H       -2.69983552       0.34646396      -2.10778371
H       -1.03297278       0.49192681      -2.71911791
H       -1.09867113      -1.35805814       0.46462099
19
Frame=2 idx=008080 GeodesicLength=0.25258708757603054 rxn_smarts="[C:1]([C:2]([C@@:3]([O:4][H:14])([C@@:5]([C:6]([H:16])([H:17])[H:18])([O:7][H:19])[H:15])[H:13])([H:11])[H:12])([H:8])([H:9])[H:10]>>[C:1]([C:2]([C:3]([C:5]([C:6]([H:16])([H:17])[H:18])=[O:7])([H:13])[H:15])([H:11])[H:12])([H:8])([H:9])[H:10].[O:4]([H:14])[H:19]"
C        2.16292160       0.13101617       1.29665664
C        0.77213894       0.69726239       1.04158040
C        0.18766819       0.31357567      -0.27107393
O       -0.20529117      -1.82420666       0.18166168
C       -1.24666311       0.39010339      -0.53478186
C       -1.67082965       0.02914071      -1.95734963
O       -2.00396827      -0.04807597       0.44137745
H        2.14660360      -0.95780751       1.34522566
H        2.86225727       0.41923242       0.50892875
H        2.55681165       0.50288883       2.24270657
H        0.06142716       0.45579546       1.83268900
H        0.84105553       1.79260301       1.02210703
H        0.86397463       0.28555816      -1.12632794
H        0.14991382      -2.16490251       1.00450310
H       -0.97910387       1.56526232      -0.58008121
H       -1.58702257      -1.04826847      -2.10660961
H       -2.71812250       0.29919455      -2.08709093
H       -1.06269702       0.52798064      -2.71657538
H       -1.13107424      -1.36635260       0.46245420
19
Frame=3 idx=008080 GeodesicLength=0.37871674999630434 rxn_smarts="[C:1]([C:2]([C@@:3]([O:4][H:14])([C@@:5]([C:6]([H:16])([H:17])[H:18])([O:7][H:19])[H:15])[H:13])([H:11])[H:12])([H:8])([H:9])[H:10]>>[C:1]([C:2]([C:3]([C:5]([C:6]([H:16])([H:17])[H:18])=[O:7])([H:13])[H:15])([H:11])[H:12])([H:8])([H:9])[H:10].[O:4]([H:14])[H:19]"
C        2.16374231       0.13520341       1.29946817
C        0.77703080       0.70872187       1.03975408
C        0.19221152       0.31641686      -0.27250074
O       -0.21373193      -1.84039494       0.17202168
C       -1.24550146       0.38902198      -0.53433963
C       -1.67293481       0.02884477      -1.95451014
O       -1.99250247      -0.05722076       0.44646276
H        2.13723054      -0.95307807       1.35516720
H        2.86570020       0.41408813       0.51060616
H        2.56031804       0.50954045       2.24353110
H        0.06682062       0.47702987       1.83438741
H        0.85307741       1.80336039       1.01600559
H        0.86685912       0.28864813      -1.12879789
H        0.12117674      -2.18673177       1.00109315
H       -0.94316573       1.56937103      -0.57964042
H       -1.54389005      -1.04030593      -2.12940034
H       -2.73398277       0.24962365      -2.06639759
H       -1.09395282       0.56245569      -2.71271871
H       -1.16450527      -1.37459476       0.45980818
19
Frame=4 idx=008080 GeodesicLength=0.5047161874352153 rxn_smarts="[C:1]([C:2]([C@@:3]([O:4][H:14])([C@@:5]([C:6]([H:16])([H:17])[H:18])([O:7][H:19])[H:15])[H:13])([H:11])[H:12])([H:8])([H:9])[H:10]>>[C:1]([C:2]([C:3]([C:5]([C:6]([H:16])([H:17])[H:18])=[O:7])([H:13])[H:15])([H:11])[H:12])([H:8])([H:9])[H:10].[O:4]([H:14])[H:19]"
C        2.16456308       0.13943489       1.30246304
C        0.78214447       0.72056048       1.03798073
C        0.19690937       0.31959876      -0.27379129
O       -0.22220679      -1.85664626       0.16108765
C       -1.24425554       0.38832934      -0.53351361
C       -1.67498592       0.02798742      -1.95110373
O       -1.98075376      -0.06574529       0.45202633
H        2.12749457      -0.94815983       1.36521212
H        2.86921151       0.40879508       0.51257822
H        2.56386377       0.51605588       2.24457381
H        0.07241575       0.49885311       1.83605008
H        0.86556448       1.81441209       1.00985664
H        0.86984338       0.29221186      -1.13117713
H        0.09167587      -2.20915236       0.99589167
H       -0.90743934       1.57339131      -0.57990011
H       -1.50109389      -1.03028475      -2.15175015
H       -2.74717518       0.19783599      -2.04567962
H       -1.12675181       0.59528725      -2.70753919
H       -1.19902402      -1.38276495       0.45673453
19
Frame=5 idx=008080 GeodesicLength=0.6310056017066525 rxn_smarts="[C:1]([C:2]([C@@:3]([O:4][H:14])([C@@:5]([C:6]([H:16])([H:17])[H:18])([O:7][H:19])[H:15])[H:13])([H:11])[H:12])([H:8])([H:9])[H:10]>>[C:1]([C:2]([C:3]([C:5]([C:6]([H:16])([H:17])[H:18])=[O:7])([H:13])[H:15])([H:11])[H:12])([H:8])([H:9])[H:10].[O:4]([H:14])[H:19]"
C        2.16536623       0.14374410       1.30567954
C        0.78749773       0.73281008       1.03621876
C        0.20179453       0.32306109      -0.27496767
O       -0.23053204      -1.87303123       0.14878716
C       -1.24288912       0.38786426      -0.53231815
C       -1.67695720       0.02651025      -1.94714716
O       -1.96868665      -0.07384797       0.45803345
H        2.11735684      -0.94299827       1.37545528
H        2.87278744       0.40331945       0.51489650
H        2.56741273       0.52252625       2.24586180
H        0.07821522       0.52138298       1.83762577
H        0.87855643       1.82577214       1.00354302
H        0.87296141       0.29617576      -1.13349094
H        0.06140069      -2.23217537       0.98881626
H       -0.87194055       1.57721422      -0.58082656
H       -1.45880893      -1.01846472      -2.17348643
H       -2.75772249       0.14445347      -2.02505084
H       -1.16110812       0.62653493      -2.70095802
H       -1.23470416      -1.39085144       0.45332822
19
Frame=6 idx=008080 GeodesicLength=0.7573090417784598 rxn_smarts="[C:1]([C:2]([C@@:3]([O:4][H:14])([C@@:5]([C:6]([H:16])([H:17])[H:18])([O:7][H:19])[H:15])[H:13])([H:11])[H:12])([H:8])([H:9])[H:10]>>[C:1]([C:2]([C:3]([C:5]([C:6]([H:16])([H:17])[H:18])=[O:7])([H:13])[H:15])([H:11])[H:12])([H:8])([H:9])[H:10].[O:4]([H:14])[H:19]"
C        2.16614607       0.14813859       1.30912335
C        0.79310332       0.74550484       1.03445616
C        0.20686640       0.32682134      -0.27602557
O       -0.23880278      -1.88951746       0.13508885
C       -1.24141398       0.38761316      -0.53071050
C       -1.67884526       0.02446576      -1.94262727
O       -1.95622912      -0.08163162       0.46452299
H        2.10678975      -0.93757716       1.38592478
H        2.87642731       0.39763787       0.51755622
H        2.57096557       0.52896296       2.24739416
H        0.08423713       0.54468793       1.83911518
H        0.89208483       1.83746661       0.99701264
H        0.87621406       0.30048336      -1.13572611
H        0.03027220      -2.25581832       0.97976009
H       -0.83669553       1.58089417      -0.58236315
H       -1.41720940      -1.00465670      -2.19474643
H       -2.76538926       0.08932970      -2.00439014
H       -1.19693321       0.65599974      -2.69299691
H       -1.27158810      -1.39880477       0.44963165
19
Frame=7 idx=008080 GeodesicLength=0.8836357502580753 rxn_smarts="[C:1]([C:2]([C@@:3]([O:4][H:14])([C@@:5]([C:6]([H:16])([H:17])[H:18])([O:7][H:19])[H:15])[H:13])([H:11])[H:12])([H:8])([H:9])[H:10]>>[C:1]([C:2]([C:3]([C:5]([C:6]([H:16])([H:17])[H:18])=[O:7])([H:13])[H:15])([H:11])[H:12])([H:8])([H:9])[H:10].[O:4]([H:14])[H:19]"
C        2.16687366       0.15261908       1.31281427
C        0.79896978       0.75869362       1.03266235
C        0.21211891       0.33087058      -0.27696829
O       -0.24698332      -1.90608322       0.11993724
C       -1.23983261       0.38750781      -0.52865947
C       -1.68062842       0.02184213      -1.93752937
O       -1.94334502      -0.08923213       0.47151912
H        2.09569851      -0.93187794       1.39670500
H        2.88011441       0.39165292       0.52057153
H        2.57450805       0.53540703       2.24916929
H        0.09047572       0.56891243       1.84049044
H        0.90621325       1.84953439       0.99015985
H        0.87958762       0.30506666      -1.13788585
H       -0.00170025      -2.28011533       0.96855187
H       -0.80173113       1.58440879      -0.58447326
H       -1.37644249      -0.98877691      -2.21554084
H       -2.76990533       0.03255497      -1.98364380
H       -1.23424351       0.68360839      -2.68363281
H       -1.30974783      -1.40659328       0.44575273
19
Frame=8 idx=008080 GeodesicLength=1.0100517487441651 rxn_smarts="[C:1]([C:2]([C@@:3]([O:4][H:14])([C@@:5]([C:6]([H:16])([H:17])[H:18])([O:7][H:19])[H:15])[H:13])([H:11])[H:12])([H:8])([H:9])[H:10]>>[C:1]([C:2]([C:3]([C:5]([C:6]([H:16])([H:17])[H:18])=[O:7])([H:13])[H:15])([H:11])[H:12])([H:8])([H:9])[H:10].[O:4]([H:14])[H:19]"
C        2.16754358       0.15723236       1.31677771
C        0.80510875       0.77239384       1.03080819
C        0.21757954       0.33518520      -0.27781433
O       -0.25501557      -1.92280095       0.10327235
C       -1.23812454       0.38744546      -0.52615350
C       -1.68230561       0.01865578      -1.93184920
O       -1.92995204      -0.09683909       0.47899424
H        2.08409727      -0.92583236       1.40782524
H        2.88384634       0.38541331       0.52398965
H        2.57800531       0.54191943       2.25121960
H        0.09694471       0.59409623       1.84170593
H        0.92094240       1.86197142       0.98292174
H        0.88311588       0.30986115      -1.13998532
H       -0.03457201      -2.30510838       0.95511370
H       -0.76706884       1.58773115      -0.58711537
H       -1.33677147      -0.97101111      -2.23580666
H       -2.77129892      -0.02539162      -1.96286760
H       -1.27287137       0.70922991      -2.67282389
H       -1.34920341      -1.41415173       0.44178751
19
Frame=9 idx=008080 GeodesicLength=1.1370072720459026 rxn_smarts="[C:1]([C:2]([C@@:3]([O:4][H:14])([C@@:5]([C:6]([H:16])([H:17])[H:18])([O:7][H:19])[H:15])[H:13])([H:11])[H:12])([H:8])([H:9])[H:10]>>[C:1]([C:2]([C:3]([C:5]([C:6]([H:16])([H:17])[H:18])=[O:7])([H:13])[H:15])([H:11])[H:12])([H:8])([H:9])[H:10].[O:4]([H:14])[H:19]"
C        2.16813155       0.16201845       1.32107295
C        0.81155360       0.78663250       1.02885134
C        0.22331049       0.33971082      -0.27858835
O       -0.26260314      -1.93972738       0.08498546
C       -1.23622748       0.38724081      -0.52320613
C       -1.68385570       0.01484746      -1.92562052
O       -1.91595504      -0.10469922       0.48694151
H        2.07194221      -0.91936505       1.41940238
H        2.88761608       0.37888266       0.52789924
H        2.58139893       0.54859912       2.25359586
H        0.10365858       0.62035236       1.84268625
H        0.93632784       1.87477337       0.97519378
H        0.88686491       0.31481791      -1.14205110
H       -0.06840222      -2.33075419       0.93927285
H       -0.73271288       1.59076508      -0.59025707
H       -1.29839617      -0.95174923      -2.25533446
H       -2.76986764      -0.08383293      -1.94222314
H       -1.31273979       0.73292116      -2.66045365
H       -1.39004412      -1.42143369       0.43783280
19
Frame=10 idx=008080 GeodesicLength=1.2640743485249553 rxn_smarts="[C:1]([C:2]([C@@:3]([O:4][H:14])([C@@:5]([C:6]([H:16])([H:17])[H:18])([O:7][H:19])[H:15])[H:13])([H:11])[H:12])([H:8])([H:9])[H:10]>>[C:1]([C:2]([C:3]([C:5]([C:6]([H:16])([H:17])[H:18])=[O:7])([H:13])[H:15])([H:11])[H:12])([H:8])([H:9])[H:10].[O:4]([H:14])[H:19]"
C        2.16861640       0.16697091       1.32569838
C        0.81829960       0.80145175       1.02676991
C        0.22928001       0.34448489      -0.27928939
O       -0.26987841      -1.95682503       0.06503427
C       -1.23417489       0.38690429      -0.51975212
C       -1.68527614       0.01048271      -1.91879296
O       -1.90128760      -0.11291187       0.49539015
H        2.05916499      -0.91246806       1.43146363
H        2.89140768       0.37200310       0.53229010
H        2.58468976       0.55544048       2.25628533
H        0.11061009       0.64776974       1.84341304
H        0.95240356       1.88797556       0.96690905
H        0.89079422       0.31988308      -1.14407796
H       -0.10324080      -2.35712933       0.92085359
H       -0.69870406       1.59357567      -0.59384332
H       -1.26148207      -0.93075824      -2.27429275
H       -2.76524297      -0.14295951      -1.92156153
H       -1.35371389       0.75445597      -2.64656895
H       -1.43226548      -1.42834610       0.43407154
19
Frame=11 idx=008080 GeodesicLength=1.3912795963068856 rxn_smarts="[C:1]([C:2]([C@@:3]([O:4][H:14])([C@@:5]([C:6]([H:16])([H:17])[H:18])([O:7][H:19])[H:15])[H:13])([H:11])[H:12])([H:8])([H:9])[H:10]>>[C:1]([C:2]([C:3]([C:5]([C:6]([H:16])([H:17])[H:18])=[O:7])([H:13])[H:15])([H:11])[H:12])([H:8])([H:9])[H:10].[O:4]([H:14])[H:19]"
C        2.16894777       0.17208723       1.33068440
C        0.82535932       0.81689711       1.02452236
C        0.23549115       0.34950812      -0.27993223
O       -0.27673007      -1.97407880       0.04333911
C       -1.23195242       0.38635667      -0.51575770
C       -1.68654908       0.00553351      -1.91133896
O       -1.88587626      -0.12163081       0.50436687
H        2.04564564      -0.90510696       1.44409656
H        2.89518611       0.36466717       0.53720615
H        2.58783936       0.56247799       2.25929967
H        0.11779011       0.67648718       1.84382245
H        0.96924402       1.90159712       0.95796622
H        0.89489568       0.32500907      -1.14608463
H       -0.13909409      -2.38426107       0.89960716
H       -0.66506347       1.59614725      -0.59785706
H       -1.22615020      -0.90804183      -2.29265573
H       -2.75730813      -0.20258864      -1.90086078
H       -1.39574891       0.77374101      -2.63111261
H       -1.47592653      -1.43480131       0.43068874
19
Frame=12 idx=008080 GeodesicLength=1.5186345812330024 rxn_smarts="[C:1]([C:2]([C@@:3]([O:4][H:14])([C@@:5]([C:6]([H:16])([H:17])[H:18])([O:7][H:19])[H:15])[H:13])([H:11])[H:12])([H:8])([H:9])[H:10]>>[C:1]([C:2]([C:3]([C:5]([C:6]([H:16])([H:17])[H:18])=[O:7])([H:13])[H:15])([H:11])[H:12])([H:8])([H:9])[H:10].[O:4]([H:14])[H:19]"
C        2.16909823       0.17739489       1.33606899
C        0.83275064       0.83299713       1.02206717
C        0.24197245       0.35477716      -0.28054227
O       -0.28304538      -1.99152190       0.01981186
C       -1.22953089       0.38549946      -0.51119513
C       -1.68766827      -0.00000309      -1.90323640
O       -1.86958997      -0.13105455       0.51387197
H        2.03133168      -0.89721348       1.45736382
H        2.89893156       0.35685224       0.54271792
H        2.59079956       0.56975682       2.26267710
H        0.12520777       0.70658915       1.84383484
H        0.98689312       1.91563120       0.94828065
H        0.89919281       0.33016705      -1.14809756
H       -0.17605761      -2.41218290       0.87533355
H       -0.63181321       1.59846786      -0.60225576
H       -1.19256557      -0.88376631      -2.31039033
H       -2.74616190      -0.26239544      -1.88015943
H       -1.43869733       0.79069160      -2.61402342
H       -1.52104770      -1.44068690       0.42787242
19
Frame=13 idx=008080 GeodesicLength=1.6464690089631544 rxn_smarts="[C:1]([C:2]([C@@:3]([O:4][H:14])([C@@:5]([C:6]([H:16])([H:17])[H:18])([O:7][H:19])[H:15])[H:13])([H:11])[H:12])([H:8])([H:9])[H:10]>>[C:1]([C:2]([C:3]([C:5]([C:6]([H:16])([H:17])[H:18])=[O:7])([H:13])[H:15])([H:11])[H:12])([H:8])([H:9])[H:10].[O:4]([H:14])[H:19]"
C        2.16904752       0.18294121       1.34190946
C        0.84051596       0.84977045       1.01937039
C        0.24879790       0.36026822      -0.28114373
O       -0.28847979      -2.00918645      -0.00564027
C       -1.22684253       0.38415736      -0.50605563
C       -1.68863144      -0.00618310      -1.89449651
O       -1.85225007      -0.14145840       0.52393314
H        2.01619381      -0.88869820       1.47135168
H        2.90263143       0.34855306       0.54892598
H        2.59351334       0.57736266       2.26647482
H        0.13289031       0.73814385       1.84336509
H        1.00540420       1.93005624       0.93779273
H        0.90376377       0.33535498      -1.15014562
H       -0.21432140      -2.44081100       0.84773375
H       -0.59895645       1.60049902      -0.60699763
H       -1.16087134      -0.85837037      -2.32730968
H       -2.73229227      -0.32185181      -1.85960792
H       -1.48236493       0.80534047      -2.59523224
H       -1.56774801      -1.44588819       0.42577219
19
Frame=14 idx=008080 GeodesicLength=1.7743668240728894 rxn_smarts="[C:1]([C:2]([C@@:3]([O:4][H:14])([C@@:5]([C:6]([H:16])([H:17])[H:18])([O:7][H:19])[H:15])[H:13])([H:11])[H:12])([H:8])([H:9])[H:10]>>[C:1]([C:2]([C:3]([C:5]([C:6]([H:16])([H:17])[H:18])=[O:7])([H:13])[H:15])([H:11])[H:12])([H:8])([H:9])[H:10].[O:4]([H:14])[H:19]"
C        2.16873442       0.18869592       1.34821714
C        0.84865153       0.86726221       1.01638440
C        0.25593674       0.36603279      -0.28176056
O       -0.29312514      -2.02703906      -0.03309020
C       -1.22390182       0.38234985      -0.50027123
C       -1.68942502      -0.01299333      -1.88503842
O       -1.83375599      -0.15291966       0.53455536
H        2.00008453      -0.87954963       1.48610223
H        2.90624180       0.33965028       0.55585925
H        2.59594468       0.58526438       2.27069335
H        0.14081489       0.77126384       1.84233567
H        1.02484529       1.94488968       0.92641709
H        0.90855493       0.34055496      -1.15225537
H       -0.25394522      -2.47024388       0.81651239
H       -0.56652246       1.60230025      -0.61207035
H       -1.13110918      -0.83162007      -2.34354252
H       -2.71532069      -0.38119484      -1.83905677
H       -1.52671522       0.81749339      -2.57470788
H       -1.61598807      -1.45019708       0.42471641
19
Frame=15 idx=008080 GeodesicLength=1.9023464190345534 rxn_smarts="[C:1]([C:2]([C@@:3]([O:4][H:14])([C@@:5]([C:6]([H:16])([H:17])[H:18])([O:7][H:19])[H:15])[H:13])([H:11])[H:12])([H:8])([H:9])[H:10]>>[C:1]([C:2]([C:3]([C:5]([C:6]([H:16])([H:17])[H:18])=[O:7])([H:13])[H:15])([H:11])[H:12])([H:8])([H:9])[H:10].[O:4]([H:14])[H:19]"
C        2.16811768       0.19467911       1.35503311
C        0.85718258       0.88549298       1.01306717
C        0.26342845       0.37208229      -0.28242561
O       -0.29680601      -2.04509572      -0.06262619
C       -1.22066563       0.37998439      -0.49380831
C       -1.69003698      -0.02047836      -1.87482306
O       -1.81393240      -0.16562569       0.54574702
H        1.98292889      -0.86969987       1.50166772
H        2.90972919       0.33010712       0.56360666
H        2.59802817       0.59349312       2.27537897
H        0.14899190       0.80601253       1.84064792
H        1.04527311       1.96011046       0.91409628
H        0.91359965       0.34577499      -1.15446309
H       -0.29511456      -2.50046981       0.78131607
H       -0.53451193       1.60388731      -0.61745978
H       -1.10331427      -0.80369239      -2.35903325
H       -2.69541518      -0.44026127      -1.81849844
H       -1.57165490       0.82709183      -2.55238902
H       -1.66582775      -1.45339303       0.42496584
19
Frame=16 idx=008080 GeodesicLength=2.0304649218440805 rxn_smarts="[C:1]([C:2]([C@@:3]([O:4][H:14])([C@@:5]([C:6]([H:16])([H:17])[H:18])([O:7][H:19])[H:15])[H:13])([H:11])[H:12])([H:8])([H:9])[H:10]>>[C:1]([C:2]([C:3]([C:5]([C:6]([H:16])([H:17])[H:18])=[O:7])([H:13])[H:15])([H:11])[H:12])([H:8])([H:9])[H:10].[O:4]([H:14])[H:19]"
C        2.16714258       0.20089755       1.36240279
C        0.86614408       0.90449431       1.00937200
C        0.27131966       0.37844937      -0.28317672
O       -0.29931645      -2.06335310      -0.09435438
C       -1.21708526       0.37697658      -0.48662106
C       -1.69045442      -0.02871990      -1.86379279
O       -1.79255890      -0.17977729       0.55753471
H        1.96460686      -0.85907666       1.51811575
H        2.91304900       0.31984522       0.57226540
H        2.59969787       0.60206882       2.28057526
H        0.15743634       0.84247542       1.83819063
H        1.06677441       1.97569906       0.90076868
H        0.91893495       0.35106289      -1.15681437
H       -0.33810953      -2.53145571       0.74166752
H       -0.50293521       1.60529189      -0.62314946
H       -1.07748110      -0.77471370      -2.37373090
H       -2.67267716      -0.49905944      -1.79791204
H       -1.61714573       0.83407233      -2.52818908
H       -1.71734198      -1.45517762       0.42684810
