13
Frame=0 idx=001304 GeodesicLength=0.0 rxn_smarts="[C:1]1([H:7])([H:8])[O:2][C:3]([H:9])([H:10])[C@@:4]2([H:11])[N:5]([H:12])[C@@:6]12[H:13]>>[C:1]([O:2][C:3]([C@@:4]1([H:11])[N:5]([H:12])[C:6]1)([H:9])[H:10])([H:7])([H:8])[H:13]"
C       -1.20633166      -0.75691394       0.14892189
O       -0.05816326      -1.20800899      -0.43161253
C        1.03576507      -0.61516009       0.23719858
C        0.80656163       0.87936059       0.17527511
N        0.22544899       1.36847910      -1.07063049
C       -0.58186668       1.36386351       0.07171467
H       -1.27703338      -0.94933111       1.22365528
H       -2.07737610      -1.07259391      -0.42214266
H        1.08171128      -0.96408424       1.27801464
H        1.94461060      -0.92510242      -0.28151534
H        1.57171551       1.50204179       0.62640097
H        0.07076820       0.63549749      -1.75811307
H       -1.53581020       0.74195217       0.20283296
13
Frame=1 idx=001304 GeodesicLength=0.06519689631571646 rxn_smarts="[C:1]1([H:7])([H:8])[O:2][C:3]([H:9])([H:10])[C@@:4]2([H:11])[N:5]([H:12])[C@@:6]12[H:13]>>[C:1]([O:2][C:3]([C@@:4]1([H:11])[N:5]([H:12])[C:6]1)([H:9])[H:10])([H:7])([H:8])[H:13]"
C       -1.21012325      -0.75186430       0.15064362
O       -0.05888390      -1.21092313      -0.42520771
C        1.03675550      -0.61517892       0.23797992
C        0.81164679       0.87967935       0.16997189
N        0.23093659       1.36953502      -1.07414371
C       -0.58100411       1.35712017       0.06106155
H       -1.28618650      -0.95962751       1.22248213
H       -2.07689749      -1.07281896      -0.42441311
H        1.08524408      -0.95783771       1.28077091
H        1.94414026      -0.92889451      -0.28118176
H        1.57241548       1.50393339       0.62619434
H        0.08160452       0.64744478      -1.77370102
H       -1.54964795       0.73943232       0.22954295
13
Frame=2 idx=001304 GeodesicLength=0.13037117088664327 rxn_smarts="[C:1]1([H:7])([H:8])[O:2][C:3]([H:9])([H:10])[C@@:4]2([H:11])[N:5]([H:12])[C@@:6]12[H:13]>>[C:1]([O:2][C:3]([C@@:4]1([H:11])[N:5]([H:12])[C:6]1)([H:9])[H:10])([H:7])([H:8])[H:13]"
C       -1.21399772      -0.74682488       0.15246972
O       -0.05969143      -1.21394707      -0.41859193
C        1.03768170      -0.61515692       0.23875911
C        0.81654943       0.88000148       0.16453343
N        0.23652619       1.37045956      -1.07797252
C       -0.58041330       1.35005349       0.04976811
H       -1.29556655      -0.97025558       1.22109773
H       -2.07647237      -1.07256653      -0.42679744
H        1.08877803      -0.95140910       1.28352327
H        1.94358982      -0.93265796      -0.28083667
H        1.57261684       1.50597094       0.62607584
H        0.09295366       0.65960108      -1.78961938
H       -1.56255431       0.73673149       0.25759074
13
Frame=3 idx=001304 GeodesicLength=0.1955155501478778 rxn_smarts="[C:1]1([H:7])([H:8])[O:2][C:3]([H:9])([H:10])[C@@:4]2([H:11])[N:5]([H:12])[C@@:6]12[H:13]>>[C:1]([O:2][C:3]([C@@:4]1([H:11])[N:5]([H:12])[C:6]1)([H:9])[H:10])([H:7])([H:8])[H:13]"
C       -1.21796057      -0.74179912       0.15443071
O       -0.06060869      -1.21707469      -0.41175412
C        1.03853142      -0.61509557       0.23952509
C        0.82125695       0.88032356       0.15898245
N        0.24221467       1.37127157      -1.08207728
C       -0.58008439       1.34265382       0.03786076
H       -1.30516826      -0.98115469       1.21951611
H       -2.07611276      -1.07189676      -0.42922293
H        1.09231792      -0.94481868       1.28624608
H        1.94293490      -0.93638154      -0.28050942
H        1.57229757       1.50814371       0.62606374
H        0.10482095       0.67201436      -1.80582408
H       -1.57443973       0.73381402       0.28676289
13
Frame=4 idx=001304 GeodesicLength=0.26065576603573504 rxn_smarts="[C:1]1([H:7])([H:8])[O:2][C:3]([H:9])([H:10])[C@@:4]2([H:11])[N:5]([H:12])[C@@:6]12[H:13]>>[C:1]([O:2][C:3]([C@@:4]1([H:11])[N:5]([H:12])[C:6]1)([H:9])[H:10])([H:7])([H:8])[H:13]"
C       -1.22202390      -0.73678840       0.15655810
O       -0.06163645      -1.22030778      -0.40469338
C        1.03932168      -0.61500915       0.24027281
C        0.82576757       0.88063792       0.15334625
N        0.24797598       1.37199467      -1.08643687
C       -0.58003424       1.33492373       0.02538144
H       -1.31500274      -0.99226475       1.21778457
H       -2.07584428      -1.07086134      -0.43163672
H        1.09590236      -0.93809874       1.28894188
H        1.94219722      -0.94007655      -0.28023464
H        1.57146124       1.51043239       0.62619576
H        0.11720084       0.68474017      -1.82231716
H       -1.58528530       0.73067783       0.31683795
13
Frame=5 idx=001304 GeodesicLength=0.32591294746176724 rxn_smarts="[C:1]1([H:7])([H:8])[O:2][C:3]([H:9])([H:10])[C@@:4]2([H:11])[N:5]([H:12])[C@@:6]12[H:13]>>[C:1]([O:2][C:3]([C@@:4]1([H:11])[N:5]([H:12])[C:6]1)([H:9])[H:10])([H:7])([H:8])[H:13]"
C       -1.22616582      -0.73180543       0.15887995
O       -0.06279171      -1.22364239      -0.39738595
C        1.04002730      -0.61489643       0.24098495
C        0.83008529       0.88093496       0.14763452
N        0.25381686       1.37263769      -1.09098396
C       -0.58020118       1.32684627       0.01237091
H       -1.32504778      -1.00352627       1.21592350
H       -2.07562831      -1.06954720      -0.43396855
H        1.09951827      -0.93126009       1.29155360
H        1.94131328      -0.94372569      -0.28003879
H        1.57010941       1.51281733       0.62645744
H        0.13010294       0.69782979      -1.83900890
H       -1.59513853       0.72733746       0.34758130
13
Frame=6 idx=001304 GeodesicLength=0.3909669240453704 rxn_smarts="[C:1]1([H:7])([H:8])[O:2][C:3]([H:9])([H:10])[C@@:4]2([H:11])[N:5]([H:12])[C@@:6]12[H:13]>>[C:1]([O:2][C:3]([C@@:4]1([H:11])[N:5]([H:12])[C:6]1)([H:9])[H:10])([H:7])([H:8])[H:13]"
C       -1.23040283      -0.72684747       0.16142087
O       -0.06408352      -1.22707384      -0.38983044
C        1.04065605      -0.61477305       0.24166477
C        0.83420382       0.88121121       0.14187719
N        0.25969221       1.37323357      -1.09568882
C       -0.58060221       1.31844256      -0.00110484
H       -1.33531335      -1.01485609       1.21395326
H       -2.07549484      -1.06802236      -0.43614284
H        1.10319333      -0.92433537       1.29409769
H        1.94029790      -0.94735276      -0.27994171
H        1.56824516       1.51527958       0.62687296
H        0.14348042       0.71135868      -1.85588971
H       -1.60387214       0.72373535       0.37871162
13
Frame=7 idx=001304 GeodesicLength=0.4560633619461267 rxn_smarts="[C:1]1([H:7])([H:8])[O:2][C:3]([H:9])([H:10])[C@@:4]2([H:11])[N:5]([H:12])[C@@:6]12[H:13]>>[C:1]([O:2][C:3]([C@@:4]1([H:11])[N:5]([H:12])[C:6]1)([H:9])[H:10])([H:7])([H:8])[H:13]"
C       -1.23473278      -0.72192047       0.16420000
O       -0.06550420      -1.23060513      -0.38202125
C        1.04122758      -0.61465294       0.24230499
C        0.83814706       0.88145315       0.13608884
N        0.26559528       1.37379270      -1.10051791
C       -0.58119727       1.30971457      -0.01499571
H       -1.34579536      -1.02618731       1.21192912
H       -2.07543683      -1.06636221      -0.43812902
H        1.10696354      -0.91735271       1.29656399
H        1.93916530      -0.95096703      -0.27997517
H        1.56590610       1.51779223       0.62744213
H        0.15732740       0.72538359      -1.87292754
H       -1.61166581       0.71991157       0.41003753
13
Frame=8 idx=001304 GeodesicLength=0.5210614109010403 rxn_smarts="[C:1]1([H:7])([H:8])[O:2][C:3]([H:9])([H:10])[C@@:4]2([H:11])[N:5]([H:12])[C@@:6]12[H:13]>>[C:1]([O:2][C:3]([C@@:4]1([H:11])[N:5]([H:12])[C:6]1)([H:9])[H:10])([H:7])([H:8])[H:13]"
C       -1.23915224      -0.71702562       0.16723081
O       -0.06705558      -1.23422970      -0.37394620
C        1.04174743      -0.61454403       0.24290135
C        0.84192512       0.88164647       0.13028690
N        0.27150384       1.37431678      -1.10542715
C       -0.58196087       1.30065986      -0.02924540
H       -1.35648727      -1.03744533       1.20987947
H       -2.07544619      -1.06463611      -0.43988489
H        1.11085303      -0.91033151       1.29893687
H        1.93791212      -0.95457128      -0.28015837
H        1.56311445       1.52032695       0.62816331
H        0.17160720       0.73995853      -1.89007041
H       -1.61856105       0.71587498       0.44133371
13
Frame=9 idx=001304 GeodesicLength=0.5862061413896413 rxn_smarts="[C:1]1([H:7])([H:8])[O:2][C:3]([H:9])([H:10])[C@@:4]2([H:11])[N:5]([H:12])[C@@:6]12[H:13]>>[C:1]([O:2][C:3]([C@@:4]1([H:11])[N:5]([H:12])[C:6]1)([H:9])[H:10])([H:7])([H:8])[H:13]"
C       -1.24363866      -0.71216861       0.17052074
O       -0.06873062      -1.23795488      -0.36559234
C        1.04221076      -0.61445840       0.24344803
C        0.84555828       0.88178633       0.12447279
N        0.27743119       1.37481711      -1.11038415
C       -0.58282207       1.29130053      -0.04382362
H       -1.36735885      -1.04856796       1.20782889
H       -2.07548200      -1.06291217      -0.44137400
H        1.11485797      -0.90329638       1.30119335
H        1.93651086      -0.95817781      -0.28050402
H        1.55990319       1.52286663       0.62900308
H        0.18631096       0.75513701      -1.90725855
H       -1.62475101       0.71162861       0.47246980
13
Frame=10 idx=001304 GeodesicLength=0.651147868919884 rxn_smarts="[C:1]1([H:7])([H:8])[O:2][C:3]([H:9])([H:10])[C@@:4]2([H:11])[N:5]([H:12])[C@@:6]12[H:13]>>[C:1]([O:2][C:3]([C@@:4]1([H:11])[N:5]([H:12])[C:6]1)([H:9])[H:10])([H:7])([H:8])[H:13]"
C       -1.24819868      -0.70734824       0.17407670
O       -0.07053287      -1.24177783      -0.35695061
C        1.04262555      -0.61440399       0.24395087
C        0.84905453       0.88186523       0.11866257
N        0.28334533       1.37529632      -1.11537304
C       -0.58378071       1.28164500      -0.05868241
H       -1.37841855      -1.05949790       1.20579171
H       -2.07555774      -1.06123679      -0.44256609
H        1.11900234      -0.89625541       1.30334596
H        1.93497148      -0.96180238      -0.28101913
H        1.55629336       1.52539385       0.62997562
H        0.20138629       0.77097480      -1.92448176
H       -1.63019031       0.70714734       0.50326961
13
Frame=11 idx=001304 GeodesicLength=0.716179864021185 rxn_smarts="[C:1]1([H:7])([H:8])[O:2][C:3]([H:9])([H:10])[C@@:4]2([H:11])[N:5]([H:12])[C@@:6]12[H:13]>>[C:1]([O:2][C:3]([C@@:4]1([H:11])[N:5]([H:12])[C:6]1)([H:9])[H:10])([H:7])([H:8])[H:13]"
C       -1.25281993      -0.70255632       0.17789386
O       -0.07243988      -1.24569710      -0.34801374
C        1.04301014      -0.61439374       0.24441044
C        0.85243504       0.88187087       0.11285208
N        0.28925431       1.37574701      -1.12038795
C       -0.58479165       1.27170155      -0.07381684
H       -1.38964714      -1.07019167       1.20379073
H       -2.07564639      -1.05963252      -0.44346383
H        1.12330551      -0.88922997       1.30539141
H        1.93331085      -0.96546206      -0.28170543
H        1.55231610       1.52788474       0.63104663
H        0.21682920       0.78751026      -1.94171333
H       -1.63511617       0.70244895       0.53371597
13
Frame=12 idx=001304 GeodesicLength=0.7812007148697505 rxn_smarts="[C:1]1([H:7])([H:8])[O:2][C:3]([H:9])([H:10])[C@@:4]2([H:11])[N:5]([H:12])[C@@:6]12[H:13]>>[C:1]([O:2][C:3]([C@@:4]1([H:11])[N:5]([H:12])[C:6]1)([H:9])[H:10])([H:7])([H:8])[H:13]"
C       -1.25749998      -0.69779946       0.18197305
O       -0.07445060      -1.24972567      -0.33877260
C        1.04336504      -0.61443721       0.24482802
C        0.85571087       0.88180500       0.10704161
N        0.29516237       1.37617090      -1.12543261
C       -0.58582914       1.26147796      -0.08921697
H       -1.40104570      -1.08063121       1.20185119
H       -2.07573916      -1.05814251      -0.44406447
H        1.12777028      -0.88223028       1.30733469
H        1.93152460      -0.96917271      -0.28257155
H        1.54798761       1.53034558       0.63220699
H        0.23262900       0.80478995      -1.95893956
H       -1.63958519       0.69754967       0.56376221
13
Frame=13 idx=001304 GeodesicLength=0.8461492090974522 rxn_smarts="[C:1]1([H:7])([H:8])[O:2][C:3]([H:9])([H:10])[C@@:4]2([H:11])[N:5]([H:12])[C@@:6]12[H:13]>>[C:1]([O:2][C:3]([C@@:4]1([H:11])[N:5]([H:12])[C:6]1)([H:9])[H:10])([H:7])([H:8])[H:13]"
C       -1.26222509      -0.69306142       0.18629618
O       -0.07655571      -1.25384243      -0.32921107
C        1.04369777      -0.61452709       0.24520284
C        0.85888983       0.88164100       0.10122629
N        0.30106024       1.37652156      -1.13048477
C       -0.58686941       1.25094425      -0.10489273
H       -1.41259607      -1.09077221       1.19996176
H       -2.07581494      -1.05676282      -0.44437748
H        1.13241706      -0.87523771       1.30915059
H        1.92960966      -0.97292189      -0.28360487
H        1.54331808       1.53273251       0.63343040
H        0.24875149       0.82283008      -1.97607771
H       -1.64368290       0.69245617       0.59338058
13
Frame=14 idx=001304 GeodesicLength=0.9111319142073719 rxn_smarts="[C:1]1([H:7])([H:8])[O:2][C:3]([H:9])([H:10])[C@@:4]2([H:11])[N:5]([H:12])[C@@:6]12[H:13]>>[C:1]([O:2][C:3]([C@@:4]1([H:11])[N:5]([H:12])[C:6]1)([H:9])[H:10])([H:7])([H:8])[H:13]"
C       -1.26700009      -0.68835148       0.19087454
O       -0.07875000      -1.25808449      -0.31932111
C        1.04400756      -0.61468898       0.24554123
C        0.86197952       0.88140271       0.09539207
N        0.30697151       1.37683222      -1.13559919
C       -0.58789249       1.24013067      -0.12086691
H       -1.42432016      -1.10064886       1.19815454
H       -2.07586922      -1.05551926      -0.44440578
H        1.13723312      -0.86827512       1.31087713
H        1.92757018      -0.97676193      -0.28481616
H        1.53829939       1.53509575       0.63471105
H        0.26524735       0.84169857      -1.99320325
H       -1.64747667       0.68717021       0.62266183
13
Frame=15 idx=001304 GeodesicLength=0.9760893747451395 rxn_smarts="[C:1]1([H:7])([H:8])[O:2][C:3]([H:9])([H:10])[C@@:4]2([H:11])[N:5]([H:12])[C@@:6]12[H:13]>>[C:1]([O:2][C:3]([C@@:4]1([H:11])[N:5]([H:12])[C:6]1)([H:9])[H:10])([H:7])([H:8])[H:13]"
C       -1.27181454      -0.68363600       0.19568747
O       -0.08103145      -1.26240406      -0.30907416
C        1.04429751      -0.61489876       0.24584727
C        0.86498288       0.88105090       0.08952766
N        0.31288215       1.37702867      -1.14075214
C       -0.58888249       1.22897926      -0.13717355
H       -1.43619401      -1.11021263       1.19636922
H       -2.07589257      -1.05436652      -0.44415247
H        1.14223836      -0.86129358       1.31248014
H        1.92539541      -0.98066383      -0.28616964
H        1.53292981       1.53736963       0.63601664
H        0.28208395       0.86140845      -2.01022596
H       -1.65099501       0.68163847       0.65161952
13
Frame=16 idx=001304 GeodesicLength=1.041062553619484 rxn_smarts="[C:1]1([H:7])([H:8])[O:2][C:3]([H:9])([H:10])[C@@:4]2([H:11])[N:5]([H:12])[C@@:6]12[H:13]>>[C:1]([O:2][C:3]([C@@:4]1([H:11])[N:5]([H:12])[C:6]1)([H:9])[H:10])([H:7])([H:8])[H:13]"
C       -1.27666877      -0.67892658       0.20074057
O       -0.08339108      -1.26684404      -0.29846601
C        1.04456977      -0.61518535       0.24612189
C        0.86790257       0.88060627       0.08362139
N        0.31881619       1.37713758      -1.14599527
C       -0.58982394       1.21751120      -0.15384216
H       -1.44823635      -1.11949171       1.19465896
H       -2.07587264      -1.05334085      -0.44362876
H        1.14742584      -0.85432387       1.31398877
H        1.92309158      -0.98467647      -0.28768536
H        1.52719205       1.53960230       0.63734499
H        0.29930179       0.88202582      -2.02718450
H       -1.65430701       0.67590571       0.68032549
