15
Frame=0 idx=011072 GeodesicLength=0.0 rxn_smarts="[C:1]([c:2]1[c:3]([H:11])[c:4]([N:5]([H:12])[H:13])[c:6]([H:14])[n:7]1[H:15])([H:8])([H:9])[H:10]>>[C:1]([C:2]1=[C:3]([H:11])[C@@:4]([N:5]([H:12])[H:13])([H:14])[C:6][N:7]1[H:15])([H:8])([H:9])[H:10]"
C        2.32622480      -0.47343849      -0.01456840
C        0.89324690      -0.06800868      -0.01259913
C       -0.21811452      -0.76108356      -0.33637224
C       -1.34083449       0.13874411      -0.09390564
N       -2.63219011      -0.05781364      -0.61787863
C       -0.84479883       1.44003368       0.32448691
N        0.50178240       1.19744868       0.38631520
H        2.74348793      -0.45944669       0.99508407
H        2.43472961      -1.48111272      -0.41190484
H        2.92172623       0.20269732      -0.63198931
H       -0.26464062      -1.77302153      -0.70708956
H       -3.21512359       0.75220905      -0.46534893
H       -3.08597232      -0.89512656      -0.28618219
H       -1.36292288       0.36034957       1.11865200
H        1.14339943       1.87756952       0.75330073
15
Frame=1 idx=011072 GeodesicLength=0.04850673961978091 rxn_smarts="[C:1]([c:2]1[c:3]([H:11])[c:4]([N:5]([H:12])[H:13])[c:6]([H:14])[n:7]1[H:15])([H:8])([H:9])[H:10]>>[C:1]([C:2]1=[C:3]([H:11])[C@@:4]([N:5]([H:12])[H:13])([H:14])[C:6][N:7]1[H:15])([H:8])([H:9])[H:10]"
C        2.32755177      -0.47311052      -0.01977033
C        0.89386996      -0.07057629      -0.00893181
C       -0.21930643      -0.76587855      -0.32161242
C       -1.34244443       0.13491991      -0.08391939
N       -2.62788830      -0.05602940      -0.62701500
C       -0.84247772       1.43584927       0.32615623
N        0.50316958       1.19657696       0.38817436
H        2.75143966      -0.45741563       0.98713244
H        2.43505194      -1.48095221      -0.41699289
H        2.91831797       0.20303320      -0.64180667
H       -0.26508361      -1.77537008      -0.69927980
H       -3.21455255       0.75007271      -0.46820232
H       -3.08356208      -0.89766688      -0.30895220
H       -1.37856882       0.38078475       1.13749970
H        1.14448305       1.87576277       0.75752009
15
Frame=2 idx=011072 GeodesicLength=0.09704826592045948 rxn_smarts="[C:1]([c:2]1[c:3]([H:11])[c:4]([N:5]([H:12])[H:13])[c:6]([H:14])[n:7]1[H:15])([H:8])([H:9])[H:10]>>[C:1]([C:2]1=[C:3]([H:11])[C@@:4]([N:5]([H:12])[H:13])([H:14])[C:6][N:7]1[H:15])([H:8])([H:9])[H:10]"
C        2.32883569      -0.47267756      -0.02553472
C        0.89443920      -0.07335263      -0.00475340
C       -0.22050645      -0.77083467      -0.30621776
C       -1.34408816       0.13103160      -0.07372277
N       -2.62306409      -0.05425846      -0.63654480
C       -0.84015295       1.43154028       0.32806093
N        0.50449475       1.19538717       0.39087702
H        2.75995513      -0.45545742       0.97830635
H        2.43528295      -1.48055678      -0.42298184
H        2.91430040       0.20375239      -0.65234479
H       -0.26566085      -1.77830759      -0.68958081
H       -3.21361285       0.74787819      -0.47219067
H       -3.08068425      -0.89996666      -0.33217904
H       -1.39502536       0.40227905       1.15604071
H        1.14548684       1.87354309       0.76276557
15
Frame=3 idx=011072 GeodesicLength=0.1455873644062103 rxn_smarts="[C:1]([c:2]1[c:3]([H:11])[c:4]([N:5]([H:12])[H:13])[c:6]([H:14])[n:7]1[H:15])([H:8])([H:9])[H:10]>>[C:1]([C:2]1=[C:3]([H:11])[C@@:4]([N:5]([H:12])[H:13])([H:14])[C:6][N:7]1[H:15])([H:8])([H:9])[H:10]"
C        2.33002153      -0.47224287      -0.03152585
C        0.89498987      -0.07613639      -0.00062559
C       -0.22167198      -0.77571389      -0.29085552
C       -1.34576869       0.12709410      -0.06336933
N       -2.61787779      -0.05258960      -0.64606557
C       -0.83785473       1.42710972       0.33021770
N        0.50578356       1.19406860       0.39389832
H        2.76840810      -0.45371829       0.96917747
H        2.43538547      -1.48006862      -0.42943122
H        2.91010513       0.20461324      -0.66295066
H       -0.26628895      -1.78143310      -0.67913996
H       -3.21250466       0.74545092      -0.47660288
H       -3.07726058      -0.90221820      -0.35538646
H       -1.41191730       0.42465857       1.17422139
H        1.14645103       1.87112580       0.76843817
15
Frame=4 idx=011072 GeodesicLength=0.19413319051168987 rxn_smarts="[C:1]([c:2]1[c:3]([H:11])[c:4]([N:5]([H:12])[H:13])[c:6]([H:14])[n:7]1[H:15])([H:8])([H:9])[H:10]>>[C:1]([C:2]1=[C:3]([H:11])[C@@:4]([N:5]([H:12])[H:13])([H:14])[C:6][N:7]1[H:15])([H:8])([H:9])[H:10]"
C        2.33110705      -0.47181306      -0.03772246
C        0.89552581      -0.07891467       0.00340644
C       -0.22279541      -0.78049639      -0.27559924
C       -1.34748909       0.12310818      -0.05286466
N       -2.61234316      -0.05102924      -0.65553851
C       -0.83558974       1.42255824       0.33263730
N        0.50703699       1.19263399       0.39720532
H        2.77675224      -0.45221441       0.95978727
H        2.43535808      -1.47949586      -0.43631858
H        2.90576796       0.20560704      -0.67357449
H       -0.26695341      -1.78474124      -0.66803020
H       -3.21124226       0.74278662      -0.48137879
H       -3.07328144      -0.90444212      -0.37852399
H       -1.42923019       0.44793617       1.19200016
H        1.14737656       1.86851675       0.77451444
15
Frame=5 idx=011072 GeodesicLength=0.24267750551476605 rxn_smarts="[C:1]([c:2]1[c:3]([H:11])[c:4]([N:5]([H:12])[H:13])[c:6]([H:14])[n:7]1[H:15])([H:8])([H:9])[H:10]>>[C:1]([C:2]1=[C:3]([H:11])[C@@:4]([N:5]([H:12])[H:13])([H:14])[C:6][N:7]1[H:15])([H:8])([H:9])[H:10]"
C        2.33208500      -0.47141162      -0.04403944
C        0.89605250      -0.08164755       0.00721789
C       -0.22386652      -0.78513501      -0.26061283
C       -1.34925086       0.11907117      -0.04221793
N       -2.60650807      -0.04960010      -0.66485518
C       -0.83336514       1.41788353       0.33532136
N        0.50826052       1.19112417       0.40067141
H        2.78485059      -0.45097472       0.95028014
H        2.43519901      -1.47887151      -0.44353041
H        2.90139689       0.20667943      -0.68406301
H       -0.26762869      -1.78813257      -0.65657108
H       -3.20987423       0.73984595      -0.48633565
H       -3.06874118      -0.90668698      -0.40146158
H       -1.44688154       0.47209783       1.20933800
H        1.14827171       1.86575798       0.78085832
15
Frame=6 idx=011072 GeodesicLength=0.29122680018180674 rxn_smarts="[C:1]([c:2]1[c:3]([H:11])[c:4]([N:5]([H:12])[H:13])[c:6]([H:14])[n:7]1[H:15])([H:8])([H:9])[H:10]>>[C:1]([C:2]1=[C:3]([H:11])[C@@:4]([N:5]([H:12])[H:13])([H:14])[C:6][N:7]1[H:15])([H:8])([H:9])[H:10]"
C        2.33296040      -0.47101920      -0.05053638
C        0.89656328      -0.08437490       0.01091274
C       -0.22489098      -0.78967399      -0.24578910
C       -1.35105566       0.11497655      -0.03141711
N       -2.60033831      -0.04829862      -0.67406874
C       -0.83117639       1.41307845       0.33828589
N        0.50944916       1.18950017       0.40440606
H        2.79281307      -0.44996997       0.94055170
H        2.43490581      -1.47816966      -0.45114509
H        2.89690705       0.20787816      -0.69453211
H       -0.26832011      -1.79168141      -0.64459646
H       -3.20834638       0.73666741      -0.49160654
H       -3.06364788      -0.90892719      -0.42423805
H       -1.46495366       0.49721100       1.22618325
H        1.14913061       1.86280320       0.78758994
15
Frame=7 idx=011072 GeodesicLength=0.33977323812008664 rxn_smarts="[C:1]([c:2]1[c:3]([H:11])[c:4]([N:5]([H:12])[H:13])[c:6]([H:14])[n:7]1[H:15])([H:8])([H:9])[H:10]>>[C:1]([C:2]1=[C:3]([H:11])[C@@:4]([N:5]([H:12])[H:13])([H:14])[C:6][N:7]1[H:15])([H:8])([H:9])[H:10]"
C        2.33373016      -0.47063401      -0.05720749
C        0.89705565      -0.08710071       0.01449898
C       -0.22586968      -0.79411789      -0.23113179
C       -1.35290218       0.11081699      -0.02046140
N       -2.59383639      -0.04713189      -0.68315890
C       -0.82902086       1.40813528       0.34153953
N        0.51060479       1.18775662       0.40841341
H        2.80064058      -0.44919531       0.93060503
H        2.43447141      -1.47738692      -0.45915369
H        2.89229434       0.20920524      -0.70497667
H       -0.26901920      -1.79537897      -0.63216096
H       -3.20665013       0.73325045      -0.49717379
H       -3.05800238      -0.91117074      -0.44682377
H       -1.48345319       0.52330996       1.24247695
H        1.14995705       1.85964190       0.79471455
15
Frame=8 idx=011072 GeodesicLength=0.3883021316273102 rxn_smarts="[C:1]([c:2]1[c:3]([H:11])[c:4]([N:5]([H:12])[H:13])[c:6]([H:14])[n:7]1[H:15])([H:8])([H:9])[H:10]>>[C:1]([C:2]1=[C:3]([H:11])[C@@:4]([N:5]([H:12])[H:13])([H:14])[C:6][N:7]1[H:15])([H:8])([H:9])[H:10]"
C        2.33440111      -0.47032367      -0.06378885
C        0.89755208      -0.08969711       0.01756928
C       -0.22676409      -0.79832173      -0.21718267
C       -1.35479298       0.10658647      -0.00940263
N       -2.58718541      -0.04614586      -0.69182871
C       -0.82693526       1.40304231       0.34509226
N        0.51173532       1.18602008       0.41228371
H        2.80792398      -0.44873799       0.92090543
H        2.43394546      -1.47662103      -0.46720515
H        2.88793208       0.21049904      -0.71492266
H       -0.26966030      -1.79894092      -0.62015331
H       -3.20495897       0.72950724      -0.50252030
H       -3.05186385      -0.91351504      -0.46883021
H       -1.50209323       0.55022136       1.25821569
H        1.15076407       1.85642685       0.80176812
15
Frame=9 idx=011072 GeodesicLength=0.4368142120063999 rxn_smarts="[C:1]([c:2]1[c:3]([H:11])[c:4]([N:5]([H:12])[H:13])[c:6]([H:14])[n:7]1[H:15])([H:8])([H:9])[H:10]>>[C:1]([C:2]1=[C:3]([H:11])[C@@:4]([N:5]([H:12])[H:13])([H:14])[C:6][N:7]1[H:15])([H:8])([H:9])[H:10]"
C        2.33498988      -0.47008717      -0.07027006
C        0.89805094      -0.09217263       0.02013050
C       -0.22757189      -0.80230478      -0.20395163
C       -1.35672581       0.10227308       0.00175493
N       -2.58041301      -0.04534259      -0.70005825
C       -0.82492297       1.39779562       0.34894140
N        0.51283761       1.18428770       0.41601031
H        2.81468060      -0.44859701       0.91147493
H        2.43335394      -1.47587132      -0.47529007
H        2.88384221       0.21176725      -0.72436565
H       -0.27023010      -1.80236633      -0.60864807
H       -3.20328064       0.72544910      -0.50762567
H       -3.04527459      -0.91595740      -0.49021376
H       -1.52088158       0.57797556       1.27335544
H        1.15154540       1.85315093       0.80875565
15
Frame=10 idx=011072 GeodesicLength=0.48531083978952183 rxn_smarts="[C:1]([c:2]1[c:3]([H:11])[c:4]([N:5]([H:12])[H:13])[c:6]([H:14])[n:7]1[H:15])([H:8])([H:9])[H:10]>>[C:1]([C:2]1=[C:3]([H:11])[C@@:4]([N:5]([H:12])[H:13])([H:14])[C:6][N:7]1[H:15])([H:8])([H:9])[H:10]"
C        2.33550585      -0.46990591      -0.07669605
C        0.89854486      -0.09456051       0.02227135
C       -0.22829969      -0.80611292      -0.19133926
C       -1.35869558       0.09786454       0.01301525
N       -2.57350515      -0.04471945      -0.70788782
C       -0.82297788       1.39238281       0.35310020
N        0.51390796       1.18252456       0.41967692
H        2.82100798      -0.44874765       0.90223412
H        2.43270364      -1.47511031      -0.48346983
H        2.87996120       0.21305170      -0.73339767
H       -0.27073195      -1.80570702      -0.59753108
H       -3.20157405       0.72110856      -0.51258699
H       -3.03826476      -0.91847534      -0.51099951
H       -1.53987802       0.60663789       1.28783369
H        1.15229560       1.84976906       0.81577668
15
Frame=11 idx=011072 GeodesicLength=0.5337794069247107 rxn_smarts="[C:1]([c:2]1[c:3]([H:11])[c:4]([N:5]([H:12])[H:13])[c:6]([H:14])[n:7]1[H:15])([H:8])([H:9])[H:10]>>[C:1]([C:2]1=[C:3]([H:11])[C@@:4]([N:5]([H:12])[H:13])([H:14])[C:6][N:7]1[H:15])([H:8])([H:9])[H:10]"
C        2.33598419      -0.46985361      -0.08275204
C        0.89905998      -0.09671778       0.02352428
C       -0.22890137      -0.80959394      -0.17998404
C       -1.36069736       0.09334190       0.02431184
N       -2.56671168      -0.04431566      -0.71498092
C       -0.82114062       1.38678805       0.35755152
N        0.51495268       1.18087438       0.42279265
H        2.82646027      -0.44928844       0.89374687
H        2.43209648      -1.47444383      -0.49133219
H        2.87675555       0.21417324      -0.74146690
H       -0.27109154      -1.80864810      -0.58784278
H       -3.20006768       0.71639510      -0.51678786
H       -3.03096950      -0.92115993      -0.53074845
H       -1.55875280       0.63598764       1.30169041
H        1.15302341       1.84646096       0.82227763
15
Frame=12 idx=011072 GeodesicLength=0.5822506466127367 rxn_smarts="[C:1]([c:2]1[c:3]([H:11])[c:4]([N:5]([H:12])[H:13])[c:6]([H:14])[n:7]1[H:15])([H:8])([H:9])[H:10]>>[C:1]([C:2]1=[C:3]([H:11])[C@@:4]([N:5]([H:12])[H:13])([H:14])[C:6][N:7]1[H:15])([H:8])([H:9])[H:10]"
C        2.33645714      -0.46993071      -0.08842562
C        0.89959789      -0.09865282       0.02388841
C       -0.22937150      -0.81277764      -0.16990268
C       -1.36272556       0.08868604       0.03563966
N       -2.56007810      -0.04411897      -0.72132849
C       -0.81942238       1.38100574       0.36231078
N        0.51596227       1.17933840       0.42534670
H        2.83106343      -0.45021653       0.88604739
H        2.43158664      -1.47387940      -0.49886208
H        2.87426912       0.21513912      -0.74857419
H       -0.27129256      -1.81120680      -0.57965038
H       -3.19878694       0.71133639      -0.52019412
H       -3.02346123      -0.92400259      -0.54944435
H       -1.57751572       0.66604057       1.31491380
H        1.15371749       1.84323919       0.82823515
15
Frame=13 idx=011072 GeodesicLength=0.6305614995679829 rxn_smarts="[C:1]([c:2]1[c:3]([H:11])[c:4]([N:5]([H:12])[H:13])[c:6]([H:14])[n:7]1[H:15])([H:8])([H:9])[H:10]>>[C:1]([C:2]1=[C:3]([H:11])[C@@:4]([N:5]([H:12])[H:13])([H:14])[C:6][N:7]1[H:15])([H:8])([H:9])[H:10]"
C        2.33693071      -0.47012675      -0.09367400
C        0.90015046      -0.10034487       0.02333057
C       -0.22971761      -0.81564309      -0.16115939
C       -1.36476021       0.08387169       0.04698386
N       -2.55365721      -0.04412126      -0.72688902
C       -0.81780964       1.37499227       0.36739636
N        0.51693936       1.17790926       0.42729390
H        2.83479618      -0.45151699       0.87919576
H        2.43118651      -1.47339394      -0.50599348
H        2.87254352       0.21593316      -0.75465855
H       -0.27135649      -1.81332252      -0.57304203
H       -3.19774743       0.70590496      -0.52270700
H       -3.01581008      -0.92697739      -0.56707128
H       -1.59607989       0.69673239       1.32742854
H        1.15439180       1.84010305       0.83356575
15
Frame=14 idx=011072 GeodesicLength=0.6789255158370725 rxn_smarts="[C:1]([c:2]1[c:3]([H:11])[c:4]([N:5]([H:12])[H:13])[c:6]([H:14])[n:7]1[H:15])([H:8])([H:9])[H:10]>>[C:1]([C:2]1=[C:3]([H:11])[C@@:4]([N:5]([H:12])[H:13])([H:14])[C:6][N:7]1[H:15])([H:8])([H:9])[H:10]"
C        2.33740463      -0.47035977      -0.09884834
C        0.90070103      -0.10197544       0.02235202
C       -0.22997083      -0.81842672      -0.15304384
C       -1.36680801       0.07889458       0.05842517
N       -2.54720565      -0.04429961      -0.73201934
C       -0.81627658       1.36875481       0.37286986
N        0.51786656       1.17642316       0.42918102
H        2.83817521      -0.45307834       0.87259278
H        2.43085304      -1.47288029      -0.51319942
H        2.87111214       0.21678282      -0.76033583
H       -0.27131499      -1.81538454      -0.56700217
H       -3.19668280       0.70029030      -0.52504995
H       -3.00797040      -0.92999616      -0.58398219
H       -1.61489954       0.72840775       1.33915080
H        1.15501618       1.83684743       0.83890945
15
Frame=15 idx=011072 GeodesicLength=0.7273004086444549 rxn_smarts="[C:1]([c:2]1[c:3]([H:11])[c:4]([N:5]([H:12])[H:13])[c:6]([H:14])[n:7]1[H:15])([H:8])([H:9])[H:10]>>[C:1]([C:2]1=[C:3]([H:11])[C@@:4]([N:5]([H:12])[H:13])([H:14])[C:6][N:7]1[H:15])([H:8])([H:9])[H:10]"
C        2.33784025      -0.47054396      -0.10426809
C        0.90121974      -0.10369340       0.02142753
C       -0.23017850      -0.82130209      -0.14488600
C       -1.36887132       0.07375670       0.07004095
N       -2.54047713      -0.04463337      -0.73702465
C       -0.81477617       1.36227866       0.37879092
N        0.51874272       1.17471275       0.43152793
H        2.84165881      -0.45478865       0.86566146
H        2.43047423      -1.47220952      -0.52090027
H        2.86949557       0.21788209      -0.76616003
H       -0.27123358      -1.81768567      -0.56055043
H       -3.19533426       0.69459342      -0.52782299
H       -2.99983913      -0.93297746      -0.60055692
H       -1.63431094       0.76136348       1.34985185
H        1.15558970       1.83324702       0.84486875
15
Frame=16 idx=011072 GeodesicLength=0.7756609478006428 rxn_smarts="[C:1]([c:2]1[c:3]([H:11])[c:4]([N:5]([H:12])[H:13])[c:6]([H:14])[n:7]1[H:15])([H:8])([H:9])[H:10]>>[C:1]([C:2]1=[C:3]([H:11])[C@@:4]([N:5]([H:12])[H:13])([H:14])[C:6][N:7]1[H:15])([H:8])([H:9])[H:10]"
C        2.33827948      -0.47076114      -0.10957710
C        0.90173290      -0.10532862       0.02003067
C       -0.23029087      -0.82409549      -0.13739217
C       -1.37093411       0.06842765       0.08175102
N       -2.53376244      -0.04515375      -0.74153689
C       -0.81335454       1.35554057       0.38515549
N        0.51956904       1.17295041       0.43376713
H        2.84473597      -0.45679221       0.85904440
H        2.43017208      -1.47148520      -0.52866485
H        2.86823088       0.21904201      -0.77148829
H       -0.27103583      -1.81988369      -0.55480285
H       -3.19397675       0.68870108      -0.53030273
H       -2.99157069      -0.93602325      -0.61635904
H       -1.65391398       0.79534197       1.35958063
H        1.15611886       1.82951966       0.85079458
