12
Frame=0 idx=002633 GeodesicLength=0.0 rxn_smarts="[C:1]([C@@:2]1([H:10])[O:3][C:4]([H:11])([H:12])[C:5]1=[O:6])([H:7])([H:8])[H:9]>>[C:1]([H:7])([H:8])([H:9])[H:10].[C:2]1=[O+:3][C:4]([H:11])([H:12])[C:5]=1[O-:6]"
C       -1.61318165      -0.47139445      -0.26512807
C        0.12469811      -0.30598619       1.06093595
O        1.12979978      -0.97593163       0.41887938
C        1.70014291       0.19363310      -0.21873062
C        0.55347291       0.99717270       0.40986589
O        0.19929905       2.13240304       0.38766199
H       -2.00801830       0.53926582      -0.28877379
H       -1.02431773      -0.73138490      -1.13785215
H       -2.38759313      -1.21671365      -0.07884348
H       -1.05308695      -0.68619416       0.89269912
H        1.66686045       0.12020487      -1.30797893
H        2.71192456       0.40492544       0.12726467
12
Frame=1 idx=002633 GeodesicLength=0.06659422929046543 rxn_smarts="[C:1]([C@@:2]1([H:10])[O:3][C:4]([H:11])([H:12])[C:5]1=[O:6])([H:7])([H:8])[H:9]>>[C:1]([H:7])([H:8])([H:9])[H:10].[C:2]1=[O+:3][C:4]([H:11])([H:12])[C:5]=1[O-:6]"
C       -1.61572979      -0.47251527      -0.26115040
C        0.12327457      -0.30161824       1.05369678
O        1.12936543      -0.97651413       0.41910924
C        1.70763331       0.18906819      -0.21889200
C        0.56561411       1.00086100       0.40718634
O        0.21532174       2.13687971       0.37879205
H       -2.05202151       0.52145160      -0.27488322
H       -1.03470800      -0.68966989      -1.15132523
H       -2.35776948      -1.25492979      -0.09607179
H       -1.07913548      -0.66232703       0.92165352
H        1.67854906       0.11385971      -1.30810546
H        2.71960604       0.39545414       0.12999017
12
Frame=2 idx=002633 GeodesicLength=0.13313458479931067 rxn_smarts="[C:1]([C@@:2]1([H:10])[O:3][C:4]([H:11])([H:12])[C:5]1=[O:6])([H:7])([H:8])[H:9]>>[C:1]([H:7])([H:8])([H:9])[H:10].[C:2]1=[O+:3][C:4]([H:11])([H:12])[C:5]=1[O-:6]"
C       -1.61823933      -0.47337258      -0.25758985
C        0.12128547      -0.29756452       1.04602928
O        1.12895193      -0.97719131       0.41963018
C        1.71500602       0.18431410      -0.21892205
C        0.57802919       1.00439315       0.40516790
O        0.23152154       2.14116155       0.37038801
H       -2.09698214       0.50129105      -0.26192901
H       -1.04669340      -0.64707504      -1.16400994
H       -2.32480686      -1.29194104      -0.11247360
H       -1.10498695      -0.63697977       0.94917616
H        1.68966712       0.10730257      -1.30808175
H        2.72724742       0.38566184       0.13261467
12
Frame=3 idx=002633 GeodesicLength=0.19954987175447592 rxn_smarts="[C:1]([C@@:2]1([H:10])[O:3][C:4]([H:11])([H:12])[C:5]1=[O:6])([H:7])([H:8])[H:9]>>[C:1]([H:7])([H:8])([H:9])[H:10].[C:2]1=[O+:3][C:4]([H:11])([H:12])[C:5]=1[O-:6]"
C       -1.62077637      -0.47386805      -0.25442951
C        0.11875726      -0.29370960       1.03800505
O        1.12858856      -0.97789191       0.42058513
C        1.72221821       0.17938711      -0.21884889
C        0.59069573       1.00780220       0.40377516
O        0.24804035       2.14533126       0.36260176
H       -2.14281117       0.47869219      -0.24998875
H       -1.06027019      -0.60390656      -1.17567362
H       -2.28885026      -1.32736787      -0.12820973
H       -1.13051118      -0.61055688       0.97509594
H        1.70009226       0.10047932      -1.30793239
H        2.73482680       0.37560879       0.13501984
12
Frame=4 idx=002633 GeodesicLength=0.26585158837243955 rxn_smarts="[C:1]([C@@:2]1([H:10])[O:3][C:4]([H:11])([H:12])[C:5]1=[O:6])([H:7])([H:8])[H:9]>>[C:1]([H:7])([H:8])([H:9])[H:10].[C:2]1=[O+:3][C:4]([H:11])([H:12])[C:5]=1[O-:6]"
C       -1.62339213      -0.47394154      -0.25163015
C        0.11574618      -0.28993033       1.02970501
O        1.12830198      -0.97855295       0.42210079
C        1.72923487       0.17430474      -0.21871024
C        0.60358871       1.01112237       0.40294890
O        0.26501103       2.14945514       0.35556342
H       -2.18940089       0.45348504      -0.23910840
H       -1.07539093      -0.56044715      -1.18612172
H       -2.25010325      -1.36078418      -0.14353652
H       -1.15564486      -0.58340251       0.99940073
H        1.70972301       0.09333342      -1.30769665
H        2.74232627       0.36535795       0.13708484
12
Frame=5 idx=002633 GeodesicLength=0.3321327217707063 rxn_smarts="[C:1]([C@@:2]1([H:10])[O:3][C:4]([H:11])([H:12])[C:5]1=[O:6])([H:7])([H:8])[H:9]>>[C:1]([H:7])([H:8])([H:9])[H:10].[C:2]1=[O+:3][C:4]([H:11])([H:12])[C:5]=1[O-:6]"
C       -1.62609185      -0.47363619      -0.24923951
C        0.11235365      -0.28613683       1.02109209
O        1.12815077      -0.97908582       0.42417612
C        1.73612046       0.16912037      -0.21852276
C        0.61668019       1.01439121       0.40252847
O        0.28260197       2.15366491       0.34938476
H       -2.23673563       0.42532987      -0.22915946
H       -1.09182232      -0.51695806      -1.19540865
H       -2.20935134      -1.39174656      -0.15837492
H       -1.18038770      -0.55581578       1.02205392
H        1.71868696       0.08589257      -1.30736624
H        2.74979483       0.35498031       0.13883619
12
Frame=6 idx=002633 GeodesicLength=0.3982993134067736 rxn_smarts="[C:1]([C@@:2]1([H:10])[O:3][C:4]([H:11])([H:12])[C:5]1=[O:6])([H:7])([H:8])[H:9]>>[C:1]([H:7])([H:8])([H:9])[H:10].[C:2]1=[O+:3][C:4]([H:11])([H:12])[C:5]=1[O-:6]"
C       -1.62896224      -0.47287909      -0.24711890
C        0.10860933      -0.28219905       1.01227918
O        1.12807718      -0.97945421       0.42690114
C        1.74281095       0.16381956      -0.21832284
C        0.62996586       1.01764765       0.40248417
O        0.30092964       2.15801695       0.34412510
H       -2.28452717       0.39416097      -0.22023820
H       -1.10962826      -0.47353461      -1.20337284
H       -2.16657728      -1.42023084      -0.17310482
H       -1.20475177      -0.52790590       1.04320320
H        1.72685568       0.07809701      -1.30698821
H        2.75719808       0.34446156       0.14015302
12
Frame=7 idx=002633 GeodesicLength=0.46436478965312733 rxn_smarts="[C:1]([C@@:2]1([H:10])[O:3][C:4]([H:11])([H:12])[C:5]1=[O:6])([H:7])([H:8])[H:9]>>[C:1]([H:7])([H:8])([H:9])[H:10].[C:2]1=[O+:3][C:4]([H:11])([H:12])[C:5]=1[O-:6]"
C       -1.63205783      -0.47173631      -0.24521370
C        0.10453684      -0.27798330       1.00332780
O        1.12806859      -0.97960170       0.43039752
C        1.74926809       0.15838887      -0.21815400
C        0.64340002       1.02093417       0.40269303
O        0.32017237       2.16261002       0.33988876
H       -2.33255586       0.35967517      -0.21228187
H       -1.12881293      -0.43029619      -1.20987762
H       -2.12188375      -1.44589650      -0.18811255
H       -1.22880395      -0.49976041       1.06299158
H        1.73415782       0.06983731      -1.30659596
H        2.76451059       0.33382887       0.14093701
12
Frame=8 idx=002633 GeodesicLength=0.5303771990797238 rxn_smarts="[C:1]([C@@:2]1([H:10])[O:3][C:4]([H:11])([H:12])[C:5]1=[O:6])([H:7])([H:8])[H:9]>>[C:1]([H:7])([H:8])([H:9])[H:10].[C:2]1=[O+:3][C:4]([H:11])([H:12])[C:5]=1[O-:6]"
C       -1.63540587      -0.47028877      -0.24345526
C        0.10018768      -0.27337864       0.99428295
O        1.12809566      -0.97948400       0.43471306
C        1.75547601       0.15283462      -0.21804791
C        0.65696507       1.02429023       0.40305563
O        0.34046437       2.16745438       0.33675723
H       -2.38053319       0.32161800      -0.20532346
H       -1.14934098      -0.38726613      -1.21486754
H       -2.07559016      -1.46860435      -0.20362242
H       -1.25260940      -0.47135343       1.08159896
H        1.74057449       0.06107895      -1.30623486
H        2.77171633       0.32309912       0.14114361
12
Frame=9 idx=002633 GeodesicLength=0.5962563147001745 rxn_smarts="[C:1]([C@@:2]1([H:10])[O:3][C:4]([H:11])([H:12])[C:5]1=[O:6])([H:7])([H:8])[H:9]>>[C:1]([H:7])([H:8])([H:9])[H:10].[C:2]1=[O+:3][C:4]([H:11])([H:12])[C:5]=1[O-:6]"
C       -1.63899739      -0.46857240      -0.24191140
C        0.09563129      -0.26836888       0.98500846
O        1.12813547      -0.97901520       0.43968899
C        1.76152481       0.14719524      -0.21797659
C        0.67066474       1.02772416       0.40342099
O        0.36191487       2.17268634       0.33472922
H       -2.42829390       0.27969774      -0.19910227
H       -1.17105412      -0.34445862      -1.21860358
H       -2.02849724      -1.48836305      -0.21930274
H       -1.27623707      -0.44269169       1.09893083
H        1.74633159       0.05192467      -1.30583144
H        2.77887695       0.31224169       0.14094955
12
Frame=10 idx=002633 GeodesicLength=0.6621257366063449 rxn_smarts="[C:1]([C@@:2]1([H:10])[O:3][C:4]([H:11])([H:12])[C:5]1=[O:6])([H:7])([H:8])[H:9]>>[C:1]([H:7])([H:8])([H:9])[H:10].[C:2]1=[O+:3][C:4]([H:11])([H:12])[C:5]=1[O-:6]"
C       -1.64290955      -0.46668685      -0.24041338
C        0.09083137      -0.26279595       0.97566824
O        1.12812799      -0.97819113       0.44554245
C        1.76729921       0.14141331      -0.21800010
C        0.68444883       1.03129564       0.40373163
O        0.38469503       2.17830214       0.33388905
H       -2.47531375       0.23369872      -0.19377043
H       -1.19421995      -0.30182861      -1.22073186
H       -1.98024131      -1.50505587      -0.23589552
H       -1.29982607      -0.41358065       1.11529508
H        1.75120525       0.04218216      -1.30546571
H        2.78590295       0.30124709       0.14015053
12
Frame=11 idx=002633 GeodesicLength=0.727975914553216 rxn_smarts="[C:1]([C@@:2]1([H:10])[O:3][C:4]([H:11])([H:12])[C:5]1=[O:6])([H:7])([H:8])[H:9]>>[C:1]([H:7])([H:8])([H:9])[H:10].[C:2]1=[O+:3][C:4]([H:11])([H:12])[C:5]=1[O-:6]"
C       -1.64718910      -0.46476349      -0.23892071
C        0.08579916      -0.25660457       0.96622801
O        1.12800688      -0.97694442       0.45225050
C        1.77278016       0.13548607      -0.21812023
C        0.69828477       1.03501606       0.40386751
O        0.40892691       2.18435549       0.33430284
H       -2.52115608       0.18351493      -0.18926690
H       -1.21888474      -0.25933341      -1.22129277
H       -1.93107979      -1.51878167      -0.25344576
H       -1.32346658      -0.38386833       1.13073078
H        1.75520734       0.03184581      -1.30511814
H        2.79277108       0.29007752       0.13878486
12
Frame=12 idx=002633 GeodesicLength=0.7938538021498794 rxn_smarts="[C:1]([C@@:2]1([H:10])[O:3][C:4]([H:11])([H:12])[C:5]1=[O:6])([H:7])([H:8])[H:9]>>[C:1]([H:7])([H:8])([H:9])[H:10].[C:2]1=[O+:3][C:4]([H:11])([H:12])[C:5]=1[O-:6]"
C       -1.65183420      -0.46293073      -0.23740385
C        0.08052948      -0.24971440       0.95671032
O        1.12773604      -0.97523623       0.45988592
C        1.77793268       0.12939532      -0.21834421
C        0.71213724       1.03891627       0.40373410
O        0.43473566       2.19084546       0.33598109
H       -2.56533340       0.12892748      -0.18552792
H       -1.24518138      -0.21687654      -1.22017073
H       -1.88118152      -1.52951322      -0.27220695
H       -1.34726807      -0.35337550       1.14528985
H        1.75829451       0.02084680      -1.30478602
H        2.79943296       0.27871530       0.13683840
12
Frame=13 idx=002633 GeodesicLength=0.8597153970622812 rxn_smarts="[C:1]([C@@:2]1([H:10])[O:3][C:4]([H:11])([H:12])[C:5]1=[O:6])([H:7])([H:8])[H:9]>>[C:1]([H:7])([H:8])([H:9])[H:10].[C:2]1=[O+:3][C:4]([H:11])([H:12])[C:5]=1[O-:6]"
C       -1.65682351      -0.46127053      -0.23590863
C        0.07504248      -0.24209680       0.94703474
O        1.12721482      -0.97300038       0.46836489
C        1.78276586       0.12312788      -0.21865150
C        0.72601989       1.04299061       0.40324824
O        0.46210109       2.19778600       0.33893481
H       -2.60743768       0.06984066      -0.18236574
H       -1.27313481      -0.17435330      -1.21746311
H       -1.83087443      -1.53734812      -0.29203464
H       -1.37131714      -0.32197074       1.15886225
H        1.76054158       0.00918884      -1.30444498
H        2.80590186       0.26710589       0.13442365
12
Frame=14 idx=002633 GeodesicLength=0.9256991884681942 rxn_smarts="[C:1]([C@@:2]1([H:10])[O:3][C:4]([H:11])([H:12])[C:5]1=[O:6])([H:7])([H:8])[H:9]>>[C:1]([H:7])([H:8])([H:9])[H:10].[C:2]1=[O+:3][C:4]([H:11])([H:12])[C:5]=1[O-:6]"
C       -1.66219330      -0.46001845      -0.23431308
C        0.06926979      -0.23366897       0.93730606
O        1.12643310      -0.97021036       0.47790449
C        1.78718379       0.11662736      -0.21905872
C        0.73982769       1.04727192       0.40230883
O        0.49116620       2.20521373       0.34314958
H       -2.64671755       0.00626108      -0.17978034
H       -1.30315271      -0.13175824      -1.21280639
H       -1.77989661      -1.54217382      -0.31360132
H       -1.39578513      -0.28945642       1.17154540
H        1.76178090      -0.00332528      -1.30407549
H        2.81208381       0.25523744       0.13142099
12
Frame=15 idx=002633 GeodesicLength=0.9918080235353292 rxn_smarts="[C:1]([C@@:2]1([H:10])[O:3][C:4]([H:11])([H:12])[C:5]1=[O:6])([H:7])([H:8])[H:9]>>[C:1]([H:7])([H:8])([H:9])[H:10].[C:2]1=[O+:3][C:4]([H:11])([H:12])[C:5]=1[O-:6]"
C       -1.66788611      -0.45934203      -0.23263433
C        0.06320165      -0.22439242       0.92752719
O        1.12534566      -0.96681995       0.48857300
C        1.79114790       0.10985931      -0.21953640
C        0.75352261       1.05176237       0.40083576
O        0.52192196       2.21307292       0.34852995
H       -2.68261699      -0.06171994      -0.17757266
H       -1.33546404      -0.08898629      -1.20604400
H       -1.72830691      -1.54403784      -0.33714954
H       -1.42077716      -0.25569577       1.18322865
H        1.76198277      -0.01678260      -1.30363458
H        2.81792865       0.24308223       0.12787695
12
Frame=16 idx=002633 GeodesicLength=1.0581224685634636 rxn_smarts="[C:1]([C@@:2]1([H:10])[O:3][C:4]([H:11])([H:12])[C:5]1=[O:6])([H:7])([H:8])[H:9]>>[C:1]([H:7])([H:8])([H:9])[H:10].[C:2]1=[O+:3][C:4]([H:11])([H:12])[C:5]=1[O-:6]"
C       -1.67383539      -0.45941837      -0.23087448
C        0.05682625      -0.21424819       0.91772616
O        1.12390381      -0.96280101       0.50044503
C        1.79462148       0.10277954      -0.22006709
C        0.76707332       1.05646234       0.39877541
O        0.55429452       2.22131529       0.35498708
H       -2.71452734      -0.13396653      -0.17563405
H       -1.37032535      -0.04600325      -1.19695855
H       -1.67611845      -1.54284765      -0.36293100
H       -1.44642662      -0.22059235       1.19382297
H        1.76110865      -0.03129575      -1.30310188
H        2.82340512       0.23061592       0.12381038
