13
Frame=0 idx=008761 GeodesicLength=0.0 rxn_smarts="[O:1]=[C:2]([C@@:3]1([H:9])[O:4][C@@:5]2([H:10])[C:6]([H:11])([H:12])[C@@:7]12[H:13])[H:8]>>[O-:1][C:2](=[C:3]1[O+:4]=[C:5]([H:10])[C:6]([H:11])([H:12])[C:7]1([H:9])[H:13])[H:8]"
O        2.24299875       1.33813924      -1.42914221
C        2.06311632       0.46979085      -0.60801929
C        0.74409609      -0.01474896      -0.24235925
O        0.63936878      -0.77186713       0.86278190
C       -0.61995377      -0.62224969       1.31943026
C       -1.57272588      -0.31182939       0.23363456
C       -0.57374682       0.61735045      -0.42275451
H        2.89348279      -0.03214069      -0.07786098
H        0.07950546      -0.28274610      -1.27119037
H       -0.79903894      -1.00951687       2.31103680
H       -1.92130028      -1.17020509      -0.37814547
H       -2.45533574       0.21282696       0.59723707
H       -0.72046676       1.57719637      -0.89464854
13
Frame=1 idx=008761 GeodesicLength=0.06446973913694393 rxn_smarts="[O:1]=[C:2]([C@@:3]1([H:9])[O:4][C@@:5]2([H:10])[C:6]([H:11])([H:12])[C@@:7]12[H:13])[H:8]>>[O-:1][C:2](=[C:3]1[O+:4]=[C:5]([H:10])[C:6]([H:11])([H:12])[C:7]1([H:9])[H:13])[H:8]"
O        2.24807078       1.32397764      -1.44907122
C        2.06721502       0.48209614      -0.60073658
C        0.75279048      -0.02605705      -0.25047926
O        0.65036393      -0.77430420       0.86264204
C       -0.61457170      -0.64331577       1.30235070
C       -1.58409475      -0.29219867       0.24815145
C       -0.56872542       0.59586733      -0.43194949
H        2.89711364       0.03475025      -0.02252290
H        0.08520863      -0.30138432      -1.28843793
H       -0.79766634      -1.06502593       2.27980215
H       -1.97295765      -1.13764097      -0.35523924
H       -2.43827881       0.26150472       0.63524039
H       -0.72446779       1.54173083      -0.92975011
13
Frame=2 idx=008761 GeodesicLength=0.1286965874583782 rxn_smarts="[O:1]=[C:2]([C@@:3]1([H:9])[O:4][C@@:5]2([H:10])[C:6]([H:11])([H:12])[C@@:7]12[H:13])[H:8]>>[O-:1][C:2](=[C:3]1[O+:4]=[C:5]([H:10])[C:6]([H:11])([H:12])[C:7]1([H:9])[H:13])[H:8]"
O        2.25398399       1.30940267      -1.46783732
C        2.07068062       0.49575113      -0.59262477
C        0.76192256      -0.03725751      -0.25779298
O        0.66174283      -0.77406196       0.86493190
C       -0.61006630      -0.66647084       1.28379783
C       -1.59453844      -0.27164780       0.26336591
C       -0.56396187       0.57242406      -0.44236161
H        2.89661308       0.10343190       0.03006589
H        0.09247576      -0.32226256      -1.30517220
H       -0.79796821      -1.12279756       2.24538810
H       -2.02522070      -1.10191636      -0.33056078
H       -2.41694777       0.31176530       0.67431067
H       -0.72871557       1.50363952      -0.96551064
13
Frame=3 idx=008761 GeodesicLength=0.192724518209617 rxn_smarts="[O:1]=[C:2]([C@@:3]1([H:9])[O:4][C@@:5]2([H:10])[C:6]([H:11])([H:12])[C@@:7]12[H:13])[H:8]>>[O-:1][C:2](=[C:3]1[O+:4]=[C:5]([H:10])[C:6]([H:11])([H:12])[C:7]1([H:9])[H:13])[H:8]"
O        2.26051867       1.29473602      -1.48508566
C        2.07329074       0.51109012      -0.58343442
C        0.77145856      -0.04827774      -0.26408925
O        0.67325668      -0.77050895       0.87014578
C       -0.60668714      -0.69246878       1.26309945
C       -1.60403819      -0.25002253       0.27924476
C       -0.55959260       0.54665309      -0.45423004
H        2.89244545       0.17364503       0.07957005
H        0.10165248      -0.34574982      -1.32126454
H       -0.79987425      -1.18284773       2.20743839
H       -2.07851220      -1.06234372      -0.30397590
H       -2.39057922       0.36365842       0.71497845
H       -0.73333899       1.46243661      -1.00239706
13
Frame=4 idx=008761 GeodesicLength=0.256389995831382 rxn_smarts="[O:1]=[C:2]([C@@:3]1([H:9])[O:4][C@@:5]2([H:10])[C:6]([H:11])([H:12])[C@@:7]12[H:13])[H:8]>>[O-:1][C:2](=[C:3]1[O+:4]=[C:5]([H:10])[C:6]([H:11])([H:12])[C:7]1([H:9])[H:13])[H:8]"
O        2.26734700       1.28069196      -1.50058532
C        2.07471063       0.52870621      -0.57321115
C        0.78139880      -0.05870464      -0.26883311
O        0.68457312      -0.76155572       0.87968201
C       -0.60462466      -0.72137950       1.24005589
C       -1.61240243      -0.22713415       0.29600664
C       -0.55580260       0.51811286      -0.46780776
H        2.88500500       0.24393211       0.12493051
H        0.11330713      -0.37252057      -1.33613531
H       -0.80379104      -1.24675101       2.16482126
H       -2.13275781      -1.01826200      -0.27504553
H       -2.35842273       0.41740343       0.75709873
H       -0.73854041       1.41746102      -1.04097684
13
Frame=5 idx=008761 GeodesicLength=0.31959643664674536 rxn_smarts="[O:1]=[C:2]([C@@:3]1([H:9])[O:4][C@@:5]2([H:10])[C:6]([H:11])([H:12])[C@@:7]12[H:13])[H:8]>>[O-:1][C:2](=[C:3]1[O+:4]=[C:5]([H:10])[C:6]([H:11])([H:12])[C:7]1([H:9])[H:13])[H:8]"
O        2.27384052       1.26869204      -1.51296878
C        2.07448379       0.54893540      -0.56150996
C        0.79151011      -0.06850993      -0.27197109
O        0.69467029      -0.74701915       0.89337901
C       -0.60396063      -0.75378929       1.21363405
C       -1.61938202      -0.20281190       0.31366980
C       -0.55288924       0.48605211      -0.48369670
H        2.87490958       0.31315387       0.16606342
H        0.12800734      -0.40298112      -1.34991774
H       -0.80912919      -1.31352834       2.11727884
H       -2.18828766      -0.96883580      -0.24307419
H       -2.31910110       0.47295399       0.80121471
H       -0.74467179       1.36768812      -1.08210137
13
Frame=6 idx=008761 GeodesicLength=0.38287916880625994 rxn_smarts="[O:1]=[C:2]([C@@:3]1([H:9])[O:4][C@@:5]2([H:10])[C:6]([H:11])([H:12])[C@@:7]12[H:13])[H:8]>>[O-:1][C:2](=[C:3]1[O+:4]=[C:5]([H:10])[C:6]([H:11])([H:12])[C:7]1([H:9])[H:13])[H:8]"
O        2.28034907       1.25732892      -1.52351751
C        2.07221755       0.57204738      -0.54838977
C        0.80167048      -0.07797189      -0.27364337
O        0.70241203      -0.72704669       0.91098898
C       -0.60452463      -0.78950397       1.18350430
C       -1.62444887      -0.17607425       0.33311568
C       -0.55106552       0.44954051      -0.50263309
H        2.86105937       0.38487279       0.20601429
H        0.14610319      -0.43804286      -1.36269009
H       -0.81578339      -1.38669431       2.06203979
H       -2.24574869      -0.91198150      -0.20594036
H       -2.27030626       0.53169838       0.84817103
H       -0.75193434       1.31182748      -1.12701987
13
Frame=7 idx=008761 GeodesicLength=0.44634169376245625 rxn_smarts="[O:1]=[C:2]([C@@:3]1([H:9])[O:4][C@@:5]2([H:10])[C:6]([H:11])([H:12])[C@@:7]12[H:13])[H:8]>>[O-:1][C:2](=[C:3]1[O+:4]=[C:5]([H:10])[C:6]([H:11])([H:12])[C:7]1([H:9])[H:13])[H:8]"
O        2.28652813       1.24589178      -1.53166101
C        2.06660649       0.59757263      -0.53390223
C        0.81136126      -0.08792892      -0.27454592
O        0.70623388      -0.70551050       0.92945136
C       -0.60572173      -0.82673829       1.15010312
C       -1.62619628      -0.14678858       0.35469872
C       -0.55041488       0.40775469      -0.52448577
H        2.84008826       0.46118842       0.24712053
H        0.16762886      -0.47718570      -1.37533430
H       -0.82298012      -1.46437732       1.99854326
H       -2.30301328      -0.84722927      -0.16217523
H       -2.20991180       0.59367364       0.89647728
H       -0.76020879       1.24967741      -1.17428980
13
Frame=8 idx=008761 GeodesicLength=0.5106779134134604 rxn_smarts="[O:1]=[C:2]([C@@:3]1([H:9])[O:4][C@@:5]2([H:10])[C:6]([H:11])([H:12])[C@@:7]12[H:13])[H:8]>>[O-:1][C:2](=[C:3]1[O+:4]=[C:5]([H:10])[C:6]([H:11])([H:12])[C:7]1([H:9])[H:13])[H:8]"
O        2.29164750       1.23941903      -1.53333631
C        2.05708432       0.62613321      -0.51680076
C        0.81991035      -0.09812391      -0.27568554
O        0.70593020      -0.68888918       0.94426310
C       -0.60752576      -0.86244809       1.11512550
C       -1.62402555      -0.11591317       0.37727501
C       -0.55147216       0.36062034      -0.54919047
H        2.81364142       0.53538415       0.28733943
H        0.19220742      -0.51809481      -1.38943966
H       -0.83058762      -1.53825956       1.93202866
H       -2.35695153      -0.77736097      -0.11135197
H       -2.13915595       0.65612856       0.94316758
H       -0.77070262       1.18140438      -1.22339456
13
Frame=9 idx=008761 GeodesicLength=0.5763996861416425 rxn_smarts="[O:1]=[C:2]([C@@:3]1([H:9])[O:4][C@@:5]2([H:10])[C:6]([H:11])([H:12])[C@@:7]12[H:13])[H:8]>>[O-:1][C:2](=[C:3]1[O+:4]=[C:5]([H:10])[C:6]([H:11])([H:12])[C:7]1([H:9])[H:13])[H:8]"
O        2.29524416       1.23770295      -1.52964366
C        2.04383506       0.65517926      -0.49890676
C        0.82736821      -0.10984534      -0.27827123
O        0.70330518      -0.68265128       0.95298085
C       -0.60982126      -0.89484565       1.08106018
C       -1.61729859      -0.08434014       0.40004848
C       -0.55371761       0.30934735      -0.57479319
H        2.77957124       0.60943843       0.32835311
H        0.21803372      -0.55844592      -1.40635974
H       -0.83983890      -1.60464047       1.86661326
H       -2.40416990      -0.70446742      -0.05524174
H       -2.05998817       0.71750020       0.98470522
H       -0.78252314       1.11006803      -1.27054478
13
Frame=10 idx=008761 GeodesicLength=0.6433527095478394 rxn_smarts="[O:1]=[C:2]([C@@:3]1([H:9])[O:4][C@@:5]2([H:10])[C:6]([H:11])([H:12])[C@@:7]12[H:13])[H:8]>>[O-:1][C:2](=[C:3]1[O+:4]=[C:5]([H:10])[C:6]([H:11])([H:12])[C:7]1([H:9])[H:13])[H:8]"
O        2.29661882       1.24071337      -1.52139842
C        2.02725008       0.68366139      -0.48092200
C        0.83371822      -0.12259404      -0.28200721
O        0.69986928      -0.68562375       0.95658543
C       -0.61271529      -0.92298962       1.04947624
C       -1.60624611      -0.05311113       0.42170293
C       -0.55678543       0.25590433      -0.59947063
H        2.73961229       0.68006236       0.36809207
H        0.24371661      -0.59647424      -1.42549383
H       -0.85149690      -1.66183835       1.80493910
H       -2.44216549      -0.63131722       0.00289794
H       -1.97607928       0.77530731       1.01906594
H       -0.79529681       1.03829959      -1.31346757
13
Frame=11 idx=008761 GeodesicLength=0.7116253752108642 rxn_smarts="[O:1]=[C:2]([C@@:3]1([H:9])[O:4][C@@:5]2([H:10])[C:6]([H:11])([H:12])[C@@:7]12[H:13])[H:8]>>[O-:1][C:2](=[C:3]1[O+:4]=[C:5]([H:10])[C:6]([H:11])([H:12])[C:7]1([H:9])[H:13])[H:8]"
O        2.29609500       1.24590181      -1.51069074
C        2.00867439       0.70885996      -0.46436622
C        0.83927964      -0.13698661      -0.28688538
O        0.69674463      -0.69647194       0.95627719
C       -0.61595702      -0.94720934       1.02105513
C       -1.59099457      -0.02260188       0.44192368
C       -0.56001771       0.20206764      -0.62173048
H        2.69192298       0.75061839       0.40743954
H        0.26745948      -0.63160621      -1.44644290
H       -0.86574684      -1.71122631       1.74707542
H       -2.47021368      -0.55866919       0.06050582
H       -1.88924362       0.82878409       1.04626505
H       -0.80800267       0.96853959      -1.35042610
13
Frame=12 idx=008761 GeodesicLength=0.7810839738585543 rxn_smarts="[O:1]=[C:2]([C@@:3]1([H:9])[O:4][C@@:5]2([H:10])[C:6]([H:11])([H:12])[C@@:7]12[H:13])[H:8]>>[O-:1][C:2](=[C:3]1[O+:4]=[C:5]([H:10])[C:6]([H:11])([H:12])[C:7]1([H:9])[H:13])[H:8]"
O        2.29362497       1.25344854      -1.49806298
C        1.98881276       0.73127463      -0.44895192
C        0.84428251      -0.15208912      -0.29223137
O        0.69421199      -0.71190107       0.95392889
C       -0.61943988      -0.96780858       0.99593782
C       -1.57258895       0.00653080       0.46011855
C       -0.56330042       0.14924732      -0.64108376
H        2.63966455       0.81729149       0.44434945
H        0.28895853      -0.66329406      -1.46839018
H       -0.88213506      -1.75309110       1.69385614
H       -2.48888873      -0.48836923       0.11558556
H       -1.80249005       0.87690666       1.06661862
H       -0.82071220       0.90185374      -1.38167482
13
Frame=13 idx=008761 GeodesicLength=0.8515110980596734 rxn_smarts="[O:1]=[C:2]([C@@:3]1([H:9])[O:4][C@@:5]2([H:10])[C:6]([H:11])([H:12])[C@@:7]12[H:13])[H:8]>>[O-:1][C:2](=[C:3]1[O+:4]=[C:5]([H:10])[C:6]([H:11])([H:12])[C:7]1([H:9])[H:13])[H:8]"
O        2.28894423       1.26351088      -1.48383376
C        1.96789802       0.75184910      -0.43420558
C        0.84879053      -0.16693652      -0.29743415
O        0.69211126      -0.72902660       0.95095614
C       -0.62301815      -0.98509462       0.97385387
C       -1.55209772       0.03383133       0.47589814
C       -0.56658288       0.09830726      -0.65747085
H        2.58649835       0.87664770       0.47745270
H        0.30825872      -0.69134617      -1.49059330
H       -0.89985326      -1.78784178       1.64555717
H       -2.49938644      -0.42190677       0.16691692
H       -1.71810098       0.91937611       1.08068878
H       -0.83346168       0.83863007      -1.40778608
13
Frame=14 idx=008761 GeodesicLength=0.9229650063866551 rxn_smarts="[O:1]=[C:2]([C@@:3]1([H:9])[O:4][C@@:5]2([H:10])[C:6]([H:11])([H:12])[C@@:7]12[H:13])[H:8]>>[O-:1][C:2](=[C:3]1[O+:4]=[C:5]([H:10])[C:6]([H:11])([H:12])[C:7]1([H:9])[H:13])[H:8]"
O        2.28389503       1.27258160      -1.46976238
C        1.94776866       0.76807265      -0.42126301
C        0.85323083      -0.18257216      -0.30279207
O        0.69072959      -0.74787994       0.94756414
C       -0.62638447      -1.00004061       0.95439165
C       -1.52950417       0.05962945       0.49008124
C       -0.56943516       0.04985911      -0.67070896
H        2.52757956       0.93592188       0.50895625
H        0.32437277      -0.71636295      -1.51316445
H       -0.91866338      -1.81806611       1.60019226
H       -2.50276361      -0.35814910       0.21436319
H       -1.63541044       0.95692904       1.09047177
H       -0.84541522       0.78007714      -1.42832962
13
Frame=15 idx=008761 GeodesicLength=0.9949952787045822 rxn_smarts="[O:1]=[C:2]([C@@:3]1([H:9])[O:4][C@@:5]2([H:10])[C:6]([H:11])([H:12])[C@@:7]12[H:13])[H:8]>>[O-:1][C:2](=[C:3]1[O+:4]=[C:5]([H:10])[C:6]([H:11])([H:12])[C:7]1([H:9])[H:13])[H:8]"
O        2.27800410       1.28226441      -1.45534447
C        1.92757718       0.78301923      -0.40885851
C        0.85741800      -0.19723396      -0.30752158
O        0.68953100      -0.76571950       0.94490684
C       -0.62961962      -1.01269261       0.93714609
C       -1.50624557       0.08343858       0.50217122
C       -0.57216431       0.00412797      -0.68131628
H        2.46975681       0.98829115       0.53660815
H        0.33829183      -0.73810724      -1.53533289
H       -0.93767606      -1.84329353       1.55864114
H       -2.50072851      -0.29890316       0.25749849
H       -1.55685781       0.98939992       1.09620108
H       -0.85728703       0.72540875      -1.44479928
13
Frame=16 idx=008761 GeodesicLength=1.067945642468123 rxn_smarts="[O:1]=[C:2]([C@@:3]1([H:9])[O:4][C@@:5]2([H:10])[C:6]([H:11])([H:12])[C@@:7]12[H:13])[H:8]>>[O-:1][C:2](=[C:3]1[O+:4]=[C:5]([H:10])[C:6]([H:11])([H:12])[C:7]1([H:9])[H:13])[H:8]"
O        2.27234618       1.29065586      -1.44122435
C        1.90880978       0.79443924      -0.39764935
C        0.86173012      -0.21225275      -0.31211878
O        0.68880721      -0.78387864       0.94249237
C       -0.63254933      -1.02387270       0.92168843
C       -1.48175495       0.10585051       0.51302640
C       -0.57443938      -0.03910768      -0.68950960
H        2.40724910       1.04041213       0.56223263
H        0.34953787      -0.75742610      -1.55757396
H       -0.95708801      -1.86531044       1.51927173
H       -2.49390291      -0.24233235       0.29712448
H       -1.48041415       1.01787934       1.09938303
H       -0.86833153       0.67494357      -1.45714304
