17
Frame=0 idx=007743 GeodesicLength=0.0 rxn_smarts="[C:1]([C:2]1=[C:3]([H:11])[C:4]([H:12])([H:13])[C:5]([H:14])([H:15])[C@:6]1([O:7][H:17])[H:16])([H:8])([H:9])[H:10]>>[C:1]([H:8])[H:9].[C:2]1([H:10])=[C:3]([H:11])[C:4]([H:12])([H:13])[C:5]([H:14])([H:15])[C@:6]1([O:7][H:17])[H:16]"
C        3.12145068       0.87245102       0.13418766
C        0.63573401      -0.68945562      -0.24548670
C       -0.08339469      -1.36915168       0.63921861
C       -1.52739461      -0.94431772       0.65365039
C       -1.62480182       0.00478613      -0.55593807
C       -0.17756729       0.38735654      -0.91351666
O        0.21394092       1.67550889      -0.43936809
H        2.82797774       0.91949650       1.20356320
H        2.79165082       1.85520884      -0.25146058
H        1.70065514      -0.81057426      -0.43777754
H        0.30621999      -2.14001630       1.29354377
H       -1.77816869      -0.45604862       1.60129762
H       -2.20537664      -1.79556377       0.56237863
H       -2.07364481      -0.52154968      -1.39986011
H       -2.22832845       0.89380773      -0.37049308
H       -0.02050482       0.44146562      -1.99119655
H        0.12155256       1.67659634       0.51725747
17
Frame=1 idx=007743 GeodesicLength=0.1259479217239186 rxn_smarts="[C:1]([C:2]1=[C:3]([H:11])[C:4]([H:12])([H:13])[C:5]([H:14])([H:15])[C@:6]1([O:7][H:17])[H:16])([H:8])([H:9])[H:10]>>[C:1]([H:8])[H:9].[C:2]1([H:10])=[C:3]([H:11])[C:4]([H:12])([H:13])[C:5]([H:14])([H:15])[C@:6]1([O:7][H:17])[H:16]"
C        3.05533148       0.84373763       0.11605998
C        0.64523698      -0.68072620      -0.22413594
C       -0.08477220      -1.37263331       0.64240662
C       -1.52929579      -0.94981374       0.64650420
C       -1.61575136       0.00993448      -0.55545382
C       -0.16588545       0.39651018      -0.89489585
O        0.22229903       1.68129839      -0.40558442
H        2.79995696       0.97324975       1.18736476
H        2.79762115       1.82246448      -0.32831041
H        1.72350941      -0.83065693      -0.42098006
H        0.30054963      -2.14465313       1.29800297
H       -1.79081567      -0.47032754       1.59575635
H       -2.20494064      -1.80125434       0.54047042
H       -2.05503888      -0.50936527      -1.40873430
H       -2.22146775       0.89714662      -0.36847611
H        0.00410799       0.46016262      -1.97007164
H        0.11935509       1.67492629       0.55007726
17
Frame=2 idx=007743 GeodesicLength=0.2522871856772987 rxn_smarts="[C:1]([C:2]1=[C:3]([H:11])[C:4]([H:12])([H:13])[C:5]([H:14])([H:15])[C@:6]1([O:7][H:17])[H:16])([H:8])([H:9])[H:10]>>[C:1]([H:8])[H:9].[C:2]1([H:10])=[C:3]([H:11])[C:4]([H:12])([H:13])[C:5]([H:14])([H:15])[C@:6]1([O:7][H:17])[H:16]"
C        2.99117746       0.81965568       0.10107434
C        0.65424017      -0.67233459      -0.20422614
C       -0.08571636      -1.37558213       0.64504984
C       -1.53068971      -0.95479071       0.63951946
C       -1.60712266       0.01508317      -0.55492887
C       -0.15503488       0.40531134      -0.87739494
O        0.23025392       1.68676950      -0.37373904
H        2.77411581       1.02344934       1.16845219
H        2.80061701       1.78579863      -0.39984832
H        1.74678667      -0.84899817      -0.40299533
H        0.29557865      -2.14877922       1.30169871
H       -1.80233038      -0.48375241       1.59018419
H       -2.20389659      -1.80636497       0.51952145
H       -2.03744334      -0.49739833      -1.41689627
H       -2.21483139       0.90058309      -0.36633653
H        0.02711800       0.47803230      -1.94998605
H        0.11717761       1.67331747       0.58085130
17
Frame=3 idx=007743 GeodesicLength=0.3788689388030386 rxn_smarts="[C:1]([C:2]1=[C:3]([H:11])[C:4]([H:12])([H:13])[C:5]([H:14])([H:15])[C@:6]1([O:7][H:17])[H:16])([H:8])([H:9])[H:10]>>[C:1]([H:8])[H:9].[C:2]1([H:10])=[C:3]([H:11])[C:4]([H:12])([H:13])[C:5]([H:14])([H:15])[C@:6]1([O:7][H:17])[H:16]"
C        2.92903011       0.79948446       0.08868778
C        0.66276582      -0.66422285      -0.18576489
C       -0.08622645      -1.37800203       0.64711261
C       -1.53160722      -0.95929977       0.63269525
C       -1.59895716       0.02021968      -0.55432996
C       -0.14501969       0.41378041      -0.86099571
O        0.23780807       1.69193770      -0.34380993
H        2.74995489       1.07036863       1.14749487
H        2.80109317       1.74565768      -0.46635680
H        1.77066678      -0.86537581      -0.38364662
H        0.29132228      -2.15249320       1.30446938
H       -1.81274111      -0.49643341       1.58461464
H       -2.20230155      -1.81094670       0.49949463
H       -2.02093464      -0.48561994      -1.42434384
H       -2.20846848       0.90407313      -0.36399078
H        0.04852205       0.49510921      -1.93094429
H        0.11509311       1.67176281       0.60961366
17
Frame=4 idx=007743 GeodesicLength=0.5056707499111791 rxn_smarts="[C:1]([C:2]1=[C:3]([H:11])[C:4]([H:12])([H:13])[C:5]([H:14])([H:15])[C@:6]1([O:7][H:17])[H:16])([H:8])([H:9])[H:10]>>[C:1]([H:8])[H:9].[C:2]1([H:10])=[C:3]([H:11])[C:4]([H:12])([H:13])[C:5]([H:14])([H:15])[C@:6]1([O:7][H:17])[H:16]"
C        2.86888041       0.78267064       0.07835697
C        0.67082220      -0.65633281      -0.16876494
C       -0.08630593      -1.37993701       0.64861727
C       -1.53208059      -0.96340209       0.62604523
C       -1.59128932       0.02534612      -0.55367093
C       -0.13584964       0.42198530      -0.84572028
O        0.24492463       1.69690832      -0.31577212
H        2.72722674       1.11399533       1.12483748
H        2.79935740       1.70251424      -0.52786834
H        1.79534652      -0.87975452      -0.36273543
H        0.28780883      -2.15585094       1.30633726
H       -1.82210834      -0.50845701       1.57911376
H       -2.20018646      -1.81509852       0.48037142
H       -2.00554151      -0.47403100      -1.43114009
H       -2.20244232       0.90761512      -0.36142164
H        0.06833321       0.51149048      -1.91301846
H        0.11310416       1.67033835       0.63643281
17
Frame=5 idx=007743 GeodesicLength=0.6319577410200511 rxn_smarts="[C:1]([C:2]1=[C:3]([H:11])[C:4]([H:12])([H:13])[C:5]([H:14])([H:15])[C@:6]1([O:7][H:17])[H:16])([H:8])([H:9])[H:10]>>[C:1]([H:8])[H:9].[C:2]1([H:10])=[C:3]([H:11])[C:4]([H:12])([H:13])[C:5]([H:14])([H:15])[C@:6]1([O:7][H:17])[H:16]"
C        2.81078418       0.76879142       0.06954513
C        0.67840620      -0.64879396      -0.15316464
C       -0.08604288      -1.38150030       0.64954317
C       -1.53218116      -0.96714415       0.61952022
C       -1.58409186       0.03047986      -0.55293087
C       -0.12747511       0.42985869      -0.83148174
O        0.25168615       1.70156403      -0.28948906
H        2.70593088       1.15468083       1.10082664
H        2.79557667       1.65700712      -0.58475697
H        1.82068751      -0.89194173      -0.33996192
H        0.28488954      -2.15902681       1.30723393
H       -1.83053940      -0.51990471       1.57364091
H       -2.19763530      -1.81882261       0.46202401
H       -1.99121014      -0.46255134      -1.43729085
H       -2.19669000       0.91125800      -0.35858681
H        0.08663504       0.52714112      -1.89609757
H        0.11126972       1.66890456       0.66142642
17
Frame=6 idx=007743 GeodesicLength=0.7581996912171229 rxn_smarts="[C:1]([C:2]1=[C:3]([H:11])[C:4]([H:12])([H:13])[C:5]([H:14])([H:15])[C@:6]1([O:7][H:17])[H:16])([H:8])([H:9])[H:10]>>[C:1]([H:8])[H:9].[C:2]1([H:10])=[C:3]([H:11])[C:4]([H:12])([H:13])[C:5]([H:14])([H:15])[C@:6]1([O:7][H:17])[H:16]"
C        2.75462740       0.75724871       0.06195895
C        0.68554808      -0.64143923      -0.13900080
C       -0.08540380      -1.38265942       0.64989063
C       -1.53191823      -0.97057951       0.61314082
C       -1.57741917       0.03560131      -0.55212086
C       -0.11990939       0.43751563      -0.81831037
O        0.25806092       1.70605979      -0.26494964
H        2.68563803       1.19239344       1.07562649
H        2.79013093       1.60941077      -0.63702616
H        1.84693740      -0.90201795      -0.31520766
H        0.28266938      -2.16194434       1.30718527
H       -1.83803241      -0.53087328       1.56827774
H       -2.19468492      -1.82221909       0.44445796
H       -1.97803288      -0.45120500      -1.44286628
H       -2.19130171       0.91493062      -0.35544982
H        0.10342452       0.54221083      -1.88027742
H        0.10966585       1.66756672       0.68467116
17
Frame=7 idx=007743 GeodesicLength=0.8843864512657673 rxn_smarts="[C:1]([C:2]1=[C:3]([H:11])[C:4]([H:12])([H:13])[C:5]([H:14])([H:15])[C@:6]1([O:7][H:17])[H:16])([H:8])([H:9])[H:10]>>[C:1]([H:8])[H:9].[C:2]1([H:10])=[C:3]([H:11])[C:4]([H:12])([H:13])[C:5]([H:14])([H:15])[C@:6]1([O:7][H:17])[H:16]"
C        2.70036116       0.74765670       0.05515308
C        0.69225726      -0.63424214      -0.12624813
C       -0.08442453      -1.38345628       0.64966071
C       -1.53133813      -0.97376006       0.60688980
C       -1.57128031       0.04070889      -0.55124260
C       -0.11313630       0.44499906      -0.80616539
O        0.26402968       1.71044096      -0.24204197
H        2.66626061       1.22721930       1.04937675
H        2.78330168       1.56006285      -0.68483963
H        1.87413959      -0.90996772      -0.28824862
H        0.28112241      -2.16462188       1.30621172
H       -1.84467333      -0.54144359       1.56303057
H       -2.19137858      -1.82535582       0.42760154
H       -1.96598603      -0.43998147      -1.44791192
H       -2.18630571       0.91862483      -0.35199330
H        0.11875977       0.55678391      -1.86552586
H        0.10829076       1.66633246       0.70629323
17
Frame=8 idx=007743 GeodesicLength=1.010618814308925 rxn_smarts="[C:1]([C:2]1=[C:3]([H:11])[C:4]([H:12])([H:13])[C:5]([H:14])([H:15])[C@:6]1([O:7][H:17])[H:16])([H:8])([H:9])[H:10]>>[C:1]([H:8])[H:9].[C:2]1([H:10])=[C:3]([H:11])[C:4]([H:12])([H:13])[C:5]([H:14])([H:15])[C@:6]1([O:7][H:17])[H:16]"
C        2.64789873       0.73968660       0.04884082
C        0.69854079      -0.62717261      -0.11490253
C       -0.08312579      -1.38393533       0.64885067
C       -1.53046921      -0.97673211       0.60074982
C       -1.56567930       0.04580964      -0.55030485
C       -0.10714036       0.45235984      -0.79502091
O        0.26960275       1.71475692      -0.22067152
H        2.64768258       1.25915929       1.02209772
H        2.77528406       1.50928234      -0.72838061
H        1.90234247      -0.91579930      -0.25881287
H        0.28023713      -2.16707206       1.30434798
H       -1.85050397      -0.55169409       1.55791448
H       -2.18775533      -1.82829081       0.41139210
H       -1.95506434      -0.42885646      -1.45248106
H       -2.18171412       0.92233520      -0.34820195
H        0.13268476       0.57096548      -1.85183548
H        0.10717915       1.66519747       0.72641819
17
Frame=9 idx=007743 GeodesicLength=1.1360162650618983 rxn_smarts="[C:1]([C:2]1=[C:3]([H:11])[C:4]([H:12])([H:13])[C:5]([H:14])([H:15])[C@:6]1([O:7][H:17])[H:16])([H:8])([H:9])[H:10]>>[C:1]([H:8])[H:9].[C:2]1([H:10])=[C:3]([H:11])[C:4]([H:12])([H:13])[C:5]([H:14])([H:15])[C@:6]1([O:7][H:17])[H:16]"
C        2.59735561       0.73288568       0.04273894
C        0.70440775      -0.62043995      -0.10491439
C       -0.08160951      -1.38424508       0.64741739
C       -1.52938101      -0.97953534       0.59465742
C       -1.56056198       0.05092301      -0.54928533
C       -0.10183866       0.45948606      -0.78477546
O        0.27494387       1.71881789      -0.20066315
H        2.62998907       1.28887429       0.99397623
H        2.76609156       1.45762106      -0.76821415
H        1.93111772      -0.91921450      -0.22653376
H        0.27983607      -2.16949345       1.30151956
H       -1.85559450      -0.56169508       1.55287308
H       -2.18393357      -1.83099380       0.39569433
H       -1.94521179      -0.41772910      -1.45658373
H       -2.17740111       0.92612237      -0.34403288
H        0.14530738       0.58469566      -1.83907284
H        0.10648311       1.66392027       0.74519875
17
Frame=10 idx=007743 GeodesicLength=1.2615069179407874 rxn_smarts="[C:1]([C:2]1=[C:3]([H:11])[C:4]([H:12])([H:13])[C:5]([H:14])([H:15])[C@:6]1([O:7][H:17])[H:16])([H:8])([H:9])[H:10]>>[C:1]([H:8])[H:9].[C:2]1([H:10])=[C:3]([H:11])[C:4]([H:12])([H:13])[C:5]([H:14])([H:15])[C@:6]1([O:7][H:17])[H:16]"
C        2.54848036       0.72706022       0.03666364
C        0.70988340      -0.61387215      -0.09631214
C       -0.07983995      -1.38435883       0.64535652
C       -1.52807289      -0.98220844       0.58861918
C       -1.55596862       0.05604945      -0.54819932
C       -0.09724402       0.46651726      -0.77544087
O        0.27998901       1.72278493      -0.18196556
H        2.61293247       1.31602982       0.96488628
H        2.75600283       1.40510349      -0.80436227
H        1.96078287      -0.92035684      -0.19116983
H        0.28001864      -2.17179269       1.29778027
H       -1.85995373      -0.57152611       1.54795421
H       -2.17991557      -1.83354227       0.38049025
H       -1.93646876      -0.40659886      -1.46028084
H       -2.17346053       0.92993505      -0.33946636
H        0.15664677       0.59816381      -1.82729143
H        0.10618770       1.66261216       0.76273826
17
Frame=11 idx=007743 GeodesicLength=1.3870668836262068 rxn_smarts="[C:1]([C:2]1=[C:3]([H:11])[C:4]([H:12])([H:13])[C:5]([H:14])([H:15])[C@:6]1([O:7][H:17])[H:16])([H:8])([H:9])[H:10]>>[C:1]([H:8])[H:9].[C:2]1([H:10])=[C:3]([H:11])[C:4]([H:12])([H:13])[C:5]([H:14])([H:15])[C@:6]1([O:7][H:17])[H:16]"
C        2.50121349       0.72195604       0.03038680
C        0.71499017      -0.60749138      -0.08911168
C       -0.07783809      -1.38432789       0.64262827
C       -1.52656404      -0.98478268       0.58261207
C       -1.55189072       0.06119298      -0.54704221
C       -0.09332676       0.47346607      -0.76698392
O        0.28477458       1.72664700      -0.16448321
H        2.59645857       1.34072525       0.93484976
H        2.74516023       1.35188393      -0.83704949
H        1.99120333      -0.91904125      -0.15241114
H        0.28076368      -2.17400941       1.29309932
H       -1.86359956      -0.58124331       1.54315541
H       -2.17574112      -1.83595754       0.36572308
H       -1.92882348      -0.39543602      -1.46359349
H       -2.16987885       0.93377483      -0.33446650
H        0.16675360       0.61142853      -1.81645703
H        0.10634496       1.66121485       0.77914397
17
Frame=12 idx=007743 GeodesicLength=1.5126950049153964 rxn_smarts="[C:1]([C:2]1=[C:3]([H:11])[C:4]([H:12])([H:13])[C:5]([H:14])([H:15])[C@:6]1([O:7][H:17])[H:16])([H:8])([H:9])[H:10]>>[C:1]([H:8])[H:9].[C:2]1([H:10])=[C:3]([H:11])[C:4]([H:12])([H:13])[C:5]([H:14])([H:15])[C@:6]1([O:7][H:17])[H:16]"
C        2.45548592       0.71735346       0.02368141
C        0.71973716      -0.60137466      -0.08331311
C       -0.07564695      -1.38424447       0.63919071
C       -1.52489149      -0.98730161       0.57659345
C       -1.54830776       0.06637304      -0.54580303
C       -0.09004426       0.48032040      -0.75934644
O        0.28938721       1.73033918      -0.14807967
H        2.58059154       1.36320128       0.90386067
H        2.73366288       1.29811049      -0.86668990
H        2.02221170      -0.91500242      -0.10978943
H        0.28201106      -2.17624445       1.28743296
H       -1.86656721      -0.59093204       1.53845806
H       -2.17148320      -1.83825126       0.35129273
H       -1.92226003      -0.38415924      -1.46654862
H       -2.16660740       0.93766465      -0.32898958
H        0.17569471       0.62453930      -1.80650374
H        0.10702613       1.65960835       0.79455352
17
Frame=13 idx=007743 GeodesicLength=1.6379431401711313 rxn_smarts="[C:1]([C:2]1=[C:3]([H:11])[C:4]([H:12])([H:13])[C:5]([H:14])([H:15])[C@:6]1([O:7][H:17])[H:16])([H:8])([H:9])[H:10]>>[C:1]([H:8])[H:9].[C:2]1([H:10])=[C:3]([H:11])[C:4]([H:12])([H:13])[C:5]([H:14])([H:15])[C@:6]1([O:7][H:17])[H:16]"
C        2.41133816       0.71285701       0.01666276
C        0.72416221      -0.59560308      -0.07892781
C       -0.07329654      -1.38422513       0.63497831
C       -1.52305599      -0.98979916       0.57053895
C       -1.54516589       0.07159386      -0.54446835
C       -0.08732537       0.48704853      -0.75249632
O        0.29395655       1.73379566      -0.13267573
H        2.56533235       1.38385087       0.87181008
H        2.72145575       1.24399367      -0.89354689
H        2.05326079      -0.90793282      -0.06312088
H        0.28371022      -2.17860957       1.28072763
H       -1.86881671      -0.60063693       1.53385776
H       -2.16719050      -1.84042605       0.33715546
H       -1.91673499      -0.37273239      -1.46914599
H       -2.16354874       0.94162541      -0.32299365
H        0.18356159       0.63750423      -1.79739719
H        0.10835709       1.65769589       0.80904186
17
Frame=14 idx=007743 GeodesicLength=1.7634743517262677 rxn_smarts="[C:1]([C:2]1=[C:3]([H:11])[C:4]([H:12])([H:13])[C:5]([H:14])([H:15])[C@:6]1([O:7][H:17])[H:16])([H:8])([H:9])[H:10]>>[C:1]([H:8])[H:9].[C:2]1([H:10])=[C:3]([H:11])[C:4]([H:12])([H:13])[C:5]([H:14])([H:15])[C@:6]1([O:7][H:17])[H:16]"
C        2.36858262       0.70843873       0.00900166
C        0.72827339      -0.59016938      -0.07600023
C       -0.07078553      -1.38429578       0.62994828
C       -1.52107900      -0.99231718       0.56441359
C       -1.54248393       0.07687144      -0.54302902
C       -0.08516368       0.49370224      -0.74639658
O        0.29848552       1.73702806      -0.11815736
H        2.55067099       1.40248214       0.83861583
H        2.70874962       1.18935529      -0.91790292
H        2.08440728      -0.89742281      -0.01180135
H        0.28589965      -2.18112569       1.27292969
H       -1.87038294      -0.61045969       1.52935316
H       -2.16290226      -1.84251264       0.32322160
H       -1.91227510      -0.36108310      -1.47141929
H       -2.16073454       0.94564399      -0.31641944
H        0.19038707       0.65044088      -1.78909814
H        0.11035083       1.65542351       0.82274053
17
Frame=15 idx=007743 GeodesicLength=1.8892937432929746 rxn_smarts="[C:1]([C:2]1=[C:3]([H:11])[C:4]([H:12])([H:13])[C:5]([H:14])([H:15])[C@:6]1([O:7][H:17])[H:16])([H:8])([H:9])[H:10]>>[C:1]([H:8])[H:9].[C:2]1([H:10])=[C:3]([H:11])[C:4]([H:12])([H:13])[C:5]([H:14])([H:15])[C@:6]1([O:7][H:17])[H:16]"
C        2.32717892       0.70389256       0.00068201
C        0.73209173      -0.58512191      -0.07458527
C       -0.06811180      -1.38453081       0.62402747
C       -1.51894656      -0.99488593       0.55819495
C       -1.54023367       0.08221478      -0.54146330
C       -0.08352511       0.50027760      -0.74103227
O        0.30305893       1.73999183      -0.10447079
H        2.53657807       1.41919567       0.80421234
H        2.69559265       1.13410533      -0.93992493
H        2.11524487      -0.88298423       0.04443692
H        0.28860273      -2.18384810       1.26396981
H       -1.87121634      -0.62045884       1.52494594
H       -2.15863809      -1.84451362       0.30944900
H       -1.90887767      -0.34916003      -1.47335665
H       -2.15810950       0.94972689      -0.30919879
H        0.19621952       0.66338588      -1.78158906
H        0.11309134       1.65271291       0.83570260
17
Frame=16 idx=007743 GeodesicLength=2.015369125716389 rxn_smarts="[C:1]([C:2]1=[C:3]([H:11])[C:4]([H:12])([H:13])[C:5]([H:14])([H:15])[C@:6]1([O:7][H:17])[H:16])([H:8])([H:9])[H:10]>>[C:1]([H:8])[H:9].[C:2]1([H:10])=[C:3]([H:11])[C:4]([H:12])([H:13])[C:5]([H:14])([H:15])[C@:6]1([O:7][H:17])[H:16]"
C        2.28710396       0.69898619      -0.00828115
C        0.73564539      -0.58054178      -0.07472749
C       -0.06528326      -1.38501835       0.61715153
C       -1.51665521      -0.99753858       0.55185951
C       -1.53838029       0.08762764      -0.53974716
C       -0.08235588       0.50675096      -0.73637736
O        0.30778692       1.74261798      -0.09154505
H        2.52306022       1.43415448       0.76851148
H        2.68202536       1.07816761      -0.95974300
H        2.14524567      -0.86404909       0.10570824
H        0.29184361      -2.18681298       1.25382309
H       -1.87128710      -0.63069131       1.52063439
H       -2.15443671      -1.84643293       0.29578754
H       -1.90653123      -0.33691615      -1.47494864
H       -2.15560536       0.95388248      -0.30126459
H        0.20113864       0.67634972      -1.77483866
H        0.11668527       1.64946409       0.84799732
