11
Frame=0 idx=004210 GeodesicLength=0.0 rxn_smarts="[O:1]([c:2]1[c:3]([H:8])[c:4]([H:9])[c:5]([H:10])[n:6]1[H:11])[H:7]>>[O:1]([C@:2]1([H:11])[C:3]([H:8])=[C:4]([H:9])[C:5]([H:10])=[N:6]1)[H:7]"
O        2.17987835       0.30166384      -0.29534674
C        0.86665065       0.13274642      -0.00395997
C        0.20505435      -1.07609039       0.24717913
C       -1.14810968      -0.80284072       0.10088756
C       -1.28191118       0.54148885      -0.23088541
N       -0.08107969       1.15383495      -0.33151461
H        2.27134069       1.13670193      -0.76335665
H        0.67888785      -2.01415164       0.48748612
H       -1.95865487      -1.49855295       0.26180794
H       -2.18804970       1.12236395      -0.31461769
H        0.45599322       1.00283577       0.84232033
11
Frame=1 idx=004210 GeodesicLength=0.04380970681470267 rxn_smarts="[O:1]([c:2]1[c:3]([H:8])[c:4]([H:9])[c:5]([H:10])[n:6]1[H:11])[H:7]>>[O:1]([C@:2]1([H:11])[C:3]([H:8])=[C:4]([H:9])[C:5]([H:10])=[N:6]1)[H:7]"
O        2.18365871       0.32028760      -0.25003469
C        0.86588603       0.14437985       0.01837916
C        0.20712328      -1.07335946       0.24312573
C       -1.14572804      -0.80719882       0.08658856
C       -1.28259097       0.54043354      -0.23788768
N       -0.08456068       1.15800704      -0.31518507
H        2.26942744       1.08845443      -0.82159773
H        0.68366667      -2.01517915       0.46306476
H       -1.95549549      -1.49981296       0.26400383
H       -2.19082604       1.11923101      -0.31565884
H        0.44943910       1.02475692       0.86520198
11
Frame=2 idx=004210 GeodesicLength=0.08805645805051285 rxn_smarts="[O:1]([c:2]1[c:3]([H:8])[c:4]([H:9])[c:5]([H:10])[n:6]1[H:11])[H:7]>>[O:1]([C@:2]1([H:11])[C:3]([H:8])=[C:4]([H:9])[C:5]([H:10])=[N:6]1)[H:7]"
O        2.18523408       0.34108348      -0.21080243
C        0.86458917       0.15680331       0.04087354
C        0.20966904      -1.06945012       0.24118856
C       -1.14295958      -0.81093626       0.07469513
C       -1.28363249       0.53958662      -0.24387555
N       -0.08888819       1.16234504      -0.29981924
H        2.26850226       1.03256132      -0.87312549
H        0.69013009      -2.01472463       0.43720681
H       -1.95139534      -1.50240346       0.26256406
H       -2.19429553       1.11576711      -0.31558847
H        0.44304650       1.04936758       0.88668307
11
Frame=3 idx=004210 GeodesicLength=0.1326949380531637 rxn_smarts="[O:1]([c:2]1[c:3]([H:8])[c:4]([H:9])[c:5]([H:10])[n:6]1[H:11])[H:7]>>[O:1]([C@:2]1([H:11])[C:3]([H:8])=[C:4]([H:9])[C:5]([H:10])=[N:6]1)[H:7]"
O        2.18484060       0.36324693      -0.17917261
C        0.86305053       0.16985558       0.06379910
C        0.21262142      -1.06426287       0.24266409
C       -1.13971018      -0.81368954       0.06653967
C       -1.28484934       0.53948506      -0.24635497
N       -0.09375396       1.16703890      -0.28386215
H        2.26605403       0.96956162      -0.92024637
H        0.69785598      -2.01224417       0.41283516
H       -1.94644222      -1.50783690       0.25169403
H       -2.19809550       1.11222964      -0.31540263
H        0.43842864       1.07661575       0.90750668
11
Frame=4 idx=004210 GeodesicLength=0.17773487090101378 rxn_smarts="[O:1]([c:2]1[c:3]([H:8])[c:4]([H:9])[c:5]([H:10])[n:6]1[H:11])[H:7]>>[O:1]([C@:2]1([H:11])[C:3]([H:8])=[C:4]([H:9])[C:5]([H:10])=[N:6]1)[H:7]"
O        2.18311980       0.38607923      -0.15138927
C        0.86077620       0.18291718       0.08458208
C        0.21566182      -1.05901643       0.24266236
C       -1.13640209      -0.81678581       0.05741555
C       -1.28651503       0.53871990      -0.25095938
N       -0.09940637       1.17114758      -0.27104644
H        2.26697000       0.90442928      -0.95593839
H        0.70637910      -2.00888509       0.38525402
H       -1.94115922      -1.51210442       0.24669022
H       -2.20254972       1.10828201      -0.31211314
H        0.43312551       1.10521657       0.92484239
11
Frame=5 idx=004210 GeodesicLength=0.22340478952415477 rxn_smarts="[O:1]([c:2]1[c:3]([H:8])[c:4]([H:9])[c:5]([H:10])[n:6]1[H:11])[H:7]>>[O:1]([C@:2]1([H:11])[C:3]([H:8])=[C:4]([H:9])[C:5]([H:10])=[N:6]1)[H:7]"
O        2.18029602       0.40924734      -0.13065564
C        0.85843064       0.19627857       0.10475840
C        0.21890681      -1.05297565       0.24491640
C       -1.13285614      -0.81928972       0.05041300
C       -1.28862797       0.53865861      -0.25241746
N       -0.10554167       1.17556043      -0.25788886
H        2.26683657       0.83498294      -0.98745408
H        0.71545266      -2.00350771       0.36196770
H       -1.93528246      -1.51928529       0.23208921
H       -2.20760098       1.10459136      -0.30670182
H        0.42998653       1.13573912       0.94097314
11
Frame=6 idx=004210 GeodesicLength=0.26939846652665633 rxn_smarts="[O:1]([c:2]1[c:3]([H:8])[c:4]([H:9])[c:5]([H:10])[n:6]1[H:11])[H:7]>>[O:1]([C@:2]1([H:11])[C:3]([H:8])=[C:4]([H:9])[C:5]([H:10])=[N:6]1)[H:7]"
O        2.17663567       0.43251595      -0.11207049
C        0.85535971       0.20926332       0.12201166
C        0.22207759      -1.04740624       0.24384823
C       -1.12954859      -0.82233649       0.04174332
C       -1.29132318       0.53784903      -0.25628821
N       -0.11240768       1.17923909      -0.24795925
H        2.27113801       0.76605429      -1.00783930
H        0.72473150      -1.99772279       0.33546070
H       -1.92948799      -1.52456993       0.22577281
H       -2.21330880       1.10041801      -0.29804702
H        0.42613377       1.16669575       0.95336754
11
Frame=7 idx=004210 GeodesicLength=0.31557278545461304 rxn_smarts="[O:1]([c:2]1[c:3]([H:8])[c:4]([H:9])[c:5]([H:10])[n:6]1[H:11])[H:7]>>[O:1]([C@:2]1([H:11])[C:3]([H:8])=[C:4]([H:9])[C:5]([H:10])=[N:6]1)[H:7]"
O        2.17185216       0.45526131      -0.10172323
C        0.85256378       0.22240628       0.13925457
C        0.22533253      -1.04099519       0.24634976
C       -1.12571588      -0.82468096       0.03532644
C       -1.29403347       0.53808367      -0.25528098
N       -0.11937695       1.18349870      -0.23561643
H        2.27137592       0.69427487      -1.02648198
H        0.73399798      -1.99019630       0.31558878
H       -1.92279055      -1.53331067       0.20644486
H       -2.21903954       1.09647420      -0.28954730
H        0.42583403       1.19918410       0.96568552
11
Frame=8 idx=004210 GeodesicLength=0.3620477870051807 rxn_smarts="[O:1]([c:2]1[c:3]([H:8])[c:4]([H:9])[c:5]([H:10])[n:6]1[H:11])[H:7]>>[O:1]([C@:2]1([H:11])[C:3]([H:8])=[C:4]([H:9])[C:5]([H:10])=[N:6]1)[H:7]"
O        2.16663613       0.47758094      -0.09461131
C        0.84949978       0.23512058       0.15420556
C        0.22845684      -1.03490408       0.24701008
C       -1.12214386      -0.82726868       0.02800133
C       -1.29736401       0.53810487      -0.25468976
N       -0.12687284       1.18738255      -0.22472976
H        2.27407518       0.62354110      -1.03755348
H        0.74311593      -1.98235039       0.29597947
H       -1.91616621      -1.54151128       0.18949070
H       -2.22543133       1.09235125      -0.27853277
H        0.42619439       1.23195313       0.97542993
11
Frame=9 idx=004210 GeodesicLength=0.4086818672970015 rxn_smarts="[O:1]([c:2]1[c:3]([H:8])[c:4]([H:9])[c:5]([H:10])[n:6]1[H:11])[H:7]>>[O:1]([C@:2]1([H:11])[C:3]([H:8])=[C:4]([H:9])[C:5]([H:10])=[N:6]1)[H:7]"
O        2.16080089       0.49949356      -0.09015828
C        0.84607442       0.24742790       0.16690001
C        0.23141003      -1.02911031       0.24577401
C       -1.11876527      -0.83011724       0.01958892
C       -1.30121686       0.53789480      -0.25453612
N       -0.13487026       1.19086705      -0.21533511
H        2.27944957       0.55390099      -1.04127420
H        0.75199081      -1.97431079       0.27613747
H       -1.90965115      -1.54908592       0.17526026
H       -2.23227638       1.08796400      -0.26478837
H        0.42705420       1.26507596       0.98243140
11
Frame=10 idx=004210 GeodesicLength=0.4555842097429468 rxn_smarts="[O:1]([c:2]1[c:3]([H:8])[c:4]([H:9])[c:5]([H:10])[n:6]1[H:11])[H:7]>>[O:1]([C@:2]1([H:11])[C:3]([H:8])=[C:4]([H:9])[C:5]([H:10])=[N:6]1)[H:7]"
O        2.15430578       0.52065567      -0.09109993
C        0.84274498       0.25969452       0.17847719
C        0.23417528      -1.02294466       0.24609747
C       -1.11526609      -0.83277285       0.01146903
C       -1.30552394       0.53807263      -0.25202071
N       -0.14319809       1.19445226      -0.20548759
H        2.28408129       0.48375737      -1.04145647
H        0.76050929      -1.96554376       0.26107865
H       -1.90252729      -1.55842551       0.15361919
H       -2.23955329       1.08358607      -0.24837442
H        0.43025208       1.29946826       0.98769759
11
Frame=11 idx=004210 GeodesicLength=0.502716853123377 rxn_smarts="[O:1]([c:2]1[c:3]([H:8])[c:4]([H:9])[c:5]([H:10])[n:6]1[H:11])[H:7]>>[O:1]([C@:2]1([H:11])[C:3]([H:8])=[C:4]([H:9])[C:5]([H:10])=[N:6]1)[H:7]"
O        2.14715987       0.54098338      -0.09679230
C        0.83946820       0.27182625       0.18876156
C        0.23667801      -1.01658885       0.24732729
C       -1.11170404      -0.83537743       0.00297807
C       -1.31031483       0.53846927      -0.24773135
N       -0.15187817       1.19803301      -0.19542916
H        2.28862260       0.41385377      -1.03751683
H        0.76858100      -1.95639600       0.24995399
H       -1.89482808      -1.56877124       0.12663789
H       -2.24726321       1.07906411      -0.22915361
H        0.43547865       1.33490373       0.99096446
11
Frame=12 idx=004210 GeodesicLength=0.5499922098670341 rxn_smarts="[O:1]([c:2]1[c:3]([H:8])[c:4]([H:9])[c:5]([H:10])[n:6]1[H:11])[H:7]>>[O:1]([C@:2]1([H:11])[C:3]([H:8])=[C:4]([H:9])[C:5]([H:10])=[N:6]1)[H:7]"
O        2.13928844       0.56068290      -0.10565605
C        0.83595887       0.28371374       0.19707508
C        0.23883853      -1.01030221       0.24788115
C       -1.10830339      -0.83808086      -0.00642890
C       -1.31576843       0.53879952      -0.24284008
N       -0.16106930       1.20134021      -0.18639136
H        2.29544652       0.34474816      -1.02750101
H        0.77614258      -1.94722607       0.24024469
H       -1.88690806      -1.57910312       0.09841259
H       -2.25540020       1.07420761      -0.20597745
H        0.44177445       1.37122011       0.99118134
11
Frame=13 idx=004210 GeodesicLength=0.5974281557245292 rxn_smarts="[O:1]([c:2]1[c:3]([H:8])[c:4]([H:9])[c:5]([H:10])[n:6]1[H:11])[H:7]>>[O:1]([C@:2]1([H:11])[C:3]([H:8])=[C:4]([H:9])[C:5]([H:10])=[N:6]1)[H:7]"
O        2.13059640       0.57938128      -0.11930461
C        0.83247388       0.29549620       0.20396326
C        0.24059771      -1.00382543       0.24936656
C       -1.10488096      -0.84072590      -0.01646885
C       -1.32183555       0.53928488      -0.23602337
N       -0.17069800       1.20462305      -0.17719888
H        2.30267655       0.27614627      -1.01314480
H        0.78307539      -1.93790121       0.23479584
H       -1.87819021      -1.59017128       0.06425319
H       -2.26394519       1.06898181      -0.17907097
H        0.45012998       1.40871033       0.98883264
11
Frame=14 idx=004210 GeodesicLength=0.644944450482486 rxn_smarts="[O:1]([c:2]1[c:3]([H:8])[c:4]([H:9])[c:5]([H:10])[n:6]1[H:11])[H:7]>>[O:1]([C@:2]1([H:11])[C:3]([H:8])=[C:4]([H:9])[C:5]([H:10])=[N:6]1)[H:7]"
O        2.12101963       0.59722218      -0.13671773
C        0.82887619       0.30698154       0.20917306
C        0.24195325      -0.99748159       0.25023285
C       -1.10160273      -0.84341673      -0.02762255
C       -1.32851091       0.53970171      -0.22821576
N       -0.18080830       1.20772416      -0.16818890
H        2.31182982       0.20895961      -0.99290947
H        0.78934114      -1.92881603       0.23090459
H       -1.86918793      -1.60084316       0.02873590
H       -2.27276860       1.06313617      -0.14911043
H        0.45985843       1.44683215       0.98371844
11
Frame=15 idx=004210 GeodesicLength=0.6924302190024223 rxn_smarts="[O:1]([c:2]1[c:3]([H:8])[c:4]([H:9])[c:5]([H:10])[n:6]1[H:11])[H:7]>>[O:1]([C@:2]1([H:11])[C:3]([H:8])=[C:4]([H:9])[C:5]([H:10])=[N:6]1)[H:7]"
O        2.11036162       0.61384675      -0.15858874
C        0.82528832       0.31815148       0.21310009
C        0.24289954      -0.99124916       0.25101706
C       -1.09834788      -0.84608141      -0.03984267
C       -1.33563177       0.54006313      -0.21909881
N       -0.19131769       1.21071979      -0.15861620
H        2.32196895       0.14357550      -0.96728259
H        0.79489127      -1.92001310       0.22911608
H       -1.85973419      -1.61110841      -0.00909108
H       -2.28172670       1.05655112      -0.11683683
H        0.47134853       1.48554431       0.97612369
11
Frame=16 idx=004210 GeodesicLength=0.7398222848237985 rxn_smarts="[O:1]([c:2]1[c:3]([H:8])[c:4]([H:9])[c:5]([H:10])[n:6]1[H:11])[H:7]>>[O:1]([C@:2]1([H:11])[C:3]([H:8])=[C:4]([H:9])[C:5]([H:10])=[N:6]1)[H:7]"
O        2.09851561       0.62927025      -0.18453030
C        0.82165677       0.32885786       0.21559043
C        0.24346564      -0.98535896       0.25065184
C       -1.09535565      -0.84870060      -0.05282675
C       -1.34320621       0.54023748      -0.20910750
N       -0.20223479       1.21349092      -0.14859399
H        2.33433908       0.08078745      -0.93498927
H        0.79968100      -1.91176395       0.22737888
H       -1.85039456      -1.62049118      -0.04649438
H       -2.29075179       1.04915598      -0.08295660
H        0.48428491       1.52451477       0.96587765
