14
Frame=0 idx=005979 GeodesicLength=0.0 rxn_smarts="[O:1]([C@@:2]1([H:8])[C:3]([H:9])([H:10])[C:4]([H:11])([H:12])[C:5]([H:13])=[C:6]1[H:14])[H:7]>>[O:1]([C:2]([C:3]([C:4]([C:5](=[C:6])[H:13])([H:11])[H:12])([H:9])[H:10])([H:8])[H:14])[H:7]"
O        1.26010736      -1.11816607       1.11412870
C        0.89487681      -0.82927562      -0.17483584
C       -0.56990995      -0.78607493      -0.50550894
C       -1.17556733       0.45497657       0.12895683
C       -0.08472364       1.49607177       0.06605028
C        1.17851912       1.25877153      -0.23159455
H        0.92851750      -0.42771551       1.69756031
H        1.48249516      -1.46706168      -0.83960227
H       -0.67249910      -0.73949352      -1.59155972
H       -1.04268885      -1.71034086      -0.16233709
H       -2.07634193       0.78519959      -0.39264743
H       -1.47450040       0.27677190       1.16773467
H       -0.34066748       2.52713363       0.29703033
H        1.69238273       0.27920319      -0.57337533
14
Frame=1 idx=005979 GeodesicLength=0.052901105639295745 rxn_smarts="[O:1]([C@@:2]1([H:8])[C:3]([H:9])([H:10])[C:4]([H:11])([H:12])[C:5]([H:13])=[C:6]1[H:14])[H:7]>>[O:1]([C:2]([C:3]([C:4]([C:5](=[C:6])[H:13])([H:11])[H:12])([H:9])[H:10])([H:8])[H:14])[H:7]"
O        1.25920117      -1.12612388       1.11373119
C        0.89792479      -0.82396743      -0.17645553
C       -0.56952456      -0.78563062      -0.50479018
C       -1.17831754       0.45621781       0.12705675
C       -0.09105613       1.50046835       0.06386023
C        1.17231284       1.25952329      -0.22432875
H        0.93830101      -0.43423696       1.70101515
H        1.47752759      -1.46982902      -0.84064513
H       -0.67532266      -0.74327068      -1.59076032
H       -1.04145293      -1.70877024      -0.15788436
H       -2.07870167       0.78386078      -0.39675200
H       -1.47782365       0.27948919       1.16580404
H       -0.34172518       2.53267249       0.29660703
H        1.70865690       0.27959693      -0.57645812
14
Frame=2 idx=005979 GeodesicLength=0.10579178281321094 rxn_smarts="[O:1]([C@@:2]1([H:8])[C:3]([H:9])([H:10])[C:4]([H:11])([H:12])[C:5]([H:13])=[C:6]1[H:14])[H:7]>>[O:1]([C:2]([C:3]([C:4]([C:5](=[C:6])[H:13])([H:11])[H:12])([H:9])[H:10])([H:8])[H:14])[H:7]"
O        1.25822766      -1.13410801       1.11326034
C        0.90097838      -0.81864827      -0.17805458
C       -0.56914817      -0.78518731      -0.50403488
C       -1.18109630       0.45747384       0.12513363
C       -0.09741308       1.50487494       0.06162742
C        1.16601116       1.26021070      -0.21712596
H        0.94828433      -0.44086192       1.70440697
H        1.47254400      -1.47240526      -0.84168759
H       -0.67813819      -0.74709306      -1.58990296
H       -1.04024025      -1.70717626      -0.15339616
H       -2.08106993       0.78251742      -0.40090323
H       -1.48119185       0.28224462       1.16384748
H       -0.34274515       2.53820163       0.29616876
H        1.72499737       0.27995695      -0.57933925
14
Frame=3 idx=005979 GeodesicLength=0.15865519698982042 rxn_smarts="[O:1]([C@@:2]1([H:8])[C:3]([H:9])([H:10])[C:4]([H:11])([H:12])[C:5]([H:13])=[C:6]1[H:14])[H:7]>>[O:1]([C:2]([C:3]([C:4]([C:5](=[C:6])[H:13])([H:11])[H:12])([H:9])[H:10])([H:8])[H:14])[H:7]"
O        1.25718512      -1.14210076       1.11272209
C        0.90403255      -0.81331847      -0.17962884
C       -0.56878050      -0.78474268      -0.50324487
C       -1.18390158       0.45874229       0.12318590
C       -0.10379344       1.50928546       0.05935279
C        1.15961149       1.26083710      -0.20999104
H        0.95846617      -0.44757863       1.70773294
H        1.46754270      -1.47479460      -0.84271883
H       -0.68094067      -0.75095259      -1.58898889
H       -1.03905033      -1.70555624      -0.14887792
H       -2.08344187       0.78117038      -0.40510115
H       -1.48460243       0.28503151       1.16186204
H       -0.34372511       2.54370785       0.29573396
H        1.74139790       0.28026939      -0.58203818
14
Frame=4 idx=005979 GeodesicLength=0.21150374726249316 rxn_smarts="[O:1]([C@@:2]1([H:8])[C:3]([H:9])([H:10])[C:4]([H:11])([H:12])[C:5]([H:13])=[C:6]1[H:14])[H:7]>>[O:1]([C:2]([C:3]([C:4]([C:5](=[C:6])[H:13])([H:11])[H:12])([H:9])[H:10])([H:8])[H:14])[H:7]"
O        1.25608023      -1.15009511       1.11211747
C        0.90708798      -0.80798003      -0.18117746
C       -0.56842332      -0.78429744      -0.50242095
C       -1.18673688       0.46002451       0.12121495
C       -0.11019612       1.51370149       0.05704440
C        1.15311885       1.26141164      -0.20291197
H        0.96884936      -0.45438989       1.71099071
H        1.46253024      -1.47700402      -0.84373857
H       -0.68373119      -0.75485025      -1.58801925
H       -1.03788671      -1.70391224      -0.14433145
H       -2.08582128       0.77982259      -0.40934594
H       -1.48806347       0.28785071       1.15984836
H       -0.34467161       2.54919568       0.29529820
H        1.75786393       0.28052238      -0.58456851
14
Frame=5 idx=005979 GeodesicLength=0.2643332519930761 rxn_smarts="[O:1]([C@@:2]1([H:8])[C:3]([H:9])([H:10])[C:4]([H:11])([H:12])[C:5]([H:13])=[C:6]1[H:14])[H:7]>>[O:1]([C:2]([C:3]([C:4]([C:5](=[C:6])[H:13])([H:11])[H:12])([H:9])[H:10])([H:8])[H:14])[H:7]"
O        1.25491484      -1.15808407       1.11144815
C        0.91014254      -0.80263209      -0.18269866
C       -0.56807668      -0.78384938      -0.50156306
C       -1.18960221       0.46132012       0.11922145
C       -0.11662063       1.51812069       0.05470876
C        1.14653389       1.26193951      -0.19587795
H        0.97943789      -0.46129720       1.71417761
H        1.45750617      -1.47903562      -0.84474419
H       -0.68650890      -0.75878189      -1.58699357
H       -1.03674935      -1.70224192      -0.13975753
H       -2.08820562       0.77847547      -0.41363840
H       -1.49157786       0.29069919       1.15780550
H       -0.34559038       2.55466273       0.29485517
H        1.77439629       0.28070445      -0.58694327
14
Frame=6 idx=005979 GeodesicLength=0.31714362046778277 rxn_smarts="[O:1]([C@@:2]1([H:8])[C:3]([H:9])([H:10])[C:4]([H:11])([H:12])[C:5]([H:13])=[C:6]1[H:14])[H:7]>>[O:1]([C:2]([C:3]([C:4]([C:5](=[C:6])[H:13])([H:11])[H:12])([H:9])[H:10])([H:8])[H:14])[H:7]"
O        1.25369163      -1.16606090       1.11071597
C        0.91319501      -0.79727400      -0.18419096
C       -0.56774093      -0.78339683      -0.50067140
C       -1.19249852       0.46262909       0.11720626
C       -0.12306662       1.52254177       0.05235315
C        1.13985789       1.26242639      -0.18887762
H        0.99023591      -0.46830205       1.71729080
H        1.45247138      -1.48089282      -0.84573323
H       -0.68927321      -0.76274425      -1.58591185
H       -1.03563877      -1.70054406      -0.13515738
H       -2.09059392       0.77713082      -0.41797926
H       -1.49514997       0.29357455       1.15573285
H       -0.34648759       2.56010880       0.29439885
H        1.79099770       0.28080349      -0.58917618
14
Frame=7 idx=005979 GeodesicLength=0.3699349911817231 rxn_smarts="[O:1]([C@@:2]1([H:8])[C:3]([H:9])([H:10])[C:4]([H:11])([H:12])[C:5]([H:13])=[C:6]1[H:14])[H:7]>>[O:1]([C:2]([C:3]([C:4]([C:5](=[C:6])[H:13])([H:11])[H:12])([H:9])[H:10])([H:8])[H:14])[H:7]"
O        1.25241318      -1.17401941       1.10992280
C        0.91624437      -0.79190476      -0.18565296
C       -0.56741635      -0.78293801      -0.49974611
C       -1.19542689       0.46395138       0.11517055
C       -0.12953389       1.52696362       0.04998548
C        1.13309196       1.26287767      -0.18189876
H        1.00124766      -0.47540651       1.72032737
H        1.44742660      -1.48257886      -0.84670329
H       -0.69202345      -0.76673378      -1.58477406
H       -1.03455526      -1.69881741      -0.13053234
H       -2.09298531       0.77579044      -0.42236903
H       -1.49878431       0.29647415       1.15363002
H       -0.34736992       2.56553452       0.29392144
H        1.80767162       0.28080697      -0.59128112
14
Frame=8 idx=005979 GeodesicLength=0.42270950915907907 rxn_smarts="[O:1]([C@@:2]1([H:8])[C:3]([H:9])([H:10])[C:4]([H:11])([H:12])[C:5]([H:13])=[C:6]1[H:14])[H:7]>>[O:1]([C:2]([C:3]([C:4]([C:5](=[C:6])[H:13])([H:11])[H:12])([H:9])[H:10])([H:8])[H:14])[H:7]"
O        1.25108227      -1.18195332       1.10907089
C        0.91929008      -0.78652335      -0.18708327
C       -0.56710338      -0.78247143      -0.49878762
C       -1.19838901       0.46528715       0.11311523
C       -0.13602273       1.53138588       0.04761336
C        1.12623703       1.26329876      -0.17492958
H        1.01247812      -0.48261176       1.72328455
H        1.44237270      -1.48409783      -0.84765171
H       -0.69475918      -0.77074732      -1.58358063
H       -1.03349929      -1.69706141      -0.12588421
H       -2.09537995       0.77445621      -0.42680852
H       -1.50248586       0.29939555       1.15149646
H       -0.34824390       2.57094130       0.29341718
H        1.82442311       0.28070156      -0.59327213
14
Frame=9 idx=005979 GeodesicLength=0.4754609714913982 rxn_smarts="[O:1]([C@@:2]1([H:8])[C:3]([H:9])([H:10])[C:4]([H:11])([H:12])[C:5]([H:13])=[C:6]1[H:14])[H:7]>>[O:1]([C:2]([C:3]([C:4]([C:5](=[C:6])[H:13])([H:11])[H:12])([H:9])[H:10])([H:8])[H:14])[H:7]"
O        1.24970096      -1.18985463       1.10816253
C        0.92233063      -0.78112699      -0.18848056
C       -0.56680099      -0.78199416      -0.49779529
C       -1.20138453       0.46663590       0.11104146
C       -0.14253274       1.53580594       0.04524394
C        1.11929278       1.26369383      -0.16795793
H        1.02392639      -0.48992156       1.72615787
H        1.43730959      -1.48545111      -0.84857469
H       -0.69747800      -0.77478008      -1.58233054
H       -1.03246913      -1.69527307      -0.12121286
H       -2.09777416       0.77312905      -0.43129825
H       -1.50625818       0.30233565       1.14933171
H       -0.34911562       2.57632772       0.29287931
H        1.84125299       0.28047351      -0.59516669
14
Frame=10 idx=005979 GeodesicLength=0.5282018859035074 rxn_smarts="[O:1]([C@@:2]1([H:8])[C:3]([H:9])([H:10])[C:4]([H:11])([H:12])[C:5]([H:13])=[C:6]1[H:14])[H:7]>>[O:1]([C:2]([C:3]([C:4]([C:5](=[C:6])[H:13])([H:11])[H:12])([H:9])[H:10])([H:8])[H:14])[H:7]"
O        1.24827600      -1.19773731       1.10719195
C        0.92536776      -0.77571338      -0.18984527
C       -0.56651054      -0.78150381      -0.49676671
C       -1.20441691       0.46799958       0.10895477
C       -0.14906501       1.54022649       0.04289547
C        1.11226350       1.26406925      -0.16094296
H        1.03560895      -0.49736091       1.72894593
H        1.43223916      -1.48663265      -0.84948354
H       -0.70018625      -0.77883132      -1.58102118
H       -1.03146631      -1.69345094      -0.11651497
H       -2.10017061       0.77181343      -0.43583605
H       -1.51010863       0.30529377       1.14713953
H       -0.35000585       2.58171316       0.29224500
H        1.85817474       0.28011463      -0.59696198
14
Frame=11 idx=005979 GeodesicLength=0.5809283259618038 rxn_smarts="[O:1]([C@@:2]1([H:8])[C:3]([H:9])([H:10])[C:4]([H:11])([H:12])[C:5]([H:13])=[C:6]1[H:14])[H:7]>>[O:1]([C:2]([C:3]([C:4]([C:5](=[C:6])[H:13])([H:11])[H:12])([H:9])[H:10])([H:8])[H:14])[H:7]"
O        1.24680573      -1.20560496       1.10615549
C        0.92840015      -0.77027674      -0.19117689
C       -0.56623038      -0.78099466      -0.49569897
C       -1.20748547       0.46937726       0.10686072
C       -0.15562054       1.54464494       0.04058108
C        1.10514667       1.26442792      -0.15385977
H        1.04753280      -0.50494765       1.73164311
H        1.42715806      -1.48763389      -0.85038305
H       -0.70288268      -0.78289595      -1.57964854
H       -1.03048854      -1.69158843      -0.11178704
H       -2.10256291       0.77051027      -0.44041937
H       -1.51404118       0.30826438       1.14492337
H       -0.35092788       2.58710433       0.29147028
H        1.87519618       0.27961319      -0.59866042
14
Frame=12 idx=005979 GeodesicLength=0.6336423710885093 rxn_smarts="[O:1]([C@@:2]1([H:8])[C:3]([H:9])([H:10])[C:4]([H:11])([H:12])[C:5]([H:13])=[C:6]1[H:14])[H:7]>>[O:1]([C:2]([C:3]([C:4]([C:5](=[C:6])[H:13])([H:11])[H:12])([H:9])[H:10])([H:8])[H:14])[H:7]"
O        1.24529581      -1.21343377       1.10506391
C        0.93142796      -0.76481706      -0.19247251
C       -0.56596161      -0.78046900      -0.49459495
C       -1.21059461       0.47076969       0.10475196
C       -0.16220110       1.54906216       0.03829633
C        1.09794113       1.26477499      -0.14671756
H        1.05969900      -0.51265891       1.73424484
H        1.42206868      -1.48847251      -0.85125648
H       -0.70556475      -0.78697417      -1.57821624
H       -1.02953554      -1.68969000      -0.10703392
H       -2.10495527       0.76921982      -0.44505929
H       -1.51806588       0.31124912       1.14267389
H       -0.35187324       2.59249153       0.29061721
H        1.89231943       0.27894809      -0.60029720
14
Frame=13 idx=005979 GeodesicLength=0.6863458517186859 rxn_smarts="[O:1]([C@@:2]1([H:8])[C:3]([H:9])([H:10])[C:4]([H:11])([H:12])[C:5]([H:13])=[C:6]1[H:14])[H:7]>>[O:1]([C:2]([C:3]([C:4]([C:5](=[C:6])[H:13])([H:11])[H:12])([H:9])[H:10])([H:8])[H:14])[H:7]"
O        1.24374779      -1.22121742       1.10391965
C        0.93445107      -0.75933105      -0.19373086
C       -0.56570403      -0.77992491      -0.49345459
C       -1.21374639       0.47217698       0.10262922
C       -0.16880842       1.55347878       0.03604815
C        1.09064525       1.26511501      -0.13950353
H        1.07211259      -0.52049703       1.73674714
H        1.41697101      -1.48915025      -0.85210120
H       -0.70823108      -0.79106315      -1.57672452
H       -1.02860630      -1.68775489      -0.10225628
H       -2.10734735       0.76794328      -0.44975766
H       -1.52218855       0.31424542       1.14039059
H       -0.35284823       2.59787746       0.28968088
H        1.90955263       0.27810178      -0.60188699
14
Frame=14 idx=005979 GeodesicLength=0.73903152419086 rxn_smarts="[O:1]([C@@:2]1([H:8])[C:3]([H:9])([H:10])[C:4]([H:11])([H:12])[C:5]([H:13])=[C:6]1[H:14])[H:7]>>[O:1]([C:2]([C:3]([C:4]([C:5](=[C:6])[H:13])([H:11])[H:12])([H:9])[H:10])([H:8])[H:14])[H:7]"
O        1.24216372      -1.22894773       1.10272530
C        0.93746855      -0.75381395      -0.19495045
C       -0.56545610      -0.77935907      -0.49227673
C       -1.21694097       0.47359854       0.10049309
C       -0.17544331       1.55789249       0.03384326
C        1.08325690       1.26545076      -0.13220242
H        1.08477230      -0.52846582       1.73914457
H        1.41186429      -1.48966642      -0.85291268
H       -0.71087867      -0.79515857      -1.57517176
H       -1.02769784      -1.68577982      -0.09745307
H       -2.10973520       0.76668114      -0.45451654
H       -1.52641405       0.31724992       1.13807195
H       -0.35385828       2.60326153       0.28865621
H        1.92689867       0.27705699      -0.60345073
14
Frame=15 idx=005979 GeodesicLength=0.791706607424506 rxn_smarts="[O:1]([C@@:2]1([H:8])[C:3]([H:9])([H:10])[C:4]([H:11])([H:12])[C:5]([H:13])=[C:6]1[H:14])[H:7]>>[O:1]([C:2]([C:3]([C:4]([C:5](=[C:6])[H:13])([H:11])[H:12])([H:9])[H:10])([H:8])[H:14])[H:7]"
O        1.24054497      -1.23663045       1.10147685
C        0.94048038      -0.74825961      -0.19613063
C       -0.56521881      -0.77876865      -0.49105796
C       -1.22018255       0.47503508       0.09834607
C       -0.18210966       1.56230483       0.03169400
C        1.07577322       1.26578652      -0.12478684
H        1.09769728      -0.53658130       1.74143063
H        1.40674634      -1.49001339      -0.85369697
H       -0.71350916      -0.79925938      -1.57355396
H       -1.02680965      -1.68376212      -0.09261852
H       -2.11211783       0.76543513      -0.45934048
H       -1.53075282       0.32026034       1.13571768
H       -0.35491482       2.60865497       0.28750848
H        1.94437311       0.27579804      -0.60498835
14
Frame=16 idx=005979 GeodesicLength=0.8443754385640079 rxn_smarts="[O:1]([C@@:2]1([H:8])[C:3]([H:9])([H:10])[C:4]([H:11])([H:12])[C:5]([H:13])=[C:6]1[H:14])[H:7]>>[O:1]([C:2]([C:3]([C:4]([C:5](=[C:6])[H:13])([H:11])[H:12])([H:9])[H:10])([H:8])[H:14])[H:7]"
O        1.23889781      -1.24425978       1.10017772
C        0.94348822      -0.74266466      -0.19726999
C       -0.56499157      -0.77815205      -0.48979826
C       -1.22347425       0.47648783       0.09618796
C       -0.18880980       1.56671750       0.02960740
C        1.06819283       1.26612708      -0.11723755
H        1.11089191      -0.54484743       1.74360091
H        1.40161928      -1.49019450      -0.85445018
H       -0.71612277      -0.80336487      -1.57187163
H       -1.02593985      -1.68170177      -0.08775339
H       -2.11449703       0.76420737      -0.46423310
H       -1.53521321       0.32327653       1.13332594
H       -0.35602520       2.61406390       0.28623463
H        1.96198365       0.27430485      -0.60652046
