10
Frame=0 idx=003682 GeodesicLength=0.0 rxn_smarts="[c:1]1([H:7])[c:2]([H:8])[n:3][c:4]([H:9])[n:5][c:6]1[H:10]>>[c:1]1([H:7])[c:2]([H:8])[n:3][c:4]([H:9])[n+:5]([H:10])[c-:6]1"
C       -1.25449058       0.27758279      -0.02089587
C       -0.27483831       1.24530453       0.01891657
N        1.04484898       0.98651974       0.04123004
C        1.39782723      -0.27384408       0.02363583
N        0.50575708      -1.26737879      -0.01396605
C       -0.85359625      -1.06133352      -0.03813178
H       -2.30208929       0.54921062      -0.03766025
H       -0.53646559       2.30015878       0.03440841
H        2.45164551      -0.53010555       0.04013053
H       -0.17859879      -2.22611451      -0.04766743
10
Frame=1 idx=003682 GeodesicLength=0.029893696664204817 rxn_smarts="[c:1]1([H:7])[c:2]([H:8])[n:3][c:4]([H:9])[n:5][c:6]1[H:10]>>[c:1]1([H:7])[c:2]([H:8])[n:3][c:4]([H:9])[n+:5]([H:10])[c-:6]1"
C       -1.25250058       0.27703823      -0.00398903
C       -0.27445226       1.24680373       0.02209348
N        1.04513307       0.98812223       0.03999416
C        1.39603883      -0.27311139       0.03475820
N        0.50682697      -1.26591473      -0.05402953
C       -0.85050570      -1.05997661      -0.07697850
H       -2.30039763       0.54722562      -0.02669140
H       -0.53694250       2.30150612       0.02710695
H        2.44985204      -0.52992015       0.04933584
H       -0.18305225      -2.23177306      -0.01160016
10
Frame=2 idx=003682 GeodesicLength=0.060421832645214404 rxn_smarts="[c:1]1([H:7])[c:2]([H:8])[n:3][c:4]([H:9])[n:5][c:6]1[H:10]>>[c:1]1([H:7])[c:2]([H:8])[n:3][c:4]([H:9])[n+:5]([H:10])[c-:6]1"
C       -1.25015488       0.27606320       0.00182427
C       -0.27409324       1.24790561       0.02446501
N        1.04529075       0.98915346       0.04384742
C        1.39410096      -0.27287896       0.03802865
N        0.50786649      -1.26457171      -0.08743214
C       -0.84757487      -1.05867440      -0.11123236
H       -2.29869736       0.54456379      -0.01347517
H       -0.53758409       2.30231756       0.02256064
H        2.44774495      -0.53047733       0.05792936
H       -0.18689872      -2.23340123       0.02348432
10
Frame=3 idx=003682 GeodesicLength=0.09110747370898445 rxn_smarts="[c:1]1([H:7])[c:2]([H:8])[n:3][c:4]([H:9])[n:5][c:6]1[H:10]>>[c:1]1([H:7])[c:2]([H:8])[n:3][c:4]([H:9])[n+:5]([H:10])[c-:6]1"
C       -1.24768240       0.27484846       0.00308501
C       -0.27371346       1.24883712       0.02532759
N        1.04549129       0.99003220       0.04525090
C        1.39219952      -0.27278656       0.03900665
N        0.50881458      -1.26354593      -0.11302734
C       -0.84469387      -1.05753450      -0.13758840
H       -2.29692020       0.54162272      -0.00482485
H       -0.53841124       2.30290084       0.02436533
H        2.44564241      -0.53125634       0.06426919
H       -0.19072663      -2.23311800       0.05413591
10
Frame=4 idx=003682 GeodesicLength=0.12181005050497704 rxn_smarts="[c:1]1([H:7])[c:2]([H:8])[n:3][c:4]([H:9])[n:5][c:6]1[H:10]>>[c:1]1([H:7])[c:2]([H:8])[n:3][c:4]([H:9])[n+:5]([H:10])[c-:6]1"
C       -1.24514647       0.27350438       0.00336384
C       -0.27332711       1.24968648       0.02549753
N        1.04571305       0.99085853       0.04579859
C        1.39036082      -0.27269899       0.03892149
N        0.50974864      -1.26263875      -0.13456699
C       -0.84173191      -1.05633275      -0.15982629
H       -2.29511909       0.53831915       0.00317738
H       -0.53927555       2.30334727       0.02673857
H        2.44350458      -0.53221207       0.07072886
H       -0.19472697      -2.23183326       0.08016703
10
Frame=5 idx=003682 GeodesicLength=0.15262342271069643 rxn_smarts="[c:1]1([H:7])[c:2]([H:8])[n:3][c:4]([H:9])[n:5][c:6]1[H:10]>>[c:1]1([H:7])[c:2]([H:8])[n:3][c:4]([H:9])[n+:5]([H:10])[c-:6]1"
C       -1.24253552       0.27211704       0.00256417
C       -0.27291976       1.25051491       0.02432038
N        1.04596990       0.99169712       0.04503908
C        1.38859158      -0.27258042       0.03773773
N        0.51067671      -1.26186023      -0.15356242
C       -0.83862053      -1.05512305      -0.17934153
H       -2.29325616       0.53465732       0.01049843
H       -0.54021005       2.30372980       0.03113846
H        2.44124700      -0.53334243       0.07768715
H       -0.19894318      -2.22981006       0.10391856
10
Frame=6 idx=003682 GeodesicLength=0.1834738601341324 rxn_smarts="[c:1]1([H:7])[c:2]([H:8])[n:3][c:4]([H:9])[n:5][c:6]1[H:10]>>[c:1]1([H:7])[c:2]([H:8])[n:3][c:4]([H:9])[n+:5]([H:10])[c-:6]1"
C       -1.23986767       0.27073409       0.00116335
C       -0.27249589       1.25135492       0.02260639
N        1.04625795       0.99256937       0.04374126
C        1.38686681      -0.27242614       0.03584994
N        0.51159282      -1.26112725      -0.17112877
C       -0.83539548      -1.05389844      -0.19730640
H       -2.29122077       0.53054932       0.01843121
H       -0.54116808       2.30407974       0.03556835
H        2.43880088      -0.53463843       0.08553147
H       -0.20337056      -2.22719719       0.12554321
10
Frame=7 idx=003682 GeodesicLength=0.21432826599588994 rxn_smarts="[c:1]1([H:7])[c:2]([H:8])[n:3][c:4]([H:9])[n:5][c:6]1[H:10]>>[c:1]1([H:7])[c:2]([H:8])[n:3][c:4]([H:9])[n+:5]([H:10])[c-:6]1"
C       -1.23715297       0.26939907      -0.00112346
C       -0.27203981       1.25223843       0.01991851
N        1.04658562       0.99350178       0.04144182
C        1.38516616      -0.27221717       0.03335985
N        0.51251804      -1.26043801      -0.18774492
C       -0.83212602      -1.05268713      -0.21448359
H       -2.28889483       0.52593986       0.02770355
H       -0.54214142       2.30439925       0.04044046
H        2.43607363      -0.53609452       0.09486639
H       -0.20798840      -2.22404156       0.14562139
10
Frame=8 idx=003682 GeodesicLength=0.2453257274184263 rxn_smarts="[c:1]1([H:7])[c:2]([H:8])[n:3][c:4]([H:9])[n:5][c:6]1[H:10]>>[c:1]1([H:7])[c:2]([H:8])[n:3][c:4]([H:9])[n+:5]([H:10])[c-:6]1"
C       -1.23436657       0.26810096      -0.00400686
C       -0.27155741       1.25315020       0.01662896
N        1.04694637       0.99449256       0.03856116
C        1.38349761      -0.27194775       0.03042073
N        0.51351358      -1.25973387      -0.20392458
C       -0.82879565      -1.05146913      -0.23149259
H       -2.28634555       0.52090723       0.03921830
H       -0.54311325       2.30469644       0.04452587
H        2.43298223      -0.53771685       0.10605889
H       -0.21276137      -2.22047979       0.16401012
10
Frame=9 idx=003682 GeodesicLength=0.27641066154010996 rxn_smarts="[c:1]1([H:7])[c:2]([H:8])[n:3][c:4]([H:9])[n:5][c:6]1[H:10]>>[c:1]1([H:7])[c:2]([H:8])[n:3][c:4]([H:9])[n+:5]([H:10])[c-:6]1"
C       -1.23152791       0.26685411      -0.00799907
C       -0.27103969       1.25416017       0.01218929
N        1.04736690       0.99558229       0.03454803
C        1.38187727      -0.27160945       0.02696497
N        0.51462567      -1.25906078      -0.21979554
C       -0.82543395      -1.05036510      -0.24862192
H       -2.28347807       0.51541843       0.05335747
H       -0.54409691       2.30500666       0.04866378
H        2.42946157      -0.53948349       0.11956276
H       -0.21775488      -2.21650285       0.18113024
10
Frame=10 idx=003682 GeodesicLength=0.30655423773541707 rxn_smarts="[c:1]1([H:7])[c:2]([H:8])[n:3][c:4]([H:9])[n:5][c:6]1[H:10]>>[c:1]1([H:7])[c:2]([H:8])[n:3][c:4]([H:9])[n+:5]([H:10])[c-:6]1"
C       -1.22863689       0.26566460      -0.01333423
C       -0.27045207       1.25529202       0.00586593
N        1.04783331       0.99675140       0.02839234
C        1.38022870      -0.27120297       0.02233006
N        0.51573850      -1.25842491      -0.23579812
C       -0.82208357      -1.04939651      -0.26583760
H       -2.28007178       0.50933889       0.07057786
H       -0.54501169       2.30526334       0.05384995
H        2.42503666      -0.54152142       0.13678529
H       -0.22258117      -2.21176444       0.19716854
10
Frame=11 idx=003682 GeodesicLength=0.3375490432247488 rxn_smarts="[c:1]1([H:7])[c:2]([H:8])[n:3][c:4]([H:9])[n:5][c:6]1[H:10]>>[c:1]1([H:7])[c:2]([H:8])[n:3][c:4]([H:9])[n+:5]([H:10])[c-:6]1"
C       -1.22575479       0.26448732      -0.01784324
C       -0.26991683       1.25628188       0.00149133
N        1.04820574       0.99783437       0.02479876
C        1.37857939      -0.27080131       0.01876952
N        0.51690626      -1.25760082      -0.25096494
C       -0.81867501      -1.04823907      -0.28176128
H       -2.27640283       0.50320330       0.08592683
H       -0.54593467       2.30540362       0.05659891
H        2.42070356      -0.54341260       0.15076276
H       -0.22771083      -2.20715670       0.21222135
10
Frame=12 idx=003682 GeodesicLength=0.3684377382065764 rxn_smarts="[c:1]1([H:7])[c:2]([H:8])[n:3][c:4]([H:9])[n:5][c:6]1[H:10]>>[c:1]1([H:7])[c:2]([H:8])[n:3][c:4]([H:9])[n+:5]([H:10])[c-:6]1"
C       -1.22294182       0.26329793      -0.02174267
C       -0.26941992       1.25725663      -0.00194979
N        1.04857150       0.99887827       0.02223120
C        1.37695665      -0.27045467       0.01562113
N        0.51807835      -1.25674214      -0.26562474
C       -0.81528537      -1.04712896      -0.29669991
H       -2.27267334       0.49707129       0.10002428
H       -0.54688102       2.30564143       0.05834209
H        2.41641228      -0.54532383       0.16323669
H       -0.23281731      -2.20249595       0.22656172
10
Frame=13 idx=003682 GeodesicLength=0.39933137052677503 rxn_smarts="[c:1]1([H:7])[c:2]([H:8])[n:3][c:4]([H:9])[n:5][c:6]1[H:10]>>[c:1]1([H:7])[c:2]([H:8])[n:3][c:4]([H:9])[n+:5]([H:10])[c-:6]1"
C       -1.22015986       0.26210104      -0.02556245
C       -0.26893077       1.25821630      -0.00508500
N        1.04891763       0.99989828       0.02017996
C        1.37532543      -0.27012404       0.01275382
N        0.51929203      -1.25584022      -0.27986903
C       -0.81193204      -1.04605828      -0.31103228
H       -2.26878296       0.49087675       0.11363148
H       -0.54783157       2.30588707       0.05966875
H        2.41205615      -0.54723859       0.17491209
H       -0.23795403      -2.19771831       0.24040266
10
Frame=14 idx=003682 GeodesicLength=0.43028145553579905 rxn_smarts="[c:1]1([H:7])[c:2]([H:8])[n:3][c:4]([H:9])[n:5][c:6]1[H:10]>>[c:1]1([H:7])[c:2]([H:8])[n:3][c:4]([H:9])[n+:5]([H:10])[c-:6]1"
C       -1.21739776       0.26091927      -0.02940932
C       -0.26845100       1.25917878      -0.00816260
N        1.04925410       1.00091227       0.01832470
C        1.37369757      -0.26979483       0.00996103
N        0.52054359      -1.25489680      -0.29382920
C       -0.80858513      -1.04501781      -0.32486109
H       -2.26468092       0.48455984       0.12699281
H       -0.54879710       2.30612674       0.06087778
H        2.40754928      -0.54919059       0.18625519
H       -0.24313263      -2.19279687       0.25385070
10
Frame=15 idx=003682 GeodesicLength=0.46140229348871814 rxn_smarts="[c:1]1([H:7])[c:2]([H:8])[n:3][c:4]([H:9])[n:5][c:6]1[H:10]>>[c:1]1([H:7])[c:2]([H:8])[n:3][c:4]([H:9])[n+:5]([H:10])[c-:6]1"
C       -1.21468167       0.25979899      -0.03367873
C       -0.26798705       1.26021557      -0.01169224
N        1.04961401       1.00196937       0.01628873
C        1.37211905      -0.26945223       0.00704052
N        0.52187298      -1.25394318      -0.30764150
C       -0.80523134      -1.04402820      -0.33843627
H       -2.26026219       0.47799603       0.14084390
H       -0.54981143       2.30639973       0.06231671
H        2.40279051      -0.55123452       0.19799330
H       -0.24842286      -2.18772157       0.26696558
10
Frame=16 idx=003682 GeodesicLength=0.49238307875756737 rxn_smarts="[c:1]1([H:7])[c:2]([H:8])[n:3][c:4]([H:9])[n:5][c:6]1[H:10]>>[c:1]1([H:7])[c:2]([H:8])[n:3][c:4]([H:9])[n+:5]([H:10])[c-:6]1"
C       -1.21190690       0.25873175      -0.03859695
C       -0.26749563       1.26124192      -0.01573159
N        1.04988864       1.00300888       0.01428236
C        1.37039132      -0.26906309       0.00429780
N        0.52318904      -1.25287725      -0.32130886
C       -0.80179224      -1.04303088      -0.35194265
H       -2.25518050       0.47098907       0.15571220
H       -0.55075938       2.30654846       0.06362676
H        2.39755573      -0.55326369       0.21006989
H       -0.25389009      -2.18228517       0.27959104
