21
Frame=0 idx=006372 GeodesicLength=0.0 rxn_smarts="[C:1]([C:2]([C:3]([H:12])([H:13])[H:14])([C:4]([C:5]1([H:17])[C:6]([H:18])([H:19])[C:7]1([H:20])[H:21])([H:15])[H:16])[H:11])([H:8])([H:9])[H:10]>>[C:1]([C:2]([C:3]([H:12])([H:13])[H:14])=[C:4]([H:15])[H:16])([H:8])([H:9])[H:10].[C:5](=[C:6]([H:18])[H:19])([C:7]([H:11])([H:20])[H:21])[H:17]"
C       -1.41315011       0.82772106      -1.46842312
C       -0.94871283      -0.06701884      -0.34979076
C       -2.01815320      -0.57062730       0.58525082
C        0.21291244      -0.90562012      -0.55437934
C        1.32648520      -0.42969258       0.64126176
C        2.71718205      -0.38426031       0.43530345
C        0.99559227       1.01658224       0.85495397
H       -1.98258103       0.25714386      -2.21253365
H       -2.06376762       1.62766943      -1.10638417
H       -0.56823999       1.28388614      -1.98854883
H       -0.22941210       0.90329560       0.51510084
H       -2.67345819       0.23474199       0.92443285
H       -2.64861514      -1.31684027       0.08661670
H       -1.58561834      -1.04884306       1.46704790
H        0.05864905      -1.96683103      -0.37021598
H        0.69856898      -0.76088266      -1.51818900
H        1.05905511      -1.02731118       1.51399244
H        3.41596361      -1.01958864       0.96640045
H        3.12109724       0.23772839      -0.35473680
H        1.37052067       1.68681938       0.08082719
H        1.15568192       1.42192788       1.85201321
21
Frame=1 idx=006372 GeodesicLength=0.12682935563841882 rxn_smarts="[C:1]([C:2]([C:3]([H:12])([H:13])[H:14])([C:4]([C:5]1([H:17])[C:6]([H:18])([H:19])[C:7]1([H:20])[H:21])([H:15])[H:16])[H:11])([H:8])([H:9])[H:10]>>[C:1]([C:2]([C:3]([H:12])([H:13])[H:14])=[C:4]([H:15])[H:16])([H:8])([H:9])[H:10].[C:5](=[C:6]([H:18])[H:19])([C:7]([H:11])([H:20])[H:21])[H:17]"
C       -1.40500503       0.83073032      -1.45971982
C       -0.95928408      -0.07393867      -0.34058409
C       -2.04734487      -0.58152848       0.57053397
C        0.19453000      -0.92225866      -0.54178991
C        1.34228414      -0.42803292       0.64855532
C        2.72944546      -0.36031070       0.42884245
C        1.02396512       1.02109917       0.85561371
H       -1.96693721       0.26952148      -2.21614991
H       -2.05700499       1.63058622      -1.09971290
H       -0.55042577       1.29019308      -1.96047827
H       -0.23101408       0.90009491       0.53101122
H       -2.69806987       0.22557395       0.91451248
H       -2.67965580      -1.31034421       0.04927053
H       -1.63290639      -1.08029998       1.44956287
H        0.03724524      -1.98133392      -0.34746682
H        0.68284410      -0.78994545      -1.50597341
H        1.08806123      -1.01853363       1.52987901
H        3.44070848      -0.98075058       0.96085916
H        3.11728774       0.23323332      -0.39059270
H        1.38215412       1.69253269       0.07495562
H        1.18912247       1.43371205       1.84887148
21
Frame=2 idx=006372 GeodesicLength=0.25346127403391444 rxn_smarts="[C:1]([C:2]([C:3]([H:12])([H:13])[H:14])([C:4]([C:5]1([H:17])[C:6]([H:18])([H:19])[C:7]1([H:20])[H:21])([H:15])[H:16])[H:11])([H:8])([H:9])[H:10]>>[C:1]([C:2]([C:3]([H:12])([H:13])[H:14])=[C:4]([H:15])[H:16])([H:8])([H:9])[H:10].[C:5](=[C:6]([H:18])[H:19])([C:7]([H:11])([H:20])[H:21])[H:17]"
C       -1.39655844       0.83342059      -1.45041358
C       -0.97019947      -0.08092752      -0.33067481
C       -2.07730042      -0.59249171       0.55500894
C        0.17584715      -0.93881129      -0.52816633
C        1.35882136      -0.42578435       0.65579259
C        2.74186537      -0.33635835       0.42119412
C        1.05292968       1.02605688       0.85614658
H       -1.95054892       0.28162350      -2.21913487
H       -2.04990770       1.63337786      -1.09282593
H       -0.53246728       1.29561950      -1.93163248
H       -0.23282123       0.89669492       0.54790254
H       -2.72395960       0.21600758       0.90351198
H       -2.71019498      -1.30359211       0.01074521
H       -1.68190158      -1.11169351       1.43091498
H        0.01553114      -1.99560501      -0.32348533
H        0.66685012      -0.81904933      -1.49255844
H        1.11829096      -1.00924053       1.54545806
H        3.46553526      -0.94223447       0.95316181
H        3.11327357       0.22847983      -0.42570284
H        1.39384697       1.69872390       0.06917242
H        1.22306804       1.44578361       1.84558536
21
Frame=3 idx=006372 GeodesicLength=0.379908694515071 rxn_smarts="[C:1]([C:2]([C:3]([H:12])([H:13])[H:14])([C:4]([C:5]1([H:17])[C:6]([H:18])([H:19])[C:7]1([H:20])[H:21])([H:15])[H:16])[H:11])([H:8])([H:9])[H:10]>>[C:1]([C:2]([C:3]([H:12])([H:13])[H:14])=[C:4]([H:15])[H:16])([H:8])([H:9])[H:10].[C:5](=[C:6]([H:18])[H:19])([C:7]([H:11])([H:20])[H:21])[H:17]"
C       -1.38780352       0.83577631      -1.44046131
C       -0.98149173      -0.08798930      -0.32002248
C       -2.10801751      -0.60350970       0.53861465
C        0.15683689      -0.95528625      -0.51344205
C        1.37609603      -0.42293191       0.66295691
C        2.75442049      -0.31242378       0.41233924
C        1.08250595       1.03147272       0.85655726
H       -1.93337117       0.29342997      -2.22145376
H       -2.04246428       1.63603609      -1.08569730
H       -0.51436151       1.30015159      -1.90196976
H       -0.23484989       0.89307226       0.56582769
H       -2.75116415       0.20603930       0.89133997
H       -2.74015653      -1.29659368      -0.02902099
H       -1.73260583      -1.14298382       1.41100363
H       -0.00652710      -2.00963836      -0.29818232
H        0.65057304      -0.84821547      -1.47786397
H        1.14976685      -0.99943307       1.56069539
H        3.49044362      -0.90408158       0.94326993
H        3.10902409       0.22356615      -0.46016660
H        1.40560081       1.70540861       0.06350495
H        1.25754544       1.45813393       1.84217093
21
Frame=4 idx=006372 GeodesicLength=0.5061689327614647 rxn_smarts="[C:1]([C:2]([C:3]([H:12])([H:13])[H:14])([C:4]([C:5]1([H:17])[C:6]([H:18])([H:19])[C:7]1([H:20])[H:21])([H:15])[H:16])[H:11])([H:8])([H:9])[H:10]>>[C:1]([C:2]([C:3]([H:12])([H:13])[H:14])=[C:4]([H:15])[H:16])([H:8])([H:9])[H:10].[C:5](=[C:6]([H:18])[H:19])([C:7]([H:11])([H:20])[H:21])[H:17]"
C       -1.37873426       0.83777872      -1.42981768
C       -0.99319633      -0.09512737      -0.30858701
C       -2.13948438      -0.61457382       0.52128887
C        0.13746996      -0.97168981      -0.49754914
C        1.39410026      -0.41946190       0.67002971
C        2.76708225      -0.28852614       0.40225729
C        1.11271076       1.03736299       0.85685068
H       -1.91535612       0.30491424      -2.22306809
H       -2.03466583       1.63854849      -1.07830155
H       -0.49610669       1.30377520      -1.87144091
H       -0.23711260       0.88920657       0.58483254
H       -2.77971066       0.19567354       0.87790177
H       -2.76945519      -1.28935664      -0.07008811
H       -1.78500707      -1.17413776       1.38972202
H       -0.02896734      -2.02342485      -0.27146898
H        0.63400536      -0.87745700      -1.46180606
H        1.18250458      -0.98911727       1.57555262
H        3.51542955      -0.86631565       0.93115745
H        3.10448320       0.21857188      -0.49410058
H        1.41742592       1.71260606       0.05798792
H        1.29258462       1.47075051       1.83864724
21
Frame=5 idx=006372 GeodesicLength=0.6322648008228078 rxn_smarts="[C:1]([C:2]([C:3]([H:12])([H:13])[H:14])([C:4]([C:5]1([H:17])[C:6]([H:18])([H:19])[C:7]1([H:20])[H:21])([H:15])[H:16])[H:11])([H:8])([H:9])[H:10]>>[C:1]([C:2]([C:3]([H:12])([H:13])[H:14])=[C:4]([H:15])[H:16])([H:8])([H:9])[H:10].[C:5](=[C:6]([H:18])[H:19])([C:7]([H:11])([H:20])[H:21])[H:17]"
C       -1.36936366       0.83941573      -1.41843649
C       -1.00535303      -0.10234222      -0.29633547
C       -2.17166641      -0.62568128       0.50297170
C        0.11771695      -0.98801802      -0.48043865
C        1.41282260      -0.41535600       0.67699580
C        2.77982017      -0.26469625       0.39094596
C        1.14357332       1.04375352       0.85701267
H       -1.89647433       0.31605661      -2.22393554
H       -2.02653178       1.64089838      -1.07060330
H       -0.47772940       1.30649345      -1.83999966
H       -0.23962867       0.88508463       0.60495177
H       -2.80961334       0.18489457       0.86311571
H       -2.79797271      -1.28190665      -0.11249415
H       -1.83904012      -1.20511651       1.36695929
H       -0.05182666      -2.03694701      -0.24328643
H        0.61714245      -0.90676818      -1.44431851
H        1.21649076      -0.97828010       1.58999358
H        3.54044952      -0.82899799       0.91682079
H        3.09962581       0.21354386      -0.52755249
H        1.42934251       1.72032704       0.05262514
H        1.32821601       1.48364243       1.83500829
21
Frame=6 idx=006372 GeodesicLength=0.7581772043610687 rxn_smarts="[C:1]([C:2]([C:3]([H:12])([H:13])[H:14])([C:4]([C:5]1([H:17])[C:6]([H:18])([H:19])[C:7]1([H:20])[H:21])([H:15])[H:16])[H:11])([H:8])([H:9])[H:10]>>[C:1]([C:2]([C:3]([H:12])([H:13])[H:14])=[C:4]([H:15])[H:16])([H:8])([H:9])[H:10].[C:5](=[C:6]([H:18])[H:19])([C:7]([H:11])([H:20])[H:21])[H:17]"
C       -1.35970991       0.84066765      -1.40626483
C       -1.01800366      -0.10963743      -0.28323294
C       -2.20452727      -0.63682905       0.48359791
C        0.09755408      -1.00426302      -0.46204760
C        1.43224309      -0.41059981       0.68383587
C        2.79259690      -0.24096384       0.37840522
C        1.17511892       1.05066621       0.85703273
H       -1.87669003       0.32682329      -2.22400970
H       -2.01808446       1.64306102      -1.06256530
H       -0.45926431       1.30830772      -1.80758780
H       -0.24240730       0.88069194       0.62621797
H       -2.84087133       0.17370229       0.84687600
H       -2.82558539      -1.27425561      -0.15628259
H       -1.89464925      -1.23587912       1.34258895
H       -0.07514396      -2.05018112      -0.21356123
H        0.59999095      -0.93613514      -1.42531404
H        1.25171101      -0.96692270       1.60397420
H        3.56547861      -0.79216928       0.90025701
H        3.09438656       0.20851984      -0.56061328
H        1.44137790       1.72858801       0.04743604
H        1.36447886       1.49680816       1.83125742
21
Frame=7 idx=006372 GeodesicLength=0.8839266803505688 rxn_smarts="[C:1]([C:2]([C:3]([H:12])([H:13])[H:14])([C:4]([C:5]1([H:17])[C:6]([H:18])([H:19])[C:7]1([H:20])[H:21])([H:15])[H:16])[H:11])([H:8])([H:9])[H:10]>>[C:1]([C:2]([C:3]([H:12])([H:13])[H:14])=[C:4]([H:15])[H:16])([H:8])([H:9])[H:10].[C:5](=[C:6]([H:18])[H:19])([C:7]([H:11])([H:20])[H:21])[H:17]"
C       -1.34980891       0.84152214      -1.39325272
C       -1.03119657      -0.11701228      -0.26925078
C       -2.23800417      -0.64801355       0.46311047
C        0.07695018      -1.02040917      -0.44233929
C        1.45233846      -0.40517141       0.69053427
C        2.80536740      -0.21737315       0.36465290
C        1.20738762       1.05813367       0.85687916
H       -1.85599039       0.33719109      -2.22324215
H       -2.00936702       1.64501443      -1.05414375
H       -0.44076456       1.30923280      -1.77415282
H       -0.24546414       0.87602365       0.64865147
H       -2.87347358       0.16207966       0.82910343
H       -2.85214253      -1.26644062      -0.20146695
H       -1.95172101      -1.26640358       1.31647765
H       -0.09896086      -2.06309825      -0.18225151
H        0.58255917      -0.96552152      -1.40472890
H        1.28812034      -0.95502651       1.61745379
H        3.59044458      -0.75590753       0.88149250
H        3.08873770       0.20351012      -0.59330469
H        1.45357368       1.73739845       0.04240658
H        1.40141462       1.51027155       1.82737133
21
Frame=8 idx=006372 GeodesicLength=1.0095001103890042 rxn_smarts="[C:1]([C:2]([C:3]([H:12])([H:13])[H:14])([C:4]([C:5]1([H:17])[C:6]([H:18])([H:19])[C:7]1([H:20])[H:21])([H:15])[H:16])[H:11])([H:8])([H:9])[H:10]>>[C:1]([C:2]([C:3]([H:12])([H:13])[H:14])=[C:4]([H:15])[H:16])([H:8])([H:9])[H:10].[C:5](=[C:6]([H:18])[H:19])([C:7]([H:11])([H:20])[H:21])[H:17]"
C       -1.33970781       0.84196887      -1.37934350
C       -1.04498166      -0.12446433      -0.25436651
C       -2.27202609      -0.65923811       0.44145074
C        0.05588853      -1.03642610      -0.42127326
C        1.47307737      -0.39905380       0.69706867
C        2.81808609      -0.19397660       0.34971797
C        1.24042201       1.06618418       0.85650579
H       -1.83436780       0.34712946      -2.22157425
H       -2.00044319       1.64672787      -1.04529017
H       -0.42231291       1.30930372      -1.73963153
H       -0.24881840       0.87108062       0.67226700
H       -2.90738873       0.15001774       0.80970340
H       -2.87748262      -1.25850166      -0.24804479
H       -2.01014154      -1.29667506       1.28849036
H       -0.12331558      -2.07565726      -0.14933241
H        0.56486961      -0.99487154      -1.38249230
H        1.32565828      -0.94257131       1.63039086
H        3.61527780      -0.72029400       0.86057688
H        3.08264891       0.19849911      -0.62564492
H        1.46598460       1.74676262       0.03750985
H        1.43907314       1.52405557       1.82331211
21
Frame=9 idx=006372 GeodesicLength=1.1348312776114124 rxn_smarts="[C:1]([C:2]([C:3]([H:12])([H:13])[H:14])([C:4]([C:5]1([H:17])[C:6]([H:18])([H:19])[C:7]1([H:20])[H:21])([H:15])[H:16])[H:11])([H:8])([H:9])[H:10]>>[C:1]([C:2]([C:3]([H:12])([H:13])[H:14])=[C:4]([H:15])[H:16])([H:8])([H:9])[H:10].[C:5](=[C:6]([H:18])[H:19])([C:7]([H:11])([H:20])[H:21])[H:17]"
C       -1.32946125       0.84202180      -1.36446931
C       -1.05937612      -0.13199424      -0.23857637
C       -2.30649505      -0.67052887       0.41855625
C        0.03440606      -1.05225959      -0.39878650
C        1.49441945      -0.39221738       0.70343540
C        2.83068550      -0.17081220       0.33365594
C        1.27428245       1.07487157       0.85580618
H       -1.81182587       0.35666582      -2.21894027
H       -1.99138950       1.64816792      -1.03591749
H       -0.40400587       1.30863415      -1.70393600
H       -0.25246280       0.86583241       0.69710733
H       -2.94245750       0.13749449       0.78851583
H       -2.90147006      -1.25041917      -0.29592536
H       -2.06991345      -1.32694285       1.25846308
H       -0.14822302      -2.08779476      -0.11474640
H        0.54696420      -1.02413448      -1.35852398
H        1.36422217      -0.92948975       1.64277732
H        3.63980022      -0.68544812       0.83756358
H        3.07610343       0.19340927      -0.65765170
H        1.47871140       1.75668457       0.03263941
H        1.47748562       1.53825941       1.81895306
21
Frame=10 idx=006372 GeodesicLength=1.2599644475112144 rxn_smarts="[C:1]([C:2]([C:3]([H:12])([H:13])[H:14])([C:4]([C:5]1([H:17])[C:6]([H:18])([H:19])[C:7]1([H:20])[H:21])([H:15])[H:16])[H:11])([H:8])([H:9])[H:10]>>[C:1]([C:2]([C:3]([H:12])([H:13])[H:14])=[C:4]([H:15])[H:16])([H:8])([H:9])[H:10].[C:5](=[C:6]([H:18])[H:19])([C:7]([H:11])([H:20])[H:21])[H:17]"
C       -1.31911741       0.84167635      -1.34859092
C       -1.07446819      -0.13959439      -0.22185973
C       -2.34130834      -0.68189259       0.39439039
C        0.01241602      -1.06790268      -0.37488748
C        1.51631131      -0.38464338       0.70961912
C        2.84313957      -0.14795189       0.31650674
C        1.30898668       1.08421266       0.85476551
H       -1.78834996       0.36576480      -2.21528837
H       -1.98227095       1.64932423      -1.02600755
H       -0.38589556       1.30722097      -1.66700794
H       -0.25645792       0.86029627       0.72316660
H       -2.97872666       0.12446129       0.76551736
H       -2.92390375      -1.24230371      -0.34515743
H       -2.13069100      -1.35694981       1.22630514
H       -0.17374868      -2.09949145      -0.07852429
H        0.52883189      -1.05324181      -1.33278754
H        1.40373221      -0.91577865       1.65457200
H        3.66401133      -0.65146798       0.81252311
H        3.06904247       0.18823422      -0.68935476
H        1.49177189       1.76715737       0.02779759
H        1.51669505       1.55287018       1.81430247
21
Frame=11 idx=006372 GeodesicLength=1.3848849591857992 rxn_smarts="[C:1]([C:2]([C:3]([H:12])([H:13])[H:14])([C:4]([C:5]1([H:17])[C:6]([H:18])([H:19])[C:7]1([H:20])[H:21])([H:15])[H:16])[H:11])([H:8])([H:9])[H:10]>>[C:1]([C:2]([C:3]([H:12])([H:13])[H:14])=[C:4]([H:15])[H:16])([H:8])([H:9])[H:10].[C:5](=[C:6]([H:18])[H:19])([C:7]([H:11])([H:20])[H:21])[H:17]"
C       -1.30873461       0.84094372      -1.33165379
C       -1.09031917      -0.14726158      -0.20421424
C       -2.37634743      -0.69335297       0.36890888
C       -0.01011477      -1.08332575      -0.34956510
C        1.53869599      -0.37630483       0.71561309
C        2.85539689      -0.12546268       0.29832423
C        1.34457079       1.09424231       0.85331267
H       -1.76394380       0.37443422      -2.21055688
H       -1.97317541       1.65017764      -1.01550579
H       -0.36807250       1.30513338      -1.62876798
H       -0.26084179       0.85446428       0.75045852
H       -3.01612786       0.11087504       0.74061847
H       -2.94460112      -1.23420572      -0.39571481
H       -2.19223327      -1.38667808       1.19191312
H       -0.19994262      -2.11070630      -0.04067717
H        0.51048947      -1.08212659      -1.30523717
H        1.44407078      -0.90139468       1.66575576
H        3.68781412      -0.61848379       0.78553096
H        3.06143903       0.18292102      -0.72074687
H        1.50522549       1.77817266       0.02291694
H        1.55675178       1.56793872       1.80928717
21
Frame=12 idx=006372 GeodesicLength=1.509599569100073 rxn_smarts="[C:1]([C:2]([C:3]([H:12])([H:13])[H:14])([C:4]([C:5]1([H:17])[C:6]([H:18])([H:19])[C:7]1([H:20])[H:21])([H:15])[H:16])[H:11])([H:8])([H:9])[H:10]>>[C:1]([C:2]([C:3]([H:12])([H:13])[H:14])=[C:4]([H:15])[H:16])([H:8])([H:9])[H:10].[C:5](=[C:6]([H:18])[H:19])([C:7]([H:11])([H:20])[H:21])[H:17]"
C       -1.29838975       0.83984863      -1.31359133
C       -1.10699226      -0.15498945      -0.18564186
C       -2.41148253      -0.70493698       0.34207177
C       -0.03321207      -1.09848475      -0.32281229
C        1.56151476      -0.36716776       0.72141270
C        2.86741464      -0.10342101       0.27917802
C        1.38109351       1.10500239       0.85134597
H       -1.73861778       0.38269313      -2.20466774
H       -1.96420514       1.65071465      -1.00434129
H       -0.35064202       1.30245925      -1.58911817
H       -0.26566325       0.84832477       0.77901358
H       -3.05457214       0.09669339       0.71372211
H       -2.96336902      -1.22618670      -0.44754090
H       -2.25431711      -1.41617111       1.15515919
H       -0.22685635      -2.12139405      -0.00124357
H        0.49196930      -1.11068988      -1.27582780
H        1.48510334      -0.88627148       1.67632345
H        3.71109727      -0.58664949       0.75669260
H        3.05327472       0.17737479      -0.75181042
H        1.51914976       1.78971243       0.01788427
H        1.59770211       1.58353921       1.80379172
21
Frame=13 idx=006372 GeodesicLength=1.6340597241407568 rxn_smarts="[C:1]([C:2]([C:3]([H:12])([H:13])[H:14])([C:4]([C:5]1([H:17])[C:6]([H:18])([H:19])[C:7]1([H:20])[H:21])([H:15])[H:16])[H:11])([H:8])([H:9])[H:10]>>[C:1]([C:2]([C:3]([H:12])([H:13])[H:14])=[C:4]([H:15])[H:16])([H:8])([H:9])[H:10].[C:5](=[C:6]([H:18])[H:19])([C:7]([H:11])([H:20])[H:21])[H:17]"
C       -1.28815953       0.83842605      -1.29433196
C       -1.12452851      -0.16277456      -0.16615452
C       -2.44657770      -0.71667468       0.31383781
C       -0.05687466      -1.11333234      -0.29461824
C        1.58470496      -0.35719503       0.72702616
C        2.87914951      -0.08189493       0.25914239
C        1.41860412       1.11654116       0.84873137
H       -1.71239213       0.39058928      -2.19753135
H       -1.95546662       1.65092269      -0.99242747
H       -0.33372291       1.29932408      -1.54795006
H       -0.27094532       0.84185043       0.80886750
H       -3.09388551       0.08187730       0.68472586
H       -2.98004756      -1.21824314      -0.50053343
H       -2.31680746      -1.44562289       1.11587831
H       -0.25454099      -2.13150859       0.03974904
H        0.47331346      -1.13884343      -1.24450973
H        1.52668738      -0.87033542       1.68629428
H        3.73373354      -0.55612307       0.72612271
H        3.04454270       0.17147799      -0.78251591
H        1.53363040       1.80175707       0.01254314
H        1.63958283       1.59978203       1.79765409
21
Frame=14 idx=006372 GeodesicLength=1.7582881996297717 rxn_smarts="[C:1]([C:2]([C:3]([H:12])([H:13])[H:14])([C:4]([C:5]1([H:17])[C:6]([H:18])([H:19])[C:7]1([H:20])[H:21])([H:15])[H:16])[H:11])([H:8])([H:9])[H:10]>>[C:1]([C:2]([C:3]([H:12])([H:13])[H:14])=[C:4]([H:15])[H:16])([H:8])([H:9])[H:10].[C:5](=[C:6]([H:18])[H:19])([C:7]([H:11])([H:20])[H:21])[H:17]"
C       -1.27812237       0.83671323      -1.27381292
C       -1.14302539      -0.17061409      -0.14576632
C       -2.48147939      -0.72859971       0.28418258
C       -0.08117716      -1.12784394      -0.26501845
C        1.60818886      -0.34634902       0.73244938
C        2.89056954      -0.06098320       0.23829115
C        1.45713970       1.12888401       0.84537141
H       -1.68528308       0.39816136      -2.18907005
H       -1.94707223       1.65080723      -0.97970017
H       -0.31742034       1.29580669      -1.50515283
H       -0.27678083       0.83502632       0.84004393
H       -3.13403369       0.06635969       0.65356895
H       -2.99440871      -1.21048726      -0.55466836
H       -2.37926573      -1.47489542       1.07401165
H       -0.28306684      -2.14103084       0.08219481
H        0.45453233      -1.16648016      -1.21127542
H        1.56866427      -0.85351856       1.69566864
H        3.75565588      -0.52706629       0.69395983
H        3.03521862       0.16512357      -0.81282943
H        1.54871999       1.81426792       0.00678198
H        1.68244656       1.61671848       1.79076966
21
Frame=15 idx=006372 GeodesicLength=1.8822504586529107 rxn_smarts="[C:1]([C:2]([C:3]([H:12])([H:13])[H:14])([C:4]([C:5]1([H:17])[C:6]([H:18])([H:19])[C:7]1([H:20])[H:21])([H:15])[H:16])[H:11])([H:8])([H:9])[H:10]>>[C:1]([C:2]([C:3]([H:12])([H:13])[H:14])=[C:4]([H:15])[H:16])([H:8])([H:9])[H:10].[C:5](=[C:6]([H:18])[H:19])([C:7]([H:11])([H:20])[H:21])[H:17]"
C       -1.26836445       0.83476162      -1.25196561
C       -1.16254940      -0.17851221      -0.12451110
C       -2.51602311      -0.74074639       0.25308672
C       -0.10615379      -1.14198735      -0.23404980
C        1.63188800      -0.33459090       0.73768828
C        2.90164755      -0.04077702       0.21671245
C        1.49673744       1.14206265       0.84112218
H       -1.65731700       0.40548203      -2.17919312
H       -1.93914495       1.65037028      -0.96607248
H       -0.30185877       1.29203360      -1.46060010
H       -0.28323807       0.82781257       0.87258060
H       -3.17487320       0.05008521       0.62017242
H       -3.00627675      -1.20295527      -0.60984162
H       -2.44137669      -1.50404170       1.02948106
H       -0.31250355      -2.14994390       0.12597285
H        0.43565911      -1.19349038      -1.17611731
H        1.61085527      -0.83573573       1.70447228
H        3.77676420      -0.49965154       0.66036725
H        3.02531744       0.15818442      -0.84269692
H        1.56448903       1.82719794       0.00042585
H        1.72632170       1.63444205       1.78296612
21
Frame=16 idx=006372 GeodesicLength=2.0059244463753 rxn_smarts="[C:1]([C:2]([C:3]([H:12])([H:13])[H:14])([C:4]([C:5]1([H:17])[C:6]([H:18])([H:19])[C:7]1([H:20])[H:21])([H:15])[H:16])[H:11])([H:8])([H:9])[H:10]>>[C:1]([C:2]([C:3]([H:12])([H:13])[H:14])=[C:4]([H:15])[H:16])([H:8])([H:9])[H:10].[C:5](=[C:6]([H:18])[H:19])([C:7]([H:11])([H:20])[H:21])[H:17]"
C       -1.25898040       0.83263210      -1.22870033
C       -1.18316675      -0.18647751      -0.10242359
C       -2.55004642      -0.75315591       0.22053138
C       -0.13183402      -1.15573056      -0.20175385
C        1.65572806      -0.32187129       0.74275792
C        2.91236553      -0.02137747       0.19449748
C        1.53744288       1.15611367       0.83580398
H       -1.62852440       0.41264578      -2.16778784
H       -1.93181464       1.64962226      -0.95143189
H       -0.28717862       1.28814447      -1.41413961
H       -0.29039179       0.82015290       0.90653683
H       -3.21622979       0.03300587       0.58447588
H       -3.01548434      -1.19564757      -0.66595420
H       -2.50285670      -1.53318731       0.98217245
H       -0.34292424      -2.15824738       0.17093533
H        0.41673747      -1.21974856      -1.13903174
H        1.65308029      -0.81687338       1.71275947
H        3.79696715      -0.47405180       0.62553821
H        3.01486431       0.15048903      -0.87205157
H        1.58100902       1.84048541      -0.00675491
H        1.77123739       1.65307726       1.77402061
