14
Frame=0 idx=007279 GeodesicLength=0.0 rxn_smarts="[O:1]([C@@:2]1([H:9])[C:3]([H:10])([H:11])[N:4]([H:12])[C:5]([H:13])([H:14])[C:6]1=[O:7])[H:8]>>[H:11][H:13].[O:1]([C@@:2]1([H:9])[C+:3]([H:10])[N:4]([H:12])[C:5]([H:14])=[C:6]1[O-:7])[H:8]"
O        2.16795733      -0.06048869       0.17068447
C        0.85612881       0.06372945       0.60106381
C        0.03466354       1.18989521       0.01232604
N       -1.25023703       0.75504170       0.13012960
C       -1.29519528      -0.58655631      -0.11550996
C       -0.01390778      -1.14943432       0.25366799
O        0.39303761      -2.29245275       0.26935803
H        2.32058904      -1.00673863       0.04805493
H        0.79961531       0.18106557       1.69823273
H        0.25453691       2.23669109       0.18122949
H        0.19556128       0.62331998      -1.35351879
H       -2.02642207       1.35180592      -0.10018049
H       -0.21151550      -0.19234545      -1.53265004
H       -2.22481215      -1.11353278      -0.26288780
14
Frame=1 idx=007279 GeodesicLength=0.09666982574779813 rxn_smarts="[O:1]([C@@:2]1([H:9])[C:3]([H:10])([H:11])[N:4]([H:12])[C:5]([H:13])([H:14])[C:6]1=[O:7])[H:8]>>[H:11][H:13].[O:1]([C@@:2]1([H:9])[C+:3]([H:10])[N:4]([H:12])[C:5]([H:14])=[C:6]1[O-:7])[H:8]"
O        2.17196522      -0.06281030       0.17742973
C        0.85947180       0.06386593       0.60579595
C        0.04002713       1.19032367       0.01531075
N       -1.24616653       0.75536138       0.14160095
C       -1.29255870      -0.58761408      -0.11546037
C       -0.01184902      -1.14972662       0.26149876
O        0.39639673      -2.29209001       0.28036847
H        2.32522720      -1.01009619       0.06371785
H        0.80315828       0.18140678       1.70311426
H        0.25968423       2.23574255       0.19313271
H        0.17615125       0.63259365      -1.38017969
H       -2.01605275       1.35367013      -0.10650750
H       -0.24972387      -0.18867132      -1.56494139
H       -2.21573098      -1.12195558      -0.27488048
14
Frame=2 idx=007279 GeodesicLength=0.19325543746180182 rxn_smarts="[O:1]([C@@:2]1([H:9])[C:3]([H:10])([H:11])[N:4]([H:12])[C:5]([H:13])([H:14])[C:6]1=[O:7])[H:8]>>[H:11][H:13].[O:1]([C@@:2]1([H:9])[C+:3]([H:10])[N:4]([H:12])[C:5]([H:14])=[C:6]1[O-:7])[H:8]"
O        2.17625251      -0.06520443       0.18523141
C        0.86289179       0.06390340       0.61095957
C        0.04583033       1.19052553       0.01789004
N       -1.24170275       0.75557515       0.15237003
C       -1.28949847      -0.58872610      -0.11617211
C       -0.00955900      -1.15008071       0.26919204
O        0.40007344      -2.29175779       0.29069545
H        2.33025173      -1.01345060       0.08068834
H        0.80608768       0.18173949       1.70836803
H        0.26529728       2.23455280       0.20427415
H        0.15595895       0.64212623      -1.40750563
H       -2.00536140       1.35545854      -0.11191994
H       -0.29026581      -0.18420813      -1.59795759
H       -2.20625628      -1.13045337      -0.28611378
14
Frame=3 idx=007279 GeodesicLength=0.2898119004960021 rxn_smarts="[O:1]([C@@:2]1([H:9])[C:3]([H:10])([H:11])[N:4]([H:12])[C:5]([H:13])([H:14])[C:6]1=[O:7])[H:8]>>[H:11][H:13].[O:1]([C@@:2]1([H:9])[C+:3]([H:10])[N:4]([H:12])[C:5]([H:14])=[C:6]1[O-:7])[H:8]"
O        2.18085204      -0.06768407       0.19415344
C        0.86641643       0.06383313       0.61658186
C        0.05210899       1.19047772       0.02006656
N       -1.23681607       0.75566186       0.16246447
C       -1.28596085      -0.58990284      -0.11767357
C       -0.00701523      -1.15051111       0.27679334
O        0.40410182      -2.29147081       0.30034826
H        2.33567059      -1.01680956       0.09900478
H        0.80842103       0.18206805       1.71401938
H        0.27140339       2.23311375       0.21462983
H        0.13490545       0.65192905      -1.43552276
H       -1.99433100       1.35717536      -0.11654021
H       -0.33338563      -0.17882402      -1.63168606
H       -2.19637094      -1.13905651      -0.29663933
14
Frame=4 idx=007279 GeodesicLength=0.3863979183918901 rxn_smarts="[O:1]([C@@:2]1([H:9])[C:3]([H:10])([H:11])[N:4]([H:12])[C:5]([H:13])([H:14])[C:6]1=[O:7])[H:8]>>[H:11][H:13].[O:1]([C@@:2]1([H:9])[C+:3]([H:10])[N:4]([H:12])[C:5]([H:14])=[C:6]1[O-:7])[H:8]"
O        2.18580080      -0.07026599       0.20426394
C        0.87007526       0.06364590       0.62269184
C        0.05890491       1.19015309       0.02183674
N       -1.23147038       0.75559625       0.17189767
C       -1.28188162      -0.59115899      -0.12000991
C       -0.00419040      -1.15103513       0.28435060
O        0.40852039      -2.29124371       0.30935566
H        2.34149453      -1.02018694       0.11871979
H        0.81017211       0.18240203       1.72009320
H        0.27803353       2.23141503       0.22417230
H        0.11289741       0.66201345      -1.46426137
H       -1.98293888       1.35882126      -0.12048390
H       -0.37937707      -0.17236012      -1.66609381
H       -2.18604061      -1.14779612      -0.30653275
14
Frame=5 idx=007279 GeodesicLength=0.48303688349901247 rxn_smarts="[O:1]([C@@:2]1([H:9])[C:3]([H:10])([H:11])[N:4]([H:12])[C:5]([H:13])([H:14])[C:6]1=[O:7])[H:8]>>[H:11][H:13].[O:1]([C@@:2]1([H:9])[C+:3]([H:10])[N:4]([H:12])[C:5]([H:14])=[C:6]1[O-:7])[H:8]"
O        2.19113138      -0.07296984       0.21563576
C        0.87389351       0.06333395       0.62931017
C        0.06625525       1.18952411       0.02319292
N       -1.22563068       0.75534857       0.18066513
C       -1.27718465      -0.59250984      -0.12325388
C       -0.00106393      -1.15166816       0.29191546
O        0.41336255      -2.29109128       0.31776998
H        2.34772247      -1.02359783       0.13986932
H        0.81135367       0.18275327       1.72660540
H        0.28521360       2.22944413       0.23286785
H        0.08983947       0.67240092      -1.49374996
H       -1.97115593       1.36039422      -0.12384549
H       -0.42851915      -0.16465902      -1.70109862
H       -2.17521755      -1.15670320      -0.31588406
14
Frame=6 idx=007279 GeodesicLength=0.5798015607802981 rxn_smarts="[O:1]([C@@:2]1([H:9])[C:3]([H:10])([H:11])[N:4]([H:12])[C:5]([H:13])([H:14])[C:6]1=[O:7])[H:8]>>[H:11][H:13].[O:1]([C@@:2]1([H:9])[C+:3]([H:10])[N:4]([H:12])[C:5]([H:14])=[C:6]1[O-:7])[H:8]"
O        2.19688567      -0.07581944       0.22835695
C        0.87790645       0.06288748       0.63646869
C        0.07421357       1.18855610       0.02411174
N       -1.21924843       0.75488460       0.18876056
C       -1.27178329      -0.59397685      -0.12748040
C        0.00239741      -1.15243179       0.29954708
O        0.41867482      -2.29103034       0.32565389
H        2.35436648      -1.02706427       0.16253048
H        0.81197040       0.18314844       1.73357801
H        0.29298365       2.22718537       0.24066787
H        0.06561259       0.68309008      -1.52402429
H       -1.95895635       1.36188471      -0.12670900
H       -0.48119860      -0.15551335      -1.73661993
H       -2.16382436      -1.16580074      -0.32484165
14
Frame=7 idx=007279 GeodesicLength=0.6767680212429127 rxn_smarts="[O:1]([C@@:2]1([H:9])[C:3]([H:10])([H:11])[N:4]([H:12])[C:5]([H:13])([H:14])[C:6]1=[O:7])[H:8]>>[H:11][H:13].[O:1]([C@@:2]1([H:9])[C+:3]([H:10])[N:4]([H:12])[C:5]([H:14])=[C:6]1[O-:7])[H:8]"
O        2.20309816      -0.07884288       0.24250806
C        0.88214519       0.06229786       0.64419592
C        0.08282875       1.18721459       0.02457335
N       -1.21227911       0.75416074       0.19615685
C       -1.26557401      -0.59558625      -0.13278789
C        0.00621684      -1.15334737       0.30732622
O        0.42449556      -2.29107699       0.33311080
H        2.36142403      -1.03061162       0.18675727
H        0.81203434       0.18362169       1.74102813
H        0.30137620       2.22462048       0.24752452
H        0.04010737       0.69408312      -1.55512203
H       -1.94630429       1.36327802      -0.12915024
H       -0.53780919      -0.14469489      -1.77253286
H       -2.15175985      -1.17511649      -0.33358812
14
Frame=8 idx=007279 GeodesicLength=0.7739797034079836 rxn_smarts="[O:1]([C@@:2]1([H:9])[C:3]([H:10])([H:11])[N:4]([H:12])[C:5]([H:13])([H:14])[C:6]1=[O:7])[H:8]>>[H:11][H:13].[O:1]([C@@:2]1([H:9])[C+:3]([H:10])[N:4]([H:12])[C:5]([H:14])=[C:6]1[O-:7])[H:8]"
O        2.20981170      -0.08206791       0.25818742
C        0.88664612       0.06155336       0.65251245
C        0.09216364       1.18545874       0.02453615
N       -1.20466182       0.75312182       0.20279855
C       -1.25842785      -0.59737367      -0.13934515
C        0.01042715      -1.15443999       0.31531188
O        0.43086472      -2.29124977       0.34027141
H        2.36889939      -1.03427325       0.21264869
H        0.81154177       0.18421033       1.74895741
H        0.31043507       2.22172267       0.25338100
H        0.01319258       0.70539150      -1.58709758
H       -1.93316729       1.36455898      -0.13124007
H       -0.59880830      -0.13191612      -1.80862278
H       -2.13891689      -1.18469670      -0.34229938
14
Frame=9 idx=007279 GeodesicLength=0.8706473373409278 rxn_smarts="[O:1]([C@@:2]1([H:9])[C:3]([H:10])([H:11])[N:4]([H:12])[C:5]([H:13])([H:14])[C:6]1=[O:7])[H:8]>>[H:11][H:13].[O:1]([C@@:2]1([H:9])[C+:3]([H:10])[N:4]([H:12])[C:5]([H:14])=[C:6]1[O-:7])[H:8]"
O        2.21707435      -0.08557987       0.27562512
C        0.89143550       0.06064522       0.66137798
C        0.10232792       1.18315543       0.02366897
N       -1.19627103       0.75165140       0.20866471
C       -1.25005730      -0.59936821      -0.14749829
C        0.01506277      -1.15574821       0.32345054
O        0.43779524      -2.29160417       0.34742168
H        2.37678713      -1.03814169       0.24048060
H        0.81037010       0.18503732       1.75725434
H        0.32027906       2.21837977       0.25784767
H       -0.01561773       0.71713297      -1.62001420
H       -1.91957513       1.36560676      -0.13264355
H       -0.66462156      -0.11668827      -1.84414606
H       -2.12498932      -1.19447845      -0.35148950
14
Frame=10 idx=007279 GeodesicLength=0.9674353783022774 rxn_smarts="[O:1]([C@@:2]1([H:9])[C:3]([H:10])([H:11])[N:4]([H:12])[C:5]([H:13])([H:14])[C:6]1=[O:7])[H:8]>>[H:11][H:13].[O:1]([C@@:2]1([H:9])[C+:3]([H:10])[N:4]([H:12])[C:5]([H:14])=[C:6]1[O-:7])[H:8]"
O        2.22487569      -0.08937995       0.29471812
C        0.89654118       0.05957123       0.67082350
C        0.11333354       1.18033909       0.02216849
N       -1.18711808       0.74973115       0.21367777
C       -1.24041701      -0.60159683      -0.15727326
C        0.02011032      -1.15727777       0.33193836
O        0.44528510      -2.29212766       0.35474066
H        2.38503178      -1.04221902       0.27012689
H        0.80865929       0.18610617       1.76597234
H        0.33086775       2.21464005       0.26114010
H       -0.04630076       0.72926627      -1.65389487
H       -1.90544451       1.36644343      -0.13371909
H       -0.73551023      -0.09895487      -1.87907694
H       -2.10991407      -1.20454128      -0.36134206
14
Frame=11 idx=007279 GeodesicLength=1.0643001727164325 rxn_smarts="[O:1]([C@@:2]1([H:9])[C:3]([H:10])([H:11])[N:4]([H:12])[C:5]([H:13])([H:14])[C:6]1=[O:7])[H:8]>>[H:11][H:13].[O:1]([C@@:2]1([H:9])[C+:3]([H:10])[N:4]([H:12])[C:5]([H:14])=[C:6]1[O-:7])[H:8]"
O        2.23321434      -0.09351193       0.31551105
C        0.90197562       0.05833067       0.68083691
C        0.12522380       1.17697236       0.01998431
N       -1.17715106       0.74729960       0.21777368
C       -1.22933044      -0.60407796      -0.16885458
C        0.02556263      -1.15904251       0.34082544
O        0.45330840      -2.29282951       0.36248413
H        2.39357933      -1.04654613       0.30160926
H        0.80641452       0.18746775       1.77507366
H        0.34222460       2.21048175       0.26319432
H       -0.07910231       0.74186165      -1.68877696
H       -1.89074891       1.36703094      -0.13449695
H       -0.81167735      -0.07854527      -1.91295257
H       -2.09349317      -1.21489139      -0.37221170
14
Frame=12 idx=007279 GeodesicLength=1.161259639177865 rxn_smarts="[O:1]([C@@:2]1([H:9])[C:3]([H:10])([H:11])[N:4]([H:12])[C:5]([H:13])([H:14])[C:6]1=[O:7])[H:8]>>[H:11][H:13].[O:1]([C@@:2]1([H:9])[C+:3]([H:10])[N:4]([H:12])[C:5]([H:14])=[C:6]1[O-:7])[H:8]"
O        2.24209930      -0.09801782       0.33806097
C        0.90776826       0.05691817       0.69139896
C        0.13807911       1.17300799       0.01704248
N       -1.16630153       0.74427674       0.22085165
C       -1.21658345      -0.60684334      -0.18248741
C        0.03142515      -1.16106087       0.35016632
O        0.46184197      -2.29373258       0.37096923
H        2.40238454      -1.05117718       0.33503438
H        0.80363772       0.18919325       1.78450311
H        0.35439850       2.20586916       0.26393554
H       -0.11435625       0.75501225      -1.72470231
H       -1.87544496       1.36731746      -0.13502661
H       -0.89347698      -0.05523592      -1.94516619
H       -2.07547138      -1.22552730      -0.38458013
14
Frame=13 idx=007279 GeodesicLength=1.2577926934999806 rxn_smarts="[O:1]([C@@:2]1([H:9])[C:3]([H:10])([H:11])[N:4]([H:12])[C:5]([H:13])([H:14])[C:6]1=[O:7])[H:8]>>[H:11][H:13].[O:1]([C@@:2]1([H:9])[C+:3]([H:10])[N:4]([H:12])[C:5]([H:14])=[C:6]1[O-:7])[H:8]"
O        2.25151558      -0.10298801       0.36242552
C        0.91392641       0.05533598       0.70242245
C        0.15198823       1.16837944       0.01313626
N       -1.15448621       0.74055687       0.22276889
C       -1.20183391      -0.60988610      -0.19860634
C        0.03766165      -1.16333869       0.35992059
O        0.47076345      -2.29488348       0.38064345
H        2.41135101      -1.05620731       0.37051727
H        0.80027873       0.19139198       1.79412010
H        0.36744618       2.20074814       0.26316777
H       -0.15265101       0.76901834      -1.76164035
H       -1.85955222       1.36720711      -0.13519893
H       -0.98090638      -0.02891886      -1.97464036
H       -2.05550149      -1.23641541      -0.39903632
14
Frame=14 idx=007279 GeodesicLength=1.354455065588496 rxn_smarts="[O:1]([C@@:2]1([H:9])[C:3]([H:10])([H:11])[N:4]([H:12])[C:5]([H:13])([H:14])[C:6]1=[O:7])[H:8]>>[H:11][H:13].[O:1]([C@@:2]1([H:9])[C+:3]([H:10])[N:4]([H:12])[C:5]([H:14])=[C:6]1[O-:7])[H:8]"
O        2.26143670      -0.10842433       0.38856839
C        0.92045927       0.05358698       0.71391111
C        0.16699830       1.16311178       0.00837358
N       -1.14167644       0.73612805       0.22341502
C       -1.18496500      -0.61321279      -0.21727187
C        0.04425326      -1.16586527       0.37014217
O        0.48001288      -2.29626542       0.39173447
H        2.42040170      -1.06164123       0.40800421
H        0.79638797       0.19406280       1.80391581
H        0.38137423       2.19514592       0.26103600
H       -0.19419557       0.78395063      -1.79961190
H       -1.84297007       1.36671009      -0.13531324
H       -1.07412738       0.00026149      -2.00090763
H       -2.03338985      -1.24754870      -0.41599612
14
Frame=15 idx=007279 GeodesicLength=1.4511662682497655 rxn_smarts="[O:1]([C@@:2]1([H:9])[C:3]([H:10])([H:11])[N:4]([H:12])[C:5]([H:13])([H:14])[C:6]1=[O:7])[H:8]>>[H:11][H:13].[O:1]([C@@:2]1([H:9])[C+:3]([H:10])[N:4]([H:12])[C:5]([H:14])=[C:6]1[O-:7])[H:8]"
O        2.27181231      -0.11436896       0.41650292
C        0.92735103       0.05167976       0.72580138
C        0.18317887       1.15720971       0.00270475
N       -1.12782631       0.73096393       0.22264521
C       -1.16574236      -0.61678053      -0.23870680
C        0.05114095      -1.16860779       0.38074167
O        0.48943530      -2.29788006       0.40452661
H        2.42941071      -1.06752415       0.44747688
H        0.79192984       0.19723478       1.81378970
H        0.39622113       2.18906451       0.25754100
H       -0.23948931       0.80011401      -1.83853969
H       -1.82565158       1.36580084      -0.13549731
H       -1.17290863       0.03195102      -2.02303531
H       -2.00886194      -1.25885708      -0.43595100
14
Frame=16 idx=007279 GeodesicLength=1.5477905906702651 rxn_smarts="[O:1]([C@@:2]1([H:9])[C:3]([H:10])([H:11])[N:4]([H:12])[C:5]([H:13])([H:14])[C:6]1=[O:7])[H:8]>>[H:11][H:13].[O:1]([C@@:2]1([H:9])[C+:3]([H:10])[N:4]([H:12])[C:5]([H:14])=[C:6]1[O-:7])[H:8]"
O        2.28258023      -0.12085896       0.44626808
C        0.93457218       0.04962622       0.73801467
C        0.20062154       1.15070509      -0.00392611
N       -1.11288175       0.72507389       0.22026165
C       -1.14390895      -0.62049907      -0.26317676
C        0.05825847      -1.17151228       0.39153240
O        0.49883391      -2.29972075       0.41921148
H        2.43823260      -1.07390029       0.48894119
H        0.78681580       0.20090650       1.82362055
H        0.41204841       2.18252407       0.25270375
H       -0.28909830       0.81788967      -1.87825690
H       -1.80754412       1.36448765      -0.13591880
H       -1.27688933       0.06550441      -2.03991582
H       -1.98164069      -1.27022614      -0.45935939
