11
Frame=0 idx=000190 GeodesicLength=0.0 rxn_smarts="[C:1]([c:2]1[n:3][c:4]([H:10])[c:5]([H:11])[o:6]1)([H:7])([H:8])[H:9]>>[C:1](=[C:2]1[N:3]([H:7])[C:4]([H:10])=[C:5]([H:11])[O:6]1)([H:8])[H:9]"
C        1.93389951       0.01535595       0.06781600
C        0.52303783      -0.21552016      -0.09477790
N       -0.17416092       0.58562343       0.67662975
C       -1.51794904       0.42850051       0.37066458
C       -1.56677893      -0.56492081      -0.53311332
O       -0.29102440      -0.97764515      -0.83092580
H        0.91546760       0.93804948       1.07293785
H        2.29165437       0.76216303      -0.64179519
H        2.57757630      -0.86031679       0.08824751
H       -2.31650251       0.97584076       0.83962937
H       -2.37521976      -1.08713026      -1.01531285
11
Frame=1 idx=000190 GeodesicLength=0.05585186162537018 rxn_smarts="[C:1]([c:2]1[n:3][c:4]([H:10])[c:5]([H:11])[o:6]1)([H:7])([H:8])[H:9]>>[C:1](=[C:2]1[N:3]([H:7])[C:4]([H:10])=[C:5]([H:11])[O:6]1)([H:8])[H:9]"
C        1.93096152       0.01028538       0.06995653
C        0.52126589      -0.17589889      -0.13658653
N       -0.17627261       0.61234688       0.65155371
C       -1.52206610       0.42037445       0.37535560
C       -1.56949303      -0.58311460      -0.51651714
O       -0.29205421      -0.97645172      -0.83263442
H        0.92902835       0.92967034       1.08625093
H        2.32438018       0.77461865      -0.60047572
H        2.55173692      -0.88176941       0.06914634
H       -2.32087031       0.97762585       0.83214892
H       -2.37661660      -1.10768694      -0.99819821
11
Frame=2 idx=000190 GeodesicLength=0.1114846506641646 rxn_smarts="[C:1]([c:2]1[n:3][c:4]([H:10])[c:5]([H:11])[o:6]1)([H:7])([H:8])[H:9]>>[C:1](=[C:2]1[N:3]([H:7])[C:4]([H:10])=[C:5]([H:11])[O:6]1)([H:8])[H:9]"
C        1.92623068       0.00584729       0.06985173
C        0.51928798      -0.13969957      -0.17415663
N       -0.17852561       0.63665118       0.62944458
C       -1.52482818       0.41384126       0.37931664
C       -1.57025822      -0.59985555      -0.50025630
O       -0.29154625      -0.97875874      -0.82833072
H        0.94167718       0.91801240       1.10069177
H        2.35059034       0.78602148      -0.56168177
H        2.52766119      -0.89882072       0.04741774
H       -2.32446840       0.98140116       0.82185895
H       -2.37582071      -1.12464018      -0.98415599
11
Frame=3 idx=000190 GeodesicLength=0.1670256939561613 rxn_smarts="[C:1]([c:2]1[n:3][c:4]([H:10])[c:5]([H:11])[o:6]1)([H:7])([H:8])[H:9]>>[C:1](=[C:2]1[N:3]([H:7])[C:4]([H:10])=[C:5]([H:11])[O:6]1)([H:8])[H:9]"
C        1.92060159       0.00175203       0.06865944
C        0.51732565      -0.10907430      -0.20564083
N       -0.18083786       0.65772232       0.61088158
C       -1.52662303       0.41175733       0.37909057
C       -1.56984353      -0.61051692      -0.48984709
O       -0.28994278      -0.98182421      -0.82162584
H        0.95368000       0.90370802       1.11612563
H        2.37057671       0.79618006      -0.52557688
H        2.50645538      -0.91201668       0.02422781
H       -2.32759394       0.98545523       0.81135445
H       -2.37379818      -1.14314288      -0.96764884
11
Frame=4 idx=000190 GeodesicLength=0.22249381056991266 rxn_smarts="[C:1]([c:2]1[n:3][c:4]([H:10])[c:5]([H:11])[o:6]1)([H:7])([H:8])[H:9]>>[C:1](=[C:2]1[N:3]([H:7])[C:4]([H:10])=[C:5]([H:11])[O:6]1)([H:8])[H:9]"
C        1.91468264      -0.00175323       0.06666627
C        0.51542630      -0.08376627      -0.23157947
N       -0.18311873       0.67583558       0.59547763
C       -1.52795822       0.41231280       0.37631063
C       -1.56893035      -0.61825040      -0.48212620
O       -0.28773675      -0.98597125      -0.81262146
H        0.96547961       0.88816479       1.13168721
H        2.38529979       0.80536932      -0.49269053
H        2.48834634      -0.92165484       0.00033000
H       -2.33037954       0.99018202       0.80041359
H       -2.37111109      -1.16046853      -0.95186767
11
Frame=5 idx=000190 GeodesicLength=0.27792854903699793 rxn_smarts="[C:1]([c:2]1[n:3][c:4]([H:10])[c:5]([H:11])[o:6]1)([H:7])([H:8])[H:9]>>[C:1](=[C:2]1[N:3]([H:7])[C:4]([H:10])=[C:5]([H:11])[O:6]1)([H:8])[H:9]"
C        1.90865608      -0.00484543       0.06435897
C        0.51361306      -0.06207450      -0.25386894
N       -0.18538507       0.69252772       0.58153933
C       -1.52908507       0.41426805       0.37211773
C       -1.56776692      -0.62425733      -0.47600096
O       -0.28516756      -0.99031163      -0.80261164
H        0.97713808       0.87259209       1.14656820
H        2.39684114       0.81313684      -0.46240363
H        2.47222450      -0.92898895      -0.02288019
H       -2.33305003       0.99439411       0.79032538
H       -2.36801820      -1.17644098      -0.93714424
11
Frame=6 idx=000190 GeodesicLength=0.33335980604892984 rxn_smarts="[C:1]([c:2]1[n:3][c:4]([H:10])[c:5]([H:11])[o:6]1)([H:7])([H:8])[H:9]>>[C:1](=[C:2]1[N:3]([H:7])[C:4]([H:10])=[C:5]([H:11])[O:6]1)([H:8])[H:9]"
C        1.90257117      -0.00773102       0.06184325
C        0.51188659      -0.04250375      -0.27385440
N       -0.18763870       0.70771801       0.56922853
C       -1.53012241       0.41721140       0.36691663
C       -1.56645874      -0.62878992      -0.47129315
O       -0.28241802      -0.99322801      -0.79376837
H        0.98864610       0.85533609       1.16201269
H        2.40626439       0.82033081      -0.43272906
H        2.45747920      -0.93461275      -0.04679022
H       -2.33557900       1.00005164       0.77857794
H       -2.36463057      -1.19378250      -0.92014383
11
Frame=7 idx=000190 GeodesicLength=0.38880757725478005 rxn_smarts="[C:1]([c:2]1[n:3][c:4]([H:10])[c:5]([H:11])[o:6]1)([H:7])([H:8])[H:9]>>[C:1](=[C:2]1[N:3]([H:7])[C:4]([H:10])=[C:5]([H:11])[O:6]1)([H:8])[H:9]"
C        1.89642675      -0.01050261       0.05917144
C        0.51024838      -0.02415884      -0.29230227
N       -0.18988586       0.72169881       0.55831194
C       -1.53113496       0.42096460       0.36085734
C       -1.56505508      -0.63205418      -0.46784258
O       -0.27958297      -0.99428860      -0.78681527
H        0.99994744       0.83580447       1.17830804
H        2.41421100       0.82710721      -0.40277983
H        2.44370758      -0.93880842      -0.07179827
H       -2.33802295       1.00751016       0.76452998
H       -2.36085931      -1.21327260      -0.89964052
11
Frame=8 idx=000190 GeodesicLength=0.4442857866535824 rxn_smarts="[C:1]([c:2]1[n:3][c:4]([H:10])[c:5]([H:11])[o:6]1)([H:7])([H:8])[H:9]>>[C:1](=[C:2]1[N:3]([H:7])[C:4]([H:10])=[C:5]([H:11])[O:6]1)([H:8])[H:9]"
C        1.89022761      -0.01312003       0.05632547
C        0.50866427      -0.00667177      -0.30950100
N       -0.19214562       0.73464672       0.54867739
C       -1.53216754       0.42527327       0.35421157
C       -1.56357615      -0.63466988      -0.46493829
O       -0.27671001      -0.99379941      -0.78150849
H        1.01104319       0.81388690       1.19539858
H        2.42087750       0.83349338      -0.37244542
H        2.43077602      -0.94155674      -0.09806958
H       -2.34043235       1.01681876       0.74787599
H       -2.35655691      -1.23430121      -0.87602621
11
Frame=9 idx=000190 GeodesicLength=0.4997719229395014 rxn_smarts="[C:1]([c:2]1[n:3][c:4]([H:10])[c:5]([H:11])[o:6]1)([H:7])([H:8])[H:9]>>[C:1](=[C:2]1[N:3]([H:7])[C:4]([H:10])=[C:5]([H:11])[O:6]1)([H:8])[H:9]"
C        1.88398510      -0.01554967       0.05343117
C        0.50714567       0.00982988      -0.32561557
N       -0.19445477       0.74732727       0.53934483
C       -1.53321778       0.42984656       0.34721441
C       -1.56208295      -0.63659336      -0.46278505
O       -0.27379845      -0.99284776      -0.77656425
H        1.02199593       0.79137275       1.21205778
H        2.42652720       0.83884646      -0.34272837
H        2.41851530      -0.94316430      -0.12391161
H       -2.34287818       1.02593017       0.73121731
H       -2.35173708      -1.25499801      -0.85166065
11
Frame=10 idx=000190 GeodesicLength=0.5552829070967936 rxn_smarts="[C:1]([c:2]1[n:3][c:4]([H:10])[c:5]([H:11])[o:6]1)([H:7])([H:8])[H:9]>>[C:1](=[C:2]1[N:3]([H:7])[C:4]([H:10])=[C:5]([H:11])[O:6]1)([H:8])[H:9]"
C        1.87770067      -0.01774960       0.05042844
C        0.50564847       0.02557398      -0.34081032
N       -0.19681998       0.75966662       0.53045874
C       -1.53429691       0.43451794       0.34010102
C       -1.56054326      -0.63849000      -0.46050499
O       -0.27086475      -0.99141458      -0.77204794
H        1.03285668       0.76787442       1.22853069
H        2.43121347       0.84341682      -0.31344301
H        2.40687132      -0.94359101      -0.14974560
H       -2.34536200       1.03539169       0.71371349
H       -2.34640372      -1.27519627      -0.82668052
11
Frame=11 idx=000190 GeodesicLength=0.6108371916624649 rxn_smarts="[C:1]([c:2]1[n:3][c:4]([H:10])[c:5]([H:11])[o:6]1)([H:7])([H:8])[H:9]>>[C:1](=[C:2]1[N:3]([H:7])[C:4]([H:10])=[C:5]([H:11])[O:6]1)([H:8])[H:9]"
C        1.87134802      -0.01978906       0.04730457
C        0.50416567       0.04093325      -0.35531568
N       -0.19924978       0.77155686       0.52220764
C       -1.53544147       0.43946635       0.33266559
C       -1.55898648      -0.64013104      -0.45836834
O       -0.26796108      -0.98906787      -0.76856108
H        1.04353297       0.74245544       1.24526166
H        2.43505059       0.84742880      -0.28384619
H        2.39575803      -0.94278480      -0.17628843
H       -2.34786830       1.04584794       0.69443065
H       -2.34034818      -1.29591585      -0.79949040
11
Frame=12 idx=000190 GeodesicLength=0.6664476790684537 rxn_smarts="[C:1]([c:2]1[n:3][c:4]([H:10])[c:5]([H:11])[o:6]1)([H:7])([H:8])[H:9]>>[C:1](=[C:2]1[N:3]([H:7])[C:4]([H:10])=[C:5]([H:11])[O:6]1)([H:8])[H:9]"
C        1.86490363      -0.02167629       0.04407460
C        0.50268364       0.05609060      -0.36925058
N       -0.20176537       0.78306772       0.51455634
C       -1.53667372       0.44470247       0.32488555
C       -1.55741235      -0.64159742      -0.45626887
O       -0.26510744      -0.98575968      -0.76620831
H        1.05398031       0.71490903       1.26223630
H        2.43811630       0.85084488      -0.25379522
H        2.38508706      -0.94072156      -0.20361921
H       -2.35040453       1.05730001       0.67321675
H       -2.33340752      -1.31715975      -0.76982736
11
Frame=13 idx=000190 GeodesicLength=0.7221333237971814 rxn_smarts="[C:1]([c:2]1[n:3][c:4]([H:10])[c:5]([H:11])[o:6]1)([H:7])([H:8])[H:9]>>[C:1](=[C:2]1[N:3]([H:7])[C:4]([H:10])=[C:5]([H:11])[O:6]1)([H:8])[H:9]"
C        1.85834253      -0.02342416       0.04069684
C        0.50116406       0.07118458      -0.38266280
N       -0.20438170       0.79413652       0.50764005
C       -1.53802478       0.45029057       0.31671269
C       -1.55582804      -0.64303654      -0.45394272
O       -0.26235470      -0.98143651      -0.76509000
H        1.06415756       0.68472624       1.27954308
H        2.44036467       0.85374367      -0.22298278
H        2.37486382      -0.93722630      -0.23214146
H       -2.35293976       1.07006476       0.64947571
H       -2.32536367      -1.33902283      -0.73724860
11
Frame=14 idx=000190 GeodesicLength=0.7778905520264188 rxn_smarts="[C:1]([c:2]1[n:3][c:4]([H:10])[c:5]([H:11])[o:6]1)([H:7])([H:8])[H:9]>>[C:1](=[C:2]1[N:3]([H:7])[C:4]([H:10])=[C:5]([H:11])[O:6]1)([H:8])[H:9]"
C        1.85165784      -0.02500576       0.03720554
C        0.49959527       0.08617388      -0.39558527
N       -0.20712222       0.80498206       0.50119410
C       -1.53949330       0.45607967       0.30831752
C       -1.55422012      -0.64459060      -0.45119600
O       -0.25970296      -0.97638670      -0.76485176
H        1.07410935       0.65242962       1.29677304
H        2.44185851       0.85593091      -0.19175249
H        2.36502545      -0.93236961      -0.26131341
H       -2.35547469       1.08356826       0.62383844
H       -2.31623313      -1.36081173      -0.70262970
11
Frame=15 idx=000190 GeodesicLength=0.8336977426231023 rxn_smarts="[C:1]([c:2]1[n:3][c:4]([H:10])[c:5]([H:11])[o:6]1)([H:7])([H:8])[H:9]>>[C:1](=[C:2]1[N:3]([H:7])[C:4]([H:10])=[C:5]([H:11])[O:6]1)([H:8])[H:9]"
C        1.84487989      -0.02637556       0.03368369
C        0.49798955       0.10086036      -0.40800541
N       -0.20999391       0.81584974       0.49485762
C       -1.54105260       0.46192366       0.29983524
C       -1.55258301      -0.64626774      -0.44804988
O       -0.25712292      -0.97111534      -0.76482821
H        1.08395115       0.61886760       1.31348544
H        2.44262719       0.85726045      -0.16074972
H        2.35555799      -0.92632523      -0.29032824
H       -2.35801927       1.09700181       0.59741359
H       -2.30623406      -1.38167975      -0.66731410
11
Frame=16 idx=000190 GeodesicLength=0.889541465031625 rxn_smarts="[C:1]([c:2]1[n:3][c:4]([H:10])[c:5]([H:11])[o:6]1)([H:7])([H:8])[H:9]>>[C:1](=[C:2]1[N:3]([H:7])[C:4]([H:10])=[C:5]([H:11])[O:6]1)([H:8])[H:9]"
C        1.83801957      -0.02753107       0.03017578
C        0.49636148       0.11519860      -0.41998131
N       -0.21300211       0.82687198       0.48842588
C       -1.54269182       0.46779218       0.29127210
C       -1.55092750      -0.64797633      -0.44464962
O       -0.25460639      -0.96578730      -0.76480773
H        1.09373826       0.58435621       1.32951359
H        2.44271575       0.85771407      -0.13018289
H        2.34643429      -0.91923850      -0.31880633
H       -2.36059149       1.11001217       0.57073865
H       -2.29545003      -1.40141202      -0.63169814
