12
Frame=0 idx=000933 GeodesicLength=0.0 rxn_smarts="[O:1]([C@@:2]1([H:8])[C:3]([H:9])([H:10])[C@@:4]2([H:11])[O:5][C@@:6]12[H:12])[H:7]>>[O:1]=[C:2]([C:3]([C@@:4]1([H:11])[O:5][C:6]1([H:7])[H:12])([H:9])[H:10])[H:8]"
O        1.68966810      -0.78867316      -0.95639811
C        0.54448483      -0.87833377      -0.31831153
C        0.30233243      -0.32838190       1.08202822
C       -0.68346570       0.69147368       0.55471429
O       -0.06137949       1.70933233      -0.17286642
C       -0.50867161       0.57955935      -0.91019751
H        0.75737073       0.00554714      -1.34878063
H       -0.15686032      -1.68468196      -0.58571012
H       -0.13953021      -1.06990548       1.74586263
H        1.19077531       0.11530971       1.52543811
H       -1.63174999       0.92842220       1.02092143
H       -1.30297408       0.72033187      -1.63670041
12
Frame=1 idx=000933 GeodesicLength=0.0784042727057135 rxn_smarts="[O:1]([C@@:2]1([H:8])[C:3]([H:9])([H:10])[C@@:4]2([H:11])[O:5][C@@:6]12[H:12])[H:7]>>[O:1]=[C:2]([C:3]([C@@:4]1([H:11])[O:5][C:6]1([H:7])[H:12])([H:9])[H:10])[H:8]"
O        1.69409236      -0.79207830      -0.95128541
C        0.55037872      -0.88466895      -0.31347193
C        0.29989679      -0.32825694       1.08303125
C       -0.68418514       0.69242013       0.55422284
O       -0.05898063       1.70717233      -0.17731054
C       -0.51416862       0.57775789      -0.91019606
H        0.75908412       0.01619002      -1.36559594
H       -0.14732240      -1.69062624      -0.58962788
H       -0.14614813      -1.06936415       1.74484524
H        1.18782174       0.11224833       1.53088507
H       -1.62769414       0.93740313       1.02585922
H       -1.31277467       0.72180274      -1.63135586
12
Frame=2 idx=000933 GeodesicLength=0.15678720218088465 rxn_smarts="[O:1]([C@@:2]1([H:8])[C:3]([H:9])([H:10])[C@@:4]2([H:11])[O:5][C@@:6]12[H:12])[H:7]>>[O:1]=[C:2]([C:3]([C@@:4]1([H:11])[O:5][C:6]1([H:7])[H:12])([H:9])[H:10])[H:8]"
O        1.69832560      -0.79548465      -0.94625061
C        0.55627940      -0.89124081      -0.30837847
C        0.29746586      -0.32814501       1.08409679
C       -0.68491935       0.69329376       0.55371533
O       -0.05659058       1.70491727      -0.18174993
C       -0.51957494       0.57588625      -0.91018666
H        0.76077920       0.02731909      -1.38277950
H       -0.13785484      -1.69656435      -0.59347665
H       -0.15275292      -1.06876190       1.74395083
H        1.18484210       0.10919369       1.53637258
H       -1.62358356       0.94631066       1.03067921
H       -1.32241596       0.72327601      -1.62599293
12
Frame=3 idx=000933 GeodesicLength=0.23515561947402197 rxn_smarts="[O:1]([C@@:2]1([H:8])[C:3]([H:9])([H:10])[C@@:4]2([H:11])[O:5][C@@:6]12[H:12])[H:7]>>[O:1]=[C:2]([C:3]([C@@:4]1([H:11])[O:5][C:6]1([H:7])[H:12])([H:9])[H:10])[H:8]"
O        1.70234366      -0.79889562      -0.94130846
C        0.56218368      -0.89806929      -0.30301371
C        0.29504159      -0.32804663       1.08523014
C       -0.68566906       0.69408688       0.55318901
O       -0.05420707       1.70256430      -0.18617774
C       -0.52487750       0.57394130      -0.91017220
H        0.76245919       0.03898449      -1.40034952
H       -0.12846838      -1.70250243      -0.59724413
H       -0.15934119      -1.06809145       1.74319479
H        1.18184067       0.10614834       1.54189934
H       -1.61942434       0.95513237       1.03537165
H       -1.33188126       0.72474774      -1.62061917
12
Frame=4 idx=000933 GeodesicLength=0.3135206353713084 rxn_smarts="[O:1]([C@@:2]1([H:8])[C:3]([H:9])([H:10])[C@@:4]2([H:11])[O:5][C@@:6]12[H:12])[H:7]>>[O:1]=[C:2]([C:3]([C@@:4]1([H:11])[O:5][C:6]1([H:7])[H:12])([H:9])[H:10])[H:8]"
O        1.70612170      -0.80231622      -0.93647415
C        0.56808839      -0.90517566      -0.29735934
C        0.29262645      -0.32796262       1.08643698
C       -0.68643500       0.69479097       0.55264060
O       -0.05182697       1.70011073      -0.19058597
C       -0.53006150       0.57191989      -0.91015629
H        0.76412485       0.05124136      -1.41832683
H       -0.11917476      -1.70844714      -0.60091619
H       -0.16590887      -1.06734518       1.74259393
H        1.17882243       0.10311542       1.54746441
H       -1.61522421       0.96385478       1.03992562
H       -1.34115249       0.72621366      -1.61524278
12
Frame=5 idx=000933 GeodesicLength=0.39187508424786655 rxn_smarts="[O:1]([C@@:2]1([H:8])[C:3]([H:9])([H:10])[C@@:4]2([H:11])[O:5][C@@:6]12[H:12])[H:7]>>[O:1]=[C:2]([C:3]([C@@:4]1([H:11])[O:5][C:6]1([H:7])[H:12])([H:9])[H:10])[H:8]"
O        1.70963273      -0.80574994      -0.93176281
C        0.57399020      -0.91258156      -0.29139651
C        0.29022263      -0.32789374       1.08772197
C       -0.68721711       0.69539798       0.55206690
O       -0.04944790       1.69755339      -0.19496807
C       -0.53511299       0.56981857      -0.91014246
H        0.76577939       0.06414529      -1.43672864
H       -0.10998546      -1.71440470      -0.60447801
H       -0.17245259      -1.06651486       1.74216389
H        1.17579203       0.10009715       1.55306565
H       -1.61098843       0.97246378       1.04433015
H       -1.35021248       0.72766864      -1.60987205
12
Frame=6 idx=000933 GeodesicLength=0.4702349713957658 rxn_smarts="[O:1]([C@@:2]1([H:8])[C:3]([H:9])([H:10])[C@@:4]2([H:11])[O:5][C@@:6]12[H:12])[H:7]>>[O:1]=[C:2]([C:3]([C@@:4]1([H:11])[O:5][C:6]1([H:7])[H:12])([H:9])[H:10])[H:8]"
O        1.71284722      -0.80920436      -0.92719203
C        0.57988593      -0.92031172      -0.28510422
C        0.28783334      -0.32784097       1.08909132
C       -0.68801634       0.69589745       0.55146367
O       -0.04706556       1.69488945      -0.19931465
C       -0.54001381       0.56763388      -0.91013573
H        0.76742227       0.07776394      -1.45557895
H       -0.10091461      -1.72038385      -0.60791088
H       -0.17896701      -1.06559136       1.74192450
H        1.17275559       0.09709718       1.55870165
H       -1.60672724       0.98094325       1.04857268
H       -1.35903978       0.72910710      -1.60451735
12
Frame=7 idx=000933 GeodesicLength=0.5485974098986055 rxn_smarts="[O:1]([C@@:2]1([H:8])[C:3]([H:9])([H:10])[C@@:4]2([H:11])[O:5][C@@:6]12[H:12])[H:7]>>[O:1]=[C:2]([C:3]([C@@:4]1([H:11])[O:5][C:6]1([H:7])[H:12])([H:9])[H:10])[H:8]"
O        1.71573393      -0.81268690      -0.92277876
C        0.58577275      -0.92839098      -0.27846117
C        0.28546207      -0.32780537       1.09054971
C       -0.68883226       0.69627936       0.55082623
O       -0.04467615       1.69211646      -0.20361685
C       -0.54474556       0.56536260      -0.91014147
H        0.76905154       0.09216525      -1.47489784
H       -0.09197591      -1.72639252      -0.61119389
H       -0.18544734      -1.06456516       1.74189343
H        1.16971929       0.09411894       1.56437000
H       -1.60244929       0.98927510       1.05263956
H       -1.36761307       0.73052322      -1.59918896
12
Frame=8 idx=000933 GeodesicLength=0.626966281421064 rxn_smarts="[O:1]([C@@:2]1([H:8])[C:3]([H:9])([H:10])[C@@:4]2([H:11])[O:5][C@@:6]12[H:12])[H:7]>>[O:1]=[C:2]([C:3]([C@@:4]1([H:11])[O:5][C:6]1([H:7])[H:12])([H:9])[H:10])[H:8]"
O        1.71825913      -0.81620748      -0.91854075
C        0.59164799      -0.93684560      -0.27144514
C        0.28311277      -0.32778832       1.09210274
C       -0.68966475       0.69653265       0.55014959
O       -0.04227469       1.68923158      -0.20786523
C       -0.54928839       0.56300120      -0.91016536
H        0.77066617       0.10742472      -1.49470934
H       -0.08318435      -1.73243882      -0.61430431
H       -0.19188773      -1.06342684       1.74209067
H        1.16669014       0.09116612       1.57006892
H       -1.59816590       0.99744152       1.05651651
H       -1.37591039       0.73190927      -1.59389831
12
Frame=9 idx=000933 GeodesicLength=0.7053134900664965 rxn_smarts="[O:1]([C@@:2]1([H:8])[C:3]([H:9])([H:10])[C@@:4]2([H:11])[O:5][C@@:6]12[H:12])[H:7]>>[O:1]=[C:2]([C:3]([C@@:4]1([H:11])[O:5][C:6]1([H:7])[H:12])([H:9])[H:10])[H:8]"
O        1.72038504      -0.81977471      -0.91449623
C        0.59751021      -0.94570047      -0.26403404
C        0.28078896      -0.32779064       1.09375294
C       -0.69051358       0.69664659       0.54942823
O       -0.03985863       1.68623259      -0.21205123
C       -0.55362371       0.56054666      -0.91021418
H        0.77226658       0.12361603      -1.51502811
H       -0.07455475      -1.73853161      -0.61721347
H       -0.19828252      -1.06216515       1.74253117
H        1.16367354       0.08824135       1.57579321
H       -1.59388232       1.00542029       1.06018918
H       -1.38390882       0.73325907      -1.58865747
12
Frame=10 idx=000933 GeodesicLength=0.7836701121749329 rxn_smarts="[O:1]([C@@:2]1([H:8])[C:3]([H:9])([H:10])[C@@:4]2([H:11])[O:5][C@@:6]12[H:12])[H:7]>>[O:1]=[C:2]([C:3]([C@@:4]1([H:11])[O:5][C:6]1([H:7])[H:12])([H:9])[H:10])[H:8]"
O        1.72207567      -0.82340671      -0.91066147
C        0.60335782      -0.95498576      -0.25620290
C        0.27849636      -0.32781467       1.09550649
C       -0.69137848       0.69660741       0.54865505
O       -0.03741966       1.68311698      -0.21616284
C       -0.55772610       0.55799558      -0.91029593
H        0.77384124       0.14083440      -1.53588721
H       -0.06610431      -1.74468188      -0.61989303
H       -0.20462403      -1.06077049       1.74324017
H        1.16067886       0.08535048       1.58154199
H       -1.58961545       1.01319090       1.06364038
H       -1.39158189       0.73456378      -1.58348072
12
Frame=11 idx=000933 GeodesicLength=0.8620332627147103 rxn_smarts="[O:1]([C@@:2]1([H:8])[C:3]([H:9])([H:10])[C@@:4]2([H:11])[O:5][C@@:6]12[H:12])[H:7]>>[O:1]=[C:2]([C:3]([C@@:4]1([H:11])[O:5][C:6]1([H:7])[H:12])([H:9])[H:10])[H:8]"
O        1.72328940      -0.82712152      -0.90705395
C        0.60919074      -0.96473023      -0.24792666
C        0.27624065      -0.32786225       1.09736647
C       -0.69225838       0.69640130       0.54782269
O       -0.03495191       1.67988332      -0.22018844
C       -0.56156996       0.55534589      -0.91041949
H        0.77538042       0.15917429      -1.55731025
H       -0.05785104      -1.75090121      -0.62230766
H       -0.21090401      -1.05923020       1.74423746
H        1.15771443       0.08249802       1.58731063
H       -1.58537891       1.02072735       1.06685260
H       -1.39890144       0.73581524      -1.57838339
12
Frame=12 idx=000933 GeodesicLength=0.9403911601827989 rxn_smarts="[O:1]([C@@:2]1([H:8])[C:3]([H:9])([H:10])[C@@:4]2([H:11])[O:5][C@@:6]12[H:12])[H:7]>>[O:1]=[C:2]([C:3]([C@@:4]1([H:11])[O:5][C:6]1([H:7])[H:12])([H:9])[H:10])[H:8]"
O        1.72399381      -0.83093802      -0.90368191
C        0.61500985      -0.97495795      -0.23918388
C        0.27402671      -0.32793575       1.09933480
C       -0.69315128       0.69601680       0.54692365
O       -0.03244785       1.67652989      -0.22411891
C       -0.56513304       0.55259527      -0.91059342
H        0.77686628       0.17872432      -1.57932432
H       -0.04980796      -1.75719829      -0.62442239
H       -0.21711687      -1.05753579       1.74553832
H        1.15478610       0.07968671       1.59309705
H       -1.58118065       1.02800787       1.06980909
H       -1.40584510       0.73700493      -1.57337809
12
Frame=13 idx=000933 GeodesicLength=1.0187432237414114 rxn_smarts="[O:1]([C@@:2]1([H:8])[C:3]([H:9])([H:10])[C@@:4]2([H:11])[O:5][C@@:6]12[H:12])[H:7]>>[O:1]=[C:2]([C:3]([C@@:4]1([H:11])[O:5][C:6]1([H:7])[H:12])([H:9])[H:10])[H:8]"
O        1.72414051      -0.83488015      -0.90056383
C        0.62081657      -0.98570032      -0.22994764
C        0.27186175      -0.32803776       1.10141353
C       -0.69405603       0.69543789       0.54594822
O       -0.02989946       1.67305575      -0.22794148
C       -0.56838569       0.54974194      -0.91082939
H        0.77828450       0.19959642      -1.60195334
H       -0.04199556      -1.76358826      -0.62619194
H       -0.22325235      -1.05567460       1.74716458
H        1.15190407       0.07692229       1.59889523
H       -1.57703755       1.03500327       1.07248983
H       -1.41238077       0.73812353      -1.56848377
12
Frame=14 idx=000933 GeodesicLength=1.0970893716155299 rxn_smarts="[O:1]([C@@:2]1([H:8])[C:3]([H:9])([H:10])[C@@:4]2([H:11])[O:5][C@@:6]12[H:12])[H:7]>>[O:1]=[C:2]([C:3]([C@@:4]1([H:11])[O:5][C:6]1([H:7])[H:12])([H:9])[H:10])[H:8]"
O        1.72369075      -0.83897686      -0.89771021
C        0.62661451      -0.99698445      -0.22019479
C        0.26975326      -0.32817135       1.10360421
C       -0.69497029       0.69464959       0.54488609
O       -0.02729578       1.66946046      -0.23164352
C       -0.57129811       0.54678506      -0.91113964
H        0.77960600       0.22190221      -1.62522608
H       -0.03443185      -1.77008603      -0.62756941
H       -0.22930139      -1.05363710       1.74913552
H        1.14907738       0.07420986       1.60470254
H       -1.57296597       1.04168681       1.07487445
H       -1.41847852       0.73916181      -1.56371917
12
Frame=15 idx=000933 GeodesicLength=1.17541915024658 rxn_smarts="[O:1]([C@@:2]1([H:8])[C:3]([H:9])([H:10])[C@@:4]2([H:11])[O:5][C@@:6]12[H:12])[H:7]>>[O:1]=[C:2]([C:3]([C@@:4]1([H:11])[O:5][C:6]1([H:7])[H:12])([H:9])[H:10])[H:8]"
O        1.72260490      -0.84325927      -0.89512754
C        0.63240803      -1.00883564      -0.20990180
C        0.26770876      -0.32834017       1.10590549
C       -0.69589003       0.69363741       0.54372598
O       -0.02462629       1.66574412      -0.23521418
C       -0.57383955       0.54372426      -0.91153720
H        0.78079796       0.24575679      -1.64916764
H       -0.02713432      -1.77670707      -0.62850308
H       -0.23525538      -1.05141263       1.75146556
H        1.14631407       0.07155286       1.61051433
H       -1.56897937       1.04802961       1.07694167
H       -1.42410879       0.74010975      -1.55910160
12
Frame=16 idx=000933 GeodesicLength=1.2537188727676665 rxn_smarts="[O:1]([C@@:2]1([H:8])[C:3]([H:9])([H:10])[C@@:4]2([H:11])[O:5][C@@:6]12[H:12])[H:7]>>[O:1]=[C:2]([C:3]([C@@:4]1([H:11])[O:5][C:6]1([H:7])[H:12])([H:9])[H:10])[H:8]"
O        1.72084269      -0.84776220      -0.89282233
C        0.63820321      -1.02127898      -0.19904648
C        0.26573655      -0.32854825       1.10831534
C       -0.69681150       0.69238598       0.54245518
O       -0.02187838       1.66190732      -0.23864211
C       -0.57597820       0.54056009      -0.91203708
H        0.78182277       0.27128216      -1.67380033
H       -0.02012167      -1.78347049      -0.62893551
H       -0.24110469      -1.04899184       1.75416973
H        1.14362305       0.06895577       1.61632564
H       -1.56509302       1.05400277       1.07866976
H       -1.42924081       0.74095767      -1.55465181
