12
Frame=0 idx=004462 GeodesicLength=0.0 rxn_smarts="[C:1]([C:2]([C:3](=[O:4])[C:5]#[C:6][H:12])([H:10])[H:11])([H:7])([H:8])[H:9]>>[C:1]([O:4][C:3](=[C:2]([H:10])[H:11])[C:5]#[C:6][H:12])([H:7])([H:8])[H:9]"
C       -1.83008345      -0.16101979      -0.93321452
C       -0.45066138       0.30779051       0.93623854
C        0.51295524       0.09553690      -0.04011381
O        0.18093258       0.09186862      -1.25667720
C        1.90357364      -0.11028098       0.28633910
C        3.05406006      -0.29752758       0.56370807
H       -2.58346776       0.12313001      -0.21372211
H       -1.66741257      -1.22374629      -1.02739502
H       -1.86985768       0.39386135      -1.85891904
H       -0.27487473       0.05106006       1.97442059
H       -1.05349974       1.19222971       0.76664914
H        4.07833584      -0.46290252       0.80268626
12
Frame=1 idx=004462 GeodesicLength=0.04644944764027266 rxn_smarts="[C:1]([C:2]([C:3](=[O:4])[C:5]#[C:6][H:12])([H:10])[H:11])([H:7])([H:8])[H:9]>>[C:1]([O:4][C:3](=[C:2]([H:10])[H:11])[C:5]#[C:6][H:12])([H:7])([H:8])[H:9]"
C       -1.81927712      -0.16337777      -0.92065485
C       -0.45479489       0.31739498       0.92159310
C        0.51659221       0.10135716      -0.04844011
O        0.18381901       0.06106467      -1.26492547
C        1.90255162      -0.11571744       0.28931113
C        3.05238351      -0.29569921       0.57379544
H       -2.58385883       0.08673848      -0.19898235
H       -1.67698461      -1.22529322      -1.05439644
H       -1.87402900       0.42574252      -1.82495936
H       -0.28030025       0.05499917       1.95867969
H       -1.04385082       1.21259144       0.75996790
H        4.07774916      -0.45980079       0.80901132
12
Frame=2 idx=004462 GeodesicLength=0.09293174363242702 rxn_smarts="[C:1]([C:2]([C:3](=[O:4])[C:5]#[C:6][H:12])([H:10])[H:11])([H:7])([H:8])[H:9]>>[C:1]([O:4][C:3](=[C:2]([H:10])[H:11])[C:5]#[C:6][H:12])([H:7])([H:8])[H:9]"
C       -1.80851355      -0.16635310      -0.90830458
C       -0.45871518       0.32693695       0.90712986
C        0.52011896       0.10775859      -0.05702361
O        0.18617479       0.03069846      -1.27225271
C        1.90159631      -0.11901491       0.29188807
C        3.05074178      -0.29218692       0.58304688
H       -2.58308510       0.05114412      -0.18534523
H       -1.68725597      -1.22573835      -1.08130160
H       -1.87715905       0.45543290      -1.79032208
H       -0.28517890       0.05880722       1.94300052
H       -1.03493597       1.23192581       0.75380276
H        4.07621188      -0.45941077       0.81568173
12
Frame=3 idx=004462 GeodesicLength=0.1394524035103519 rxn_smarts="[C:1]([C:2]([C:3](=[O:4])[C:5]#[C:6][H:12])([H:10])[H:11])([H:7])([H:8])[H:9]>>[C:1]([O:4][C:3](=[C:2]([H:10])[H:11])[C:5]#[C:6][H:12])([H:7])([H:8])[H:9]"
C       -1.79740232      -0.17062738      -0.89606848
C       -0.46249160       0.33724278       0.89285189
C        0.52365262       0.11679134      -0.06597072
O        0.18813753       0.00266653      -1.27877674
C        1.90115068      -0.11616011       0.29377278
C        3.04783184      -0.29272235       0.59220026
H       -2.58099598       0.01446087      -0.17246491
H       -1.69642308      -1.22550802      -1.10822386
H       -1.87998478       0.48219412      -1.75498360
H       -0.28909094       0.06351210       1.92737750
H       -1.02794520       1.25048957       0.74823715
H        4.07356123      -0.46233944       0.82204873
12
Frame=4 idx=004462 GeodesicLength=0.18616650266564816 rxn_smarts="[C:1]([C:2]([C:3](=[O:4])[C:5]#[C:6][H:12])([H:10])[H:11])([H:7])([H:8])[H:9]>>[C:1]([O:4][C:3](=[C:2]([H:10])[H:11])[C:5]#[C:6][H:12])([H:7])([H:8])[H:9]"
C       -1.78723146      -0.17374807      -0.88412570
C       -0.46559687       0.34584129       0.87851486
C        0.52687234       0.12185555      -0.07548549
O        0.18925955      -0.02858970      -1.28470013
C        1.90025350      -0.11874351       0.29474121
C        3.04558222      -0.29263853       0.59960679
H       -2.57830187      -0.01784909      -0.16036153
H       -1.70997283      -1.22272057      -1.13516581
H       -1.88132469       0.50897728      -1.71924476
H       -0.29259832       0.06620480       1.91162228
H       -1.01865762       1.26802002       0.74283403
H        4.07171604      -0.45660948       0.83176425
12
Frame=5 idx=004462 GeodesicLength=0.2328636375143047 rxn_smarts="[C:1]([C:2]([C:3](=[O:4])[C:5]#[C:6][H:12])([H:10])[H:11])([H:7])([H:8])[H:9]>>[C:1]([O:4][C:3](=[C:2]([H:10])[H:11])[C:5]#[C:6][H:12])([H:7])([H:8])[H:9]"
C       -1.77667524      -0.17815863      -0.87234152
C       -0.46861356       0.35513959       0.86440005
C        0.53008925       0.12928699      -0.08525513
O        0.19009124      -0.05759003      -1.28977755
C        1.89986869      -0.11535087       0.29512782
C        3.04225745      -0.29505805       0.60736404
H       -2.57442506      -0.05123484      -0.14886824
H       -1.72236297      -1.21910426      -1.16208284
H       -1.88255062       0.53263754      -1.68318813
H       -0.29520698       0.06984192       1.89598666
H       -1.01121106       1.28487642       0.73794547
H        4.06873886      -0.45528578       0.84068938
12
Frame=6 idx=004462 GeodesicLength=0.2797473645676196 rxn_smarts="[C:1]([C:2]([C:3](=[O:4])[C:5]#[C:6][H:12])([H:10])[H:11])([H:7])([H:8])[H:9]>>[C:1]([O:4][C:3](=[C:2]([H:10])[H:11])[C:5]#[C:6][H:12])([H:7])([H:8])[H:9]"
C       -1.76639127      -0.18269952      -0.86077729
C       -0.47132653       0.36385332       0.85035456
C        0.53308513       0.13578160      -0.09546889
O        0.19047215      -0.08724226      -1.29416120
C        1.89962136      -0.11179391       0.29463634
C        3.03949708      -0.29454328       0.61393946
H       -2.56982289      -0.08326730      -0.13787594
H       -1.73627957      -1.21389357      -1.18892901
H       -1.88311873       0.55493502      -1.64684420
H       -0.29723238       0.07289165       1.88033750
H       -1.00351597       1.30084552       0.73335917
H        4.06501161      -0.45486728       0.85142951
12
Frame=7 idx=004462 GeodesicLength=0.32666302679027037 rxn_smarts="[C:1]([C:2]([C:3](=[O:4])[C:5]#[C:6][H:12])([H:10])[H:11])([H:7])([H:8])[H:9]>>[C:1]([O:4][C:3](=[C:2]([H:10])[H:11])[C:5]#[C:6][H:12])([H:7])([H:8])[H:9]"
C       -1.75627025      -0.18740667      -0.84947035
C       -0.47372359       0.37219178       0.83640500
C        0.53595721       0.14179882      -0.10603364
O        0.19039159      -0.11699216      -1.29777253
C        1.89951761      -0.10744091       0.29343943
C        3.03625899      -0.29599876       0.62017705
H       -2.56450304      -0.11412376      -0.12741479
H       -1.75123144      -1.20685261      -1.21564482
H       -1.88318681       0.57554436      -1.61048005
H       -0.29858952       0.07561891       1.86469910
H       -0.99579007       1.31605551       0.72907482
H        4.06116932      -0.45239451       0.86302077
12
Frame=8 idx=004462 GeodesicLength=0.373618366838442 rxn_smarts="[C:1]([C:2]([C:3](=[O:4])[C:5]#[C:6][H:12])([H:10])[H:11])([H:7])([H:8])[H:9]>>[C:1]([O:4][C:3](=[C:2]([H:10])[H:11])[C:5]#[C:6][H:12])([H:7])([H:8])[H:9]"
C       -1.74610695      -0.19256083      -0.83847628
C       -0.47604516       0.38030491       0.82266374
C        0.53867404       0.14780489      -0.11670904
O        0.19011641      -0.14656819      -1.30043941
C        1.89953215      -0.10143952       0.29194020
C        3.03312519      -0.29522591       0.62626202
H       -2.55848491      -0.14435297      -0.11756965
H       -1.76657129      -1.19830658      -1.24204803
H       -1.88276405       0.59414514      -1.57434486
H       -0.29954897       0.07826674       1.84922286
H       -0.98853405       1.33050175       0.72510141
H        4.05660759      -0.45256943       0.87439705
12
Frame=9 idx=004462 GeodesicLength=0.4205935104233359 rxn_smarts="[C:1]([C:2]([C:3](=[O:4])[C:5]#[C:6][H:12])([H:10])[H:11])([H:7])([H:8])[H:9]>>[C:1]([O:4][C:3](=[C:2]([H:10])[H:11])[C:5]#[C:6][H:12])([H:7])([H:8])[H:9]"
C       -1.73631932      -0.19726230      -0.82792888
C       -0.47811770       0.38745437       0.80909296
C        0.54118313       0.15183586      -0.12749354
O        0.18939972      -0.17752820      -1.30222793
C        1.89938968      -0.09749668       0.29012041
C        3.02988447      -0.29589805       0.63192627
H       -2.55225057      -0.17210239      -0.10845939
H       -1.78382687      -1.18741213      -1.26804820
H       -1.88134189       0.61187018      -1.53867786
H       -0.30036936       0.07983391       1.83387083
H       -0.98036722       1.34411002       0.72140069
H        4.05273594      -0.44740460       0.88642463
12
Frame=10 idx=004462 GeodesicLength=0.4675459485081602 rxn_smarts="[C:1]([C:2]([C:3](=[O:4])[C:5]#[C:6][H:12])([H:10])[H:11])([H:7])([H:8])[H:9]>>[C:1]([O:4][C:3](=[C:2]([H:10])[H:11])[C:5]#[C:6][H:12])([H:7])([H:8])[H:9]"
C       -1.72649200      -0.20221321      -0.81782096
C       -0.48025574       0.39429485       0.79580225
C        0.54351678       0.15555933      -0.13814625
O        0.18860773      -0.20858556      -1.30290885
C        1.89921920      -0.09269819       0.28840250
C        3.02666013      -0.29494449       0.63779132
H       -2.54560912      -0.19893375      -0.10013198
H       -1.80127918      -1.17491623      -1.29343184
H       -1.87930849       0.62785050      -1.50365951
H       -0.30115700       0.08121852       1.81878722
H       -0.97256265       1.35701015       0.71798651
H        4.04866035      -0.44364193       0.89732959
12
Frame=11 idx=004462 GeodesicLength=0.5143747621641989 rxn_smarts="[C:1]([C:2]([C:3](=[O:4])[C:5]#[C:6][H:12])([H:10])[H:11])([H:7])([H:8])[H:9]>>[C:1]([O:4][C:3](=[C:2]([H:10])[H:11])[C:5]#[C:6][H:12])([H:7])([H:8])[H:9]"
C       -1.71672249      -0.20719310      -0.80829100
C       -0.48251273       0.40069309       0.78289656
C        0.54563903       0.15863656      -0.14854925
O        0.18774526      -0.24030262      -1.30243688
C        1.89897508      -0.08765619       0.28696894
C        3.02338764      -0.29316094       0.64408919
H       -2.53879318      -0.22439032      -0.09273383
H       -1.81906812      -1.16078581      -1.31813692
H       -1.87654860       0.64243803      -1.46961478
H       -0.30208120       0.08214710       1.80414337
H       -0.96495856       1.36928853       0.71496269
H        4.04493787      -0.43971433       0.90670190
12
Frame=12 idx=004462 GeodesicLength=0.5614079391442376 rxn_smarts="[C:1]([C:2]([C:3](=[O:4])[C:5]#[C:6][H:12])([H:10])[H:11])([H:7])([H:8])[H:9]>>[C:1]([O:4][C:3](=[C:2]([H:10])[H:11])[C:5]#[C:6][H:12])([H:7])([H:8])[H:9]"
C       -1.70738258      -0.21149207      -0.79915623
C       -0.48445652       0.40592618       0.76996743
C        0.54759157       0.15936082      -0.15909668
O        0.18627918      -0.27349610      -1.30088299
C        1.89841059      -0.08561724       0.28524289
C        3.02008475      -0.29300643       0.64953948
H       -2.53211724      -0.24735181      -0.08598499
H       -1.83841984      -1.14393531      -1.34204811
H       -1.87272872       0.65658689      -1.43607676
H       -0.30299430       0.08181873       1.78929412
H       -0.95601570       1.38048454       0.71202938
H        4.04174882      -0.42927821       0.91717245
12
Frame=13 idx=004462 GeodesicLength=0.6082197366296739 rxn_smarts="[C:1]([C:2]([C:3](=[O:4])[C:5]#[C:6][H:12])([H:10])[H:11])([H:7])([H:8])[H:9]>>[C:1]([O:4][C:3](=[C:2]([H:10])[H:11])[C:5]#[C:6][H:12])([H:7])([H:8])[H:9]"
C       -1.69810166      -0.21596760      -0.79057618
C       -0.48650228       0.41094579       0.75737059
C        0.54934825       0.15985900      -0.16952519
O        0.18470056      -0.30679056      -1.29832214
C        1.89789184      -0.08270789       0.28357563
C        3.01689522      -0.29145310       0.65516674
H       -2.52530055      -0.26965425      -0.07996605
H       -1.85740580      -1.12579095      -1.36513279
H       -1.86870501       0.66937268      -1.40351341
H       -0.30384307       0.08136763       1.77486031
H       -0.94752238       1.39118340       0.70944822
H        4.03854488      -0.42036414       0.92661427
12
Frame=14 idx=004462 GeodesicLength=0.6551414699778776 rxn_smarts="[C:1]([C:2]([C:3](=[O:4])[C:5]#[C:6][H:12])([H:10])[H:11])([H:7])([H:8])[H:9]>>[C:1]([O:4][C:3](=[C:2]([H:10])[H:11])[C:5]#[C:6][H:12])([H:7])([H:8])[H:9]"
C       -1.68838328      -0.22106587      -0.78246162
C       -0.48910271       0.41625584       0.74508598
C        0.55084852       0.16148283      -0.17949281
O        0.18365071      -0.33915689      -1.29430866
C        1.89733388      -0.07646075       0.28248975
C        3.01347046      -0.28592335       0.66201926
H       -2.51798867      -0.29241880      -0.07481065
H       -1.87451677      -1.10708800      -1.38689162
H       -1.86451345       0.68005954      -1.37196316
H       -0.30512189       0.08154126       1.76072940
H       -0.94057080       1.40139083       0.70701853
H        4.03489401      -0.41861664       0.93258559
12
Frame=15 idx=004462 GeodesicLength=0.7019241042652983 rxn_smarts="[C:1]([C:2]([C:3](=[O:4])[C:5]#[C:6][H:12])([H:10])[H:11])([H:7])([H:8])[H:9]>>[C:1]([O:4][C:3](=[C:2]([H:10])[H:11])[C:5]#[C:6][H:12])([H:7])([H:8])[H:9]"
C       -1.67905613      -0.22572363      -0.77485928
C       -0.49148357       0.42084830       0.73293551
C        0.55218622       0.16169098      -0.18963829
O        0.18207843      -0.37228898      -1.28949868
C        1.89668639      -0.07171991       0.28095367
C        3.01022524      -0.28103588       0.66802102
H       -2.51084666      -0.31364835      -0.07022082
H       -1.89200237      -1.08663657      -1.40767563
H       -1.86004181       0.69029903      -1.34121698
H       -0.30618290       0.08086734       1.74670120
H       -0.93297315       1.41091823       0.70489810
H        4.03141032      -0.41357056       0.93960019
12
Frame=16 idx=004462 GeodesicLength=0.7487841119970726 rxn_smarts="[C:1]([C:2]([C:3](=[O:4])[C:5]#[C:6][H:12])([H:10])[H:11])([H:7])([H:8])[H:9]>>[C:1]([O:4][C:3](=[C:2]([H:10])[H:11])[C:5]#[C:6][H:12])([H:7])([H:8])[H:9]"
C       -1.66988727      -0.23014434      -0.76771556
C       -0.49382934       0.42496699       0.72091525
C        0.55330406       0.16114643      -0.19984512
O        0.18020669      -0.40581040      -1.28369878
C        1.89589970      -0.06724318       0.27912566
C        3.00701697      -0.27546277       0.67351000
H       -2.50369355      -0.33394291      -0.06622399
H       -1.90908661      -1.06481780      -1.42728257
H       -1.85530983       0.69983181      -1.31126232
H       -0.30719498       0.07967744       1.73273854
H       -0.92519711       1.41979491       0.70301007
H        4.02777125      -0.40799618       0.94672881
