13
Frame=0 idx=010038 GeodesicLength=0.0 rxn_smarts="[N:1]([c:2]1[c:3]([H:10])[c:4]([H:11])[c:5]([O:6][H:12])[n:7]1[H:13])([H:8])[H:9]>>[N:1]([C@@:2]1([H:10])[C-:3]=[C:4]([H:11])[C+:5]([O:6][H:12])[N:7]1[H:13])([H:8])[H:9]"
N       -2.21203404      -0.24443876       0.46980993
C       -0.90806667       0.10681841       0.07440042
C       -0.26570465       1.38471955       0.21585355
C        1.12214672       1.04340076       0.05391380
C        1.26265036      -0.31584944      -0.04773751
O        2.33325259      -1.10795043      -0.19922163
N        0.05010778      -0.91266160      -0.03266502
H       -2.77648618      -0.63838438      -0.26844987
H       -2.67357182       0.55975232       0.86809783
H       -0.88223160       0.84167758      -0.92600324
H        1.94031336       1.74886314       0.02083882
H        3.12291385      -0.56242712      -0.21197784
H       -0.11328966      -1.90352008      -0.01685930
13
Frame=1 idx=010038 GeodesicLength=0.04583263235817919 rxn_smarts="[N:1]([c:2]1[c:3]([H:10])[c:4]([H:11])[c:5]([O:6][H:12])[n:7]1[H:13])([H:8])[H:9]>>[N:1]([C@@:2]1([H:10])[C-:3]=[C:4]([H:11])[C+:5]([O:6][H:12])[N:7]1[H:13])([H:8])[H:9]"
N       -2.20867237      -0.25444782       0.46921701
C       -0.91012075       0.10403649       0.05919835
C       -0.26633100       1.38077252       0.19922759
C        1.12112639       1.04343329       0.04702375
C        1.26325836      -0.31757876      -0.04825699
O        2.33789114      -1.10914577      -0.16978339
N        0.05186740      -0.91429690      -0.04326654
H       -2.79255343      -0.60327769      -0.27659480
H       -2.65373671       0.53248773       0.91772402
H       -0.89613214       0.85490960      -0.94442922
H        1.93838974       1.74969956       0.00733113
H        3.12580006      -0.56123508      -0.18850938
H       -0.11078670      -1.90535717      -0.02888153
13
Frame=2 idx=010038 GeodesicLength=0.09158301968253595 rxn_smarts="[N:1]([c:2]1[c:3]([H:10])[c:4]([H:11])[c:5]([O:6][H:12])[n:7]1[H:13])([H:8])[H:9]>>[N:1]([C@@:2]1([H:10])[C-:3]=[C:4]([H:11])[C+:5]([O:6][H:12])[N:7]1[H:13])([H:8])[H:9]"
N       -2.20552206      -0.26405240       0.46754732
C       -0.91219252       0.10120255       0.04386752
C       -0.26706372       1.37675182       0.18270204
C        1.12004167       1.04334283       0.04161096
C        1.26383290      -0.31942581      -0.04659043
O        2.34184622      -1.10991377      -0.14035036
N        0.05369229      -0.91599177      -0.05282782
H       -2.80830573      -0.56735756      -0.28308720
H       -2.63290600       0.50381517       0.96386524
H       -0.90955874       0.86838634      -0.96276581
H        1.93637339       1.75028370      -0.00549790
H        3.12794474      -0.55981582      -0.16892514
H       -0.10818245      -1.90722527      -0.03954844
13
Frame=3 idx=010038 GeodesicLength=0.13735512441271747 rxn_smarts="[N:1]([c:2]1[c:3]([H:10])[c:4]([H:11])[c:5]([O:6][H:12])[n:7]1[H:13])([H:8])[H:9]>>[N:1]([C@@:2]1([H:10])[C-:3]=[C:4]([H:11])[C+:5]([O:6][H:12])[N:7]1[H:13])([H:8])[H:9]"
N       -2.20237833      -0.27339313       0.46555296
C       -0.91432131       0.09833498       0.02821869
C       -0.26781306       1.37270782       0.16601621
C        1.11890259       1.04328181       0.03621913
C        1.26429597      -0.32124150      -0.04479984
O        2.34515553      -1.11032776      -0.11188667
N        0.05549751      -0.91768537      -0.06262527
H       -2.82397886      -0.53084426      -0.28685966
H       -2.61068324       0.47364206       1.00775659
H       -0.92331418       0.88247614      -0.98098435
H        1.93438399       1.75074858      -0.01839585
H        3.12982705      -0.55859211      -0.14782041
H       -0.10557366      -1.90910726      -0.05039155
13
Frame=4 idx=010038 GeodesicLength=0.18312398726083817 rxn_smarts="[N:1]([c:2]1[c:3]([H:10])[c:4]([H:11])[c:5]([O:6][H:12])[n:7]1[H:13])([H:8])[H:9]>>[N:1]([C@@:2]1([H:10])[C-:3]=[C:4]([H:11])[C+:5]([O:6][H:12])[N:7]1[H:13])([H:8])[H:9]"
N       -2.19929699      -0.28239590       0.46310968
C       -0.91648946       0.09542381       0.01233605
C       -0.26857972       1.36861045       0.14918375
C        1.11770285       1.04319224       0.03114945
C        1.26463862      -0.32306314      -0.04246998
O        2.34784486      -1.11042068      -0.08465390
N        0.05730060      -0.91939412      -0.07223863
H       -2.83933825      -0.49391025      -0.28817181
H       -2.58735076       0.44226510       1.04893261
H       -0.93724326       0.89707056      -0.99906605
H        1.93241210       1.75101338      -0.03099633
H        3.13133942      -0.55739224      -0.12628854
H       -0.10293999      -1.91099921      -0.06082630
13
Frame=5 idx=010038 GeodesicLength=0.2287807974493983 rxn_smarts="[N:1]([c:2]1[c:3]([H:10])[c:4]([H:11])[c:5]([O:6][H:12])[n:7]1[H:13])([H:8])[H:9]>>[N:1]([C@@:2]1([H:10])[C-:3]=[C:4]([H:11])[C+:5]([O:6][H:12])[N:7]1[H:13])([H:8])[H:9]"
N       -2.19647581      -0.29083313       0.45992125
C       -0.91868431       0.09243371      -0.00367600
C       -0.26943768       1.36449471       0.13199867
C        1.11640407       1.04304689       0.02703310
C        1.26485970      -0.32495004      -0.03838449
O        2.35001988      -1.11020112      -0.06052744
N        0.05915338      -0.92120547      -0.08060519
H       -2.85410467      -0.45689253      -0.28758490
H       -2.56358648       0.41038918       1.08652267
H       -0.95087820       0.91164887      -1.01726237
H        1.93048445       1.75105031      -0.04189836
H        3.13246200      -0.55598887      -0.10636571
H       -0.10021633      -1.91299251      -0.06917123
13
Frame=6 idx=010038 GeodesicLength=0.2744461606801788 rxn_smarts="[N:1]([c:2]1[c:3]([H:10])[c:4]([H:11])[c:5]([O:6][H:12])[n:7]1[H:13])([H:8])[H:9]>>[N:1]([C@@:2]1([H:10])[C-:3]=[C:4]([H:11])[C+:5]([O:6][H:12])[N:7]1[H:13])([H:8])[H:9]"
N       -2.19437348      -0.29858572       0.45528179
C       -0.92085092       0.08930723      -0.01945415
C       -0.27040283       1.36035769       0.11489503
C        1.11503712       1.04283304       0.02553732
C        1.26498757      -0.32694145      -0.03019787
O        2.35199971      -1.10964235      -0.03921301
N        0.06113153      -0.92321481      -0.08606442
H       -2.86785140      -0.41998468      -0.28671455
H       -2.54068049       0.37859133       1.11925597
H       -0.96328121       0.92582732      -1.03562950
H        1.92855094       1.75086420      -0.05030823
H        3.13305763      -0.55423284      -0.09397895
H       -0.09732419      -1.91517896      -0.07340944
13
Frame=7 idx=010038 GeodesicLength=0.3201416923753052 rxn_smarts="[N:1]([c:2]1[c:3]([H:10])[c:4]([H:11])[c:5]([O:6][H:12])[n:7]1[H:13])([H:8])[H:9]>>[N:1]([C@@:2]1([H:10])[C-:3]=[C:4]([H:11])[C+:5]([O:6][H:12])[N:7]1[H:13])([H:8])[H:9]"
N       -2.19231299      -0.30611533       0.45045089
C       -0.92302460       0.08610075      -0.03543083
C       -0.27125497       1.35613996       0.09774492
C        1.11362033       1.04263855       0.02406538
C        1.26488544      -0.32888830      -0.02198025
O        2.35362475      -1.10898771      -0.01881283
N        0.06303108      -0.92524507      -0.09170809
H       -2.88104865      -0.38284619      -0.28349877
H       -2.51701719       0.34581031       1.14986183
H       -0.97606205       0.94074152      -1.05366441
H        1.92663292       1.75054420      -0.05927483
H        3.13349353      -0.55249113      -0.07990015
H       -0.09456761      -1.91740155      -0.07785285
13
Frame=8 idx=010038 GeodesicLength=0.3656371121366113 rxn_smarts="[N:1]([c:2]1[c:3]([H:10])[c:4]([H:11])[c:5]([O:6][H:12])[n:7]1[H:13])([H:8])[H:9]>>[N:1]([C@@:2]1([H:10])[C-:3]=[C:4]([H:11])[C+:5]([O:6][H:12])[N:7]1[H:13])([H:8])[H:9]"
N       -2.19016572      -0.31326011       0.44559951
C       -0.92522883       0.08283656      -0.05172078
C       -0.27215027       1.35174509       0.08020172
C        1.11205825       1.04233518       0.02217744
C        1.26462385      -0.33080358      -0.01410016
O        2.35495568      -1.10830070       0.00076186
N        0.06498488      -0.92721689      -0.09775569
H       -2.89369359      -0.34561955      -0.27758835
H       -2.49251577       0.31238725       1.17840330
H       -0.98959140       0.95626388      -1.07141802
H        1.92467904       1.74990209      -0.06814108
H        3.13377690      -0.55076767      -0.06369391
H       -0.09173302      -1.91950156      -0.08272584
13
Frame=9 idx=010038 GeodesicLength=0.4111189707471429 rxn_smarts="[N:1]([c:2]1[c:3]([H:10])[c:4]([H:11])[c:5]([O:6][H:12])[n:7]1[H:13])([H:8])[H:9]>>[N:1]([C@@:2]1([H:10])[C-:3]=[C:4]([H:11])[C+:5]([O:6][H:12])[N:7]1[H:13])([H:8])[H:9]"
N       -2.18817904      -0.32009381       0.44033387
C       -0.92738088       0.07947264      -0.06799700
C       -0.27288570       1.34727892       0.06269401
C        1.11043198       1.04203490       0.02088570
C        1.26408152      -0.33271227      -0.00537773
O        2.35596833      -1.10753513       0.01910421
N        0.06684731      -0.92926074      -0.10313679
H       -2.90526451      -0.30858551      -0.27001694
H       -2.46795766       0.27854599       1.20409260
H       -1.00310399       0.97234429      -1.08874897
H        1.92271591       1.74909916      -0.07693338
H        3.13377990      -0.54889638      -0.04811770
H       -0.08905317      -1.92169205      -0.08678189
13
Frame=10 idx=010038 GeodesicLength=0.4566716591622383 rxn_smarts="[N:1]([c:2]1[c:3]([H:10])[c:4]([H:11])[c:5]([O:6][H:12])[n:7]1[H:13])([H:8])[H:9]>>[N:1]([C@@:2]1([H:10])[C-:3]=[C:4]([H:11])[C+:5]([O:6][H:12])[N:7]1[H:13])([H:8])[H:9]"
N       -2.18634348      -0.32659575       0.43478190
C       -0.92952956       0.07601221      -0.08441630
C       -0.27355507       1.34271638       0.04502865
C        1.10875741       1.04171194       0.01985054
C        1.26336966      -0.33460586       0.00384055
O        2.35678654      -1.10671014       0.03700691
N        0.06872621      -0.93135265      -0.10827646
H       -2.91599049      -0.27172300      -0.26064489
H       -2.44329998       0.24434626       1.22738013
H       -1.01695813       0.98901944      -1.10575072
H        1.92082854       1.74809070      -0.08545941
H        3.13359806      -0.54698406      -0.03296622
H       -0.08638972      -1.92392547      -0.09037467
13
Frame=11 idx=010038 GeodesicLength=0.5022535345601761 rxn_smarts="[N:1]([c:2]1[c:3]([H:10])[c:4]([H:11])[c:5]([O:6][H:12])[n:7]1[H:13])([H:8])[H:9]>>[N:1]([C@@:2]1([H:10])[C-:3]=[C:4]([H:11])[C+:5]([O:6][H:12])[N:7]1[H:13])([H:8])[H:9]"
N       -2.18416023      -0.33291745       0.42958426
C       -0.93171721       0.07252957      -0.10128935
C       -0.27412725       1.33806204       0.02690828
C        1.10697423       1.04134585       0.01762407
C        1.26239351      -0.33649351       0.01160307
O        2.35711520      -1.10597449       0.05546826
N        0.07052596      -0.93341320      -0.11487972
H       -2.92590906      -0.23490306      -0.24812165
H       -2.41732363       0.20929675       1.24941514
H       -1.03206385       1.00687166      -1.12211885
H        1.91894039       1.74682254      -0.09507222
H        3.13320007      -0.54509849      -0.01339884
H       -0.08384813      -1.92612821      -0.09572245
13
Frame=12 idx=010038 GeodesicLength=0.5478725979377103 rxn_smarts="[N:1]([c:2]1[c:3]([H:10])[c:4]([H:11])[c:5]([O:6][H:12])[n:7]1[H:13])([H:8])[H:9]>>[N:1]([C@@:2]1([H:10])[C-:3]=[C:4]([H:11])[C+:5]([O:6][H:12])[N:7]1[H:13])([H:8])[H:9]"
N       -2.18193792      -0.33898239       0.42429139
C       -0.93389827       0.06899658      -0.11831303
C       -0.27459643       1.33331031       0.00865301
C        1.10512039       1.04092623       0.01517627
C        1.26119967      -0.33839839       0.01904963
O        2.35710751      -1.10526670       0.07370584
N        0.07229559      -0.93550222      -0.12175988
H       -2.93469009      -0.19825281      -0.23353046
H       -2.39098073       0.17371452       1.26940591
H       -1.04785646       1.02567015      -1.13774370
H        1.91704692       1.74526032      -0.10537102
H        3.13254526      -0.54313020       0.00774303
H       -0.08135545      -1.92834540      -0.10130697
13
Frame=13 idx=010038 GeodesicLength=0.593672111746534 rxn_smarts="[N:1]([c:2]1[c:3]([H:10])[c:4]([H:11])[c:5]([O:6][H:12])[n:7]1[H:13])([H:8])[H:9]>>[N:1]([C@@:2]1([H:10])[C-:3]=[C:4]([H:11])[C+:5]([O:6][H:12])[N:7]1[H:13])([H:8])[H:9]"
N       -2.17948867      -0.34487342       0.41924898
C       -0.93614263       0.06544596      -0.13571163
C       -0.27493004       1.32851352      -0.01003500
C        1.10325822       1.04048560       0.01175733
C        1.25978997      -0.34032640       0.02539509
O        2.35663651      -1.10467711       0.09217880
N        0.07398530      -0.93760234      -0.12982502
H       -2.94246236      -0.16179025      -0.21614245
H       -2.36364222       0.13738774       1.28796373
H       -1.06485299       1.04567123      -1.15257080
H        1.91527939       1.74343394      -0.11688013
H        3.13158559      -0.54107093       0.03283526
H       -0.07901609      -1.93059754      -0.10821416
13
Frame=14 idx=010038 GeodesicLength=0.6392704873205023 rxn_smarts="[N:1]([c:2]1[c:3]([H:10])[c:4]([H:11])[c:5]([O:6][H:12])[n:7]1[H:13])([H:8])[H:9]>>[N:1]([C@@:2]1([H:10])[C-:3]=[C:4]([H:11])[C+:5]([O:6][H:12])[N:7]1[H:13])([H:8])[H:9]"
N       -2.17717736      -0.35039383       0.41378516
C       -0.93832850       0.06178701      -0.15324786
C       -0.27519028       1.32351253      -0.02903815
C        1.10129043       1.03995268       0.00875218
C        1.25813846      -0.34219488       0.03259946
O        2.35588657      -1.10391629       0.11073040
N        0.07573336      -0.93966566      -0.13745937
H       -2.94881749      -0.12571022      -0.19736554
H       -2.33658247       0.10086714       1.30392785
H       -1.08203887       1.06621694      -1.16675787
H        1.91353338       1.74125481      -0.12789063
H        3.13019918      -0.53898875       0.05610620
H       -0.07664640      -1.93272148      -0.11414183
13
Frame=15 idx=010038 GeodesicLength=0.6848954851100978 rxn_smarts="[N:1]([c:2]1[c:3]([H:10])[c:4]([H:11])[c:5]([O:6][H:12])[n:7]1[H:13])([H:8])[H:9]>>[N:1]([C@@:2]1([H:10])[C-:3]=[C:4]([H:11])[C+:5]([O:6][H:12])[N:7]1[H:13])([H:8])[H:9]"
N       -2.17515316      -0.35542121       0.40769309
C       -0.94040947       0.05792015      -0.17079188
C       -0.27534091       1.31840946      -0.04848166
C        1.09918487       1.03944667       0.00694543
C        1.25622665      -0.34400717       0.04165823
O        2.35504652      -1.10293297       0.12915608
N        0.07753013      -0.94187730      -0.14358903
H       -2.95365998      -0.09063196      -0.17824993
H       -2.31053370       0.06516028       1.31679375
H       -1.09902587       1.08687341      -1.18071163
H        1.91183916       1.73904569      -0.13653920
H        3.12857448      -0.53698835       0.07384155
H       -0.07427873      -1.93499670      -0.11772479
13
Frame=16 idx=010038 GeodesicLength=0.7305896414492169 rxn_smarts="[N:1]([c:2]1[c:3]([H:10])[c:4]([H:11])[c:5]([O:6][H:12])[n:7]1[H:13])([H:8])[H:9]>>[N:1]([C@@:2]1([H:10])[C-:3]=[C:4]([H:11])[C+:5]([O:6][H:12])[N:7]1[H:13])([H:8])[H:9]"
N       -2.17325335      -0.36006443       0.40134325
C       -0.94241820       0.05389951      -0.18842371
C       -0.27536978       1.31316773      -0.06837380
C        1.09696668       1.03892263       0.00559527
C        1.25409213      -0.34578145       0.05142922
O        2.35402506      -1.10182030       0.14773099
N        0.07938160      -0.94417585      -0.14912170
H       -2.95704648      -0.05641732      -0.15823423
H       -2.28510062       0.02992028       1.32731019
H       -1.11632023       1.10808132      -1.19407007
H        1.91018963       1.73669417      -0.14417297
H        3.12674875      -0.53508578       0.08921880
H       -0.07189519      -1.93734050      -0.12023124
