17
Frame=0 idx=010880 GeodesicLength=0.0 rxn_smarts="[C:1]([C@@:2]1([H:11])[O:3][C@@:4]2([H:12])[C:5]([H:13])([H:14])[C@@:6]12[C:7]([H:15])([H:16])[H:17])([H:8])([H:9])[H:10]>>[C:1]([C@@:2]1([H:11])[O:3][C:4]([H:12])([H:13])[C@:6]1([C:5][H:14])[C:7]([H:15])([H:16])[H:17])([H:8])([H:9])[H:10]"
C       -2.06074354      -0.20873750       0.31595581
C       -0.61784393      -0.12700443       0.72931998
O        0.00105793      -1.42393606       0.95203614
C        1.10006419      -1.07334242       0.15183634
C        0.59253535      -0.56664383      -1.50496129
C        0.48508733       0.25007787      -0.29354199
C        1.17881510       1.58183942      -0.20617603
H       -2.46645484       0.79651698       0.18345600
H       -2.17688976      -0.76092019      -0.61694582
H       -2.64485489      -0.71372304       1.08719681
H       -0.51079677       0.46295314       1.64527986
H        2.09506062      -1.08818114       0.59171057
H        1.26957121      -1.69822846      -0.83445553
H       -0.29224253      -1.20922633      -1.61571868
H        0.53169304       2.36400326      -0.60985949
H        1.42400947       1.84557836       0.82531143
H        2.09193204       1.56897434      -0.80044404
17
Frame=1 idx=010880 GeodesicLength=0.053152711141041545 rxn_smarts="[C:1]([C@@:2]1([H:11])[O:3][C@@:4]2([H:12])[C:5]([H:13])([H:14])[C@@:6]12[C:7]([H:15])([H:16])[H:17])([H:8])([H:9])[H:10]>>[C:1]([C@@:2]1([H:11])[O:3][C:4]([H:12])([H:13])[C@:6]1([C:5][H:14])[C:7]([H:15])([H:16])[H:17])([H:8])([H:9])[H:10]"
C       -2.06189419      -0.20608025       0.31764040
C       -0.61853326      -0.12790527       0.73054733
O       -0.00211377      -1.42612048       0.94963234
C        1.09934082      -1.07545746       0.15133439
C        0.59131462      -0.57245790      -1.49867912
C        0.48300795       0.25028846      -0.29216709
C        1.17767445       1.58131176      -0.20709030
H       -2.46555243       0.80013146       0.18598857
H       -2.17965318      -0.75719140      -0.61569378
H       -2.64679624      -0.71047806       1.08866170
H       -0.51010763       0.46092344       1.64718099
H        2.09034258      -1.08614563       0.60041384
H        1.29137904      -1.69510919      -0.85106134
H       -0.29301003      -1.21318133      -1.61795503
H        0.53103592       2.36315485      -0.61226683
H        1.42222061       1.84689612       0.82408014
H        2.09134473       1.56742089      -0.80056621
17
Frame=2 idx=010880 GeodesicLength=0.10630134846214873 rxn_smarts="[C:1]([C@@:2]1([H:11])[O:3][C@@:4]2([H:12])[C:5]([H:13])([H:14])[C@@:6]12[C:7]([H:15])([H:16])[H:17])([H:8])([H:9])[H:10]>>[C:1]([C@@:2]1([H:11])[O:3][C:4]([H:12])([H:13])[C@:6]1([C:5][H:14])[C:7]([H:15])([H:16])[H:17])([H:8])([H:9])[H:10]"
C       -2.06308288      -0.20343037       0.31933981
C       -0.61927673      -0.12877542       0.73180990
O       -0.00535155      -1.42823970       0.94740450
C        1.09852059      -1.07767493       0.15089620
C        0.59002196      -0.57836229      -1.49233252
C        0.48089392       0.25043990      -0.29077025
C        1.17656288       1.58069200      -0.20800951
H       -2.46468519       0.80372120       0.18843862
H       -2.18242827      -0.75355213      -0.61437796
H       -2.64878999      -0.70716999       1.09017525
H       -0.50948621       0.45899666       1.64906813
H        2.08550280      -1.08434674       0.60897423
H        1.31361954      -1.69109327      -0.86793302
H       -0.29373746      -1.21726719      -1.62012861
H        0.53044412       2.36223277      -0.61469366
H        1.42049019       1.84811780       0.82283407
H        2.09078227       1.56571169      -0.80069518
17
Frame=3 idx=010880 GeodesicLength=0.15944554668889788 rxn_smarts="[C:1]([C@@:2]1([H:11])[O:3][C@@:4]2([H:12])[C:5]([H:13])([H:14])[C@@:6]12[C:7]([H:15])([H:16])[H:17])([H:8])([H:9])[H:10]>>[C:1]([C@@:2]1([H:11])[O:3][C:4]([H:12])([H:13])[C@:6]1([C:5][H:14])[C:7]([H:15])([H:16])[H:17])([H:8])([H:9])[H:10]"
C       -2.06430935      -0.20078858       0.32105246
C       -0.62007459      -0.12961486       0.73310871
O       -0.00865623      -1.43029309       0.94536381
C        1.09760118      -1.08000217       0.15052593
C        0.58866271      -0.58436691      -1.48591774
C        0.47874669       0.25052656      -0.28935084
C        1.17548152       1.57997474      -0.20893462
H       -2.46385213       0.80728549       0.19080019
H       -2.18521372      -0.75000651      -0.61299849
H       -2.65083732      -0.70379646       1.09173658
H       -0.50893410       0.45717701       1.65094024
H        2.08055040      -1.08279277       0.61738557
H        1.33627564      -1.68612733      -0.88507124
H       -0.29442561      -1.22148500      -1.62223820
H        0.52991833       2.36123081      -0.61714155
H        1.41882140       1.84923841       0.82157170
H        2.09024517       1.56384065      -0.80083252
17
Frame=4 idx=010880 GeodesicLength=0.21258830859912514 rxn_smarts="[C:1]([C@@:2]1([H:11])[O:3][C@@:4]2([H:12])[C:5]([H:13])([H:14])[C@@:6]12[C:7]([H:15])([H:16])[H:17])([H:8])([H:9])[H:10]>>[C:1]([C@@:2]1([H:11])[O:3][C:4]([H:12])([H:13])[C@:6]1([C:5][H:14])[C:7]([H:15])([H:16])[H:17])([H:8])([H:9])[H:10]"
C       -2.06557452      -0.19815599       0.32277751
C       -0.62092764      -0.13042360       0.73444558
O       -0.01202833      -1.43228137       0.94352307
C        1.09658158      -1.08244799       0.15022826
C        0.58724472      -0.59048145      -1.47943158
C        0.47656884       0.25054315      -0.28790819
C        1.17443251       1.57915609      -0.20986625
H       -2.46305355       0.81082396       0.19306347
H       -2.18800839      -0.74656100      -0.61155422
H       -2.65294238      -0.70035502       1.09334629
H       -0.50845457       0.45546978       1.65279698
H        2.07549744      -1.08149463       0.62564003
H        1.35932598      -1.68016136      -0.90247635
H       -0.29507431      -1.22583435      -1.62428331
H        0.52945944       2.36014547      -0.61961133
H        1.41721865       1.85025364       0.82029236
H        2.08973453       1.56180467      -0.80098232
17
Frame=5 idx=010880 GeodesicLength=0.2657136276263691 rxn_smarts="[C:1]([C@@:2]1([H:11])[O:3][C@@:4]2([H:12])[C:5]([H:13])([H:14])[C@@:6]12[C:7]([H:15])([H:16])[H:17])([H:8])([H:9])[H:10]>>[C:1]([C@@:2]1([H:11])[O:3][C:4]([H:12])([H:13])[C@:6]1([C:5][H:14])[C:7]([H:15])([H:16])[H:17])([H:8])([H:9])[H:10]"
C       -2.06687325      -0.19553580       0.32451111
C       -0.62183294      -0.13120025       0.73581979
O       -0.01546623      -1.43419850       0.94189368
C        1.09545912      -1.08501579       0.15000911
C        0.58577409      -0.59671727      -1.47286685
C        0.47436245       0.25048366      -0.28644087
C        1.17341651       1.57822847      -0.21080329
H       -2.46228339       0.81432979       0.19521668
H       -2.19080693      -0.74322354      -0.61004560
H       -2.65510016      -0.69684431       1.09499915
H       -0.50804538       0.45388193       1.65463354
H        2.07035456      -1.08045939       0.63373011
H        1.38272580      -1.67313854      -0.92014182
H       -0.29568544      -1.23030980      -1.62626353
H        0.52906733       2.35896523      -0.62210063
H        1.41568743       1.85115647       0.81899517
H        2.08924642       1.55959762      -0.80114574
17
Frame=6 idx=010880 GeodesicLength=0.31884442124743334 rxn_smarts="[C:1]([C@@:2]1([H:11])[O:3][C@@:4]2([H:12])[C:5]([H:13])([H:14])[C@@:6]12[C:7]([H:15])([H:16])[H:17])([H:8])([H:9])[H:10]>>[C:1]([C@@:2]1([H:11])[O:3][C:4]([H:12])([H:13])[C@:6]1([C:5][H:14])[C:7]([H:15])([H:16])[H:17])([H:8])([H:9])[H:10]"
C       -2.06820562      -0.19292172       0.32625331
C       -0.62279013      -0.13195188       0.73723332
O       -0.01897442      -1.43605550       0.94047468
C        1.09423337      -1.08771576       0.14987216
C        0.58425461      -0.60308600      -1.46622143
C        0.47212728       0.25033845      -0.28494895
C        1.17242954       1.57718433      -0.21175111
H       -2.46153516       0.81781408       0.19727117
H       -2.19361233      -0.73998110      -0.60847678
H       -2.65731331      -0.69325495       1.09669536
H       -0.50770276       0.45240241       1.65645467
H        2.06512545      -1.07968641       0.64166463
H        1.40648163      -1.66499296      -0.93807552
H       -0.29625757      -1.23492344      -1.62817496
H        0.52874041       2.35767754      -0.62462920
H        1.41421476       1.85194772       0.81767479
H        2.08878425       1.55720519      -0.80131614
17
Frame=7 idx=010880 GeodesicLength=0.37197950769565835 rxn_smarts="[C:1]([C@@:2]1([H:11])[O:3][C@@:4]2([H:12])[C:5]([H:13])([H:14])[C@@:6]12[C:7]([H:15])([H:16])[H:17])([H:8])([H:9])[H:10]>>[C:1]([C@@:2]1([H:11])[O:3][C:4]([H:12])([H:13])[C@:6]1([C:5][H:14])[C:7]([H:15])([H:16])[H:17])([H:8])([H:9])[H:10]"
C       -2.06957542      -0.19031561       0.32800383
C       -0.62380112      -0.13267948       0.73868873
O       -0.02255235      -1.43785768       0.93928090
C        1.09290840      -1.09055883       0.14982411
C        0.58270351      -0.60959922      -1.45949356
C        0.46986863       0.25010280      -0.28343325
C        1.17147545       1.57602388      -0.21271304
H       -2.46081470       0.82127829       0.19922122
H       -2.19642358      -0.73683981      -0.60684776
H       -2.65958993      -0.68958856       1.09843747
H       -0.50743384       0.45103566       1.65826193
H        2.05982962      -1.07919162       0.64943688
H        1.43055050      -1.65567926      -0.95627333
H       -0.29678461      -1.23967069      -1.63002191
H        0.52848025       2.35628470      -0.62720245
H        1.41280347       1.85262770       0.81632906
H        2.08835571       1.55462773      -0.80149884
17
Frame=8 idx=010880 GeodesicLength=0.42510510538830903 rxn_smarts="[C:1]([C@@:2]1([H:11])[O:3][C@@:4]2([H:12])[C:5]([H:13])([H:14])[C@@:6]12[C:7]([H:15])([H:16])[H:17])([H:8])([H:9])[H:10]>>[C:1]([C@@:2]1([H:11])[O:3][C:4]([H:12])([H:13])[C@:6]1([C:5][H:14])[C:7]([H:15])([H:16])[H:17])([H:8])([H:9])[H:10]"
C       -2.07096935      -0.18772214       0.32975484
C       -0.62485833      -0.13338089       0.74018270
O       -0.02619600      -1.43959274       0.93831998
C        1.09148007      -1.09354138       0.14987321
C        0.58112455      -0.61626915      -1.45267191
C        0.46758808       0.24976975      -0.28189130
C        1.17055236       1.57473587      -0.21368591
H       -2.46010660       0.82471005       0.20105435
H       -2.19922888      -0.73380899      -0.60516163
H       -2.66191295      -0.68584285       1.10021412
H       -0.50723009       0.44978902       1.66004690
H        2.05447537      -1.07897221       0.65704104
H        1.45485738      -1.64514202      -0.97472593
H       -0.29727003      -1.24454195      -1.63180315
H        0.52828641       2.35476625      -0.62981824
H        1.41145531       1.85318918       0.81495756
H        2.08795268       1.55185420      -0.80168663
17
Frame=9 idx=010880 GeodesicLength=0.47826748269564406 rxn_smarts="[C:1]([C@@:2]1([H:11])[O:3][C@@:4]2([H:12])[C:5]([H:13])([H:14])[C@@:6]12[C:7]([H:15])([H:16])[H:17])([H:8])([H:9])[H:10]>>[C:1]([C@@:2]1([H:11])[O:3][C:4]([H:12])([H:13])[C@:6]1([C:5][H:14])[C:7]([H:15])([H:16])[H:17])([H:8])([H:9])[H:10]"
C       -2.07239402      -0.18513916       0.33150990
C       -0.62596371      -0.13406341       0.74172148
O       -0.02990817      -1.44127854       0.93760121
C        1.08995518      -1.09667989       0.15002913
C        0.57953533      -0.62310697      -1.44575676
C        0.46529130       0.24933197      -0.28032318
C        1.16966294       1.57332253      -0.21467638
H       -2.45941504       0.82811955       0.20277102
H       -2.20203369      -0.73088389      -0.60341995
H       -2.66429734      -0.68201519       1.10203251
H       -0.50709436       0.44865573       1.66181867
H        2.04908086      -1.07904006       0.66448457
H        1.47937947      -1.63333525      -0.99344819
H       -0.29770963      -1.24953833      -1.63352205
H        0.52816170       2.35312333      -0.63250284
H        1.41015820       1.85364379       0.81355740
H        2.08759097       1.54888377      -0.80187655
17
Frame=10 idx=010880 GeodesicLength=0.5313671192886139 rxn_smarts="[C:1]([C@@:2]1([H:11])[O:3][C@@:4]2([H:12])[C:5]([H:13])([H:14])[C@@:6]12[C:7]([H:15])([H:16])[H:17])([H:8])([H:9])[H:10]>>[C:1]([C@@:2]1([H:11])[O:3][C:4]([H:12])([H:13])[C@:6]1([C:5][H:14])[C:7]([H:15])([H:16])[H:17])([H:8])([H:9])[H:10]"
C       -2.07384142      -0.18256584       0.33326558
C       -0.62711161      -0.13473091       0.74330243
O       -0.03368485      -1.44291582       0.93712115
C        1.08833489      -1.09997695       0.15028700
C        0.57794446      -0.63012100      -1.43874505
C        0.46298044       0.24878227      -0.27873005
C        1.16880206       1.57177283      -0.21568434
H       -2.45872557       0.83150616       0.20436313
H       -2.20483071      -0.72806669      -0.60162123
H       -2.66673594      -0.67809229       1.10389103
H       -0.50702123       0.44763184       1.66357245
H        2.04365554      -1.07939712       0.67175515
H        1.50406312      -1.62019504      -1.01240042
H       -0.29809953      -1.25465318      -1.63517901
H        0.52810100       2.35133556      -0.63526079
H        1.40890262       1.85398353       0.81212489
H        2.08726672       1.54570267      -0.80206190
17
Frame=11 idx=010880 GeodesicLength=0.5845425731913513 rxn_smarts="[C:1]([C@@:2]1([H:11])[O:3][C@@:4]2([H:12])[C:5]([H:13])([H:14])[C@@:6]12[C:7]([H:15])([H:16])[H:17])([H:8])([H:9])[H:10]>>[C:1]([C@@:2]1([H:11])[O:3][C:4]([H:12])([H:13])[C@:6]1([C:5][H:14])[C:7]([H:15])([H:16])[H:17])([H:8])([H:9])[H:10]"
C       -2.07530589      -0.18000929       0.33501638
C       -0.62830129      -0.13537706       0.74492576
O       -0.03751931      -1.44449277       0.93689981
C        1.08662453      -1.10342940       0.15067038
C        0.57637017      -0.63732089      -1.43162245
C        0.46066098       0.24811835      -0.27710665
C        1.16797303       1.57008665      -0.21670663
H       -2.45803995       0.83485755       0.20581864
H       -2.20760556      -0.72537706      -0.59976453
H       -2.66922210      -0.67408070       1.10578172
H       -0.50701845       0.44673389       1.66530275
H        2.03822491      -1.08004671       0.67885222
H        1.52880226      -1.60571564      -1.03163193
H       -0.29843125      -1.25987124      -1.63676958
H        0.52811379       2.34940113      -0.63810353
H        1.40768307       1.85421826       0.81066264
H        2.08699106       1.54230495      -0.80222500
17
Frame=12 idx=010880 GeodesicLength=0.6377286286847517 rxn_smarts="[C:1]([C@@:2]1([H:11])[O:3][C@@:4]2([H:12])[C:5]([H:13])([H:14])[C@@:6]12[C:7]([H:15])([H:16])[H:17])([H:8])([H:9])[H:10]>>[C:1]([C@@:2]1([H:11])[O:3][C:4]([H:12])([H:13])[C@:6]1([C:5][H:14])[C:7]([H:15])([H:16])[H:17])([H:8])([H:9])[H:10]"
C       -2.07679440      -0.17746952       0.33675965
C       -0.62953228      -0.13601130       0.74659793
O       -0.04140962      -1.44603096       0.93695040
C        1.08483720      -1.10705092       0.15119091
C        0.57483681      -0.64471988      -1.42439114
C        0.45834221       0.24733319      -0.27545639
C        1.16718146       1.56826653      -0.21775116
H       -2.45736297       0.83818375       0.20713130
H       -2.21036367      -0.72281335      -0.59786025
H       -2.67177284      -0.66998131       1.10770765
H       -0.50708796       0.44595249       1.66702224
H        2.03281447      -1.08099710       0.68578466
H        1.55353284      -1.58984402      -1.05111705
H       -0.29869856      -1.26518645      -1.63830904
H        0.52819572       2.34732289      -0.64103890
H        1.40651282       1.85434532       0.80916628
H        2.08676876       1.53870067      -0.80238709
17
Frame=13 idx=010880 GeodesicLength=0.6908798590016467 rxn_smarts="[C:1]([C@@:2]1([H:11])[O:3][C@@:4]2([H:12])[C:5]([H:13])([H:14])[C@@:6]12[C:7]([H:15])([H:16])[H:17])([H:8])([H:9])[H:10]>>[C:1]([C@@:2]1([H:11])[O:3][C:4]([H:12])([H:13])[C@:6]1([C:5][H:14])[C:7]([H:15])([H:16])[H:17])([H:8])([H:9])[H:10]"
C       -2.07827409      -0.17495163       0.33848312
C       -0.63078621      -0.13663071       0.74830516
O       -0.04535165      -1.44750261       0.93725536
C        1.08295845      -1.11082450       0.15184427
C        0.57334187      -0.65231829      -1.41703754
C        0.45602313       0.24642333      -0.27377315
C        1.16641474       1.56630490      -0.21880463
H       -2.45664705       0.84146425       0.20829236
H       -2.21308134      -0.72038143      -0.59590824
H       -2.67434773      -0.66578411       1.10964259
H       -0.50720301       0.44529086       1.66870641
H        2.02741769      -1.08222371       0.69253874
H        1.57814331      -1.57259586      -1.07082949
H       -0.29890033      -1.27059567      -1.63978044
H        0.52834142       2.34507234      -0.64405743
H        1.40537365       1.85436800       0.80764118
H        2.08657715       1.53488483      -0.80251827
17
Frame=14 idx=010880 GeodesicLength=0.7440610156860878 rxn_smarts="[C:1]([C@@:2]1([H:11])[O:3][C@@:4]2([H:12])[C:5]([H:13])([H:14])[C@@:6]12[C:7]([H:15])([H:16])[H:17])([H:8])([H:9])[H:10]>>[C:1]([C@@:2]1([H:11])[O:3][C:4]([H:12])([H:13])[C@:6]1([C:5][H:14])[C:7]([H:15])([H:16])[H:17])([H:8])([H:9])[H:10]"
C       -2.07976226      -0.17245629       0.34018673
C       -0.63207097      -0.13723816       0.75005935
O       -0.04933541      -1.44892906       0.93784693
C        1.08101743      -1.11476279       0.15266062
C        0.57192709      -0.66012854      -1.40955966
C        0.45371927       0.24538525      -0.27205847
C        1.16568353       1.56420774      -0.21987569
H       -2.45592543       0.84470889       0.20928796
H       -2.21575802      -0.71808642      -0.59391735
H       -2.67697374      -0.66149695       1.11159799
H       -0.50739083       0.44475221       1.67037414
H        2.02208527      -1.08374042       0.69912538
H        1.60253916      -1.55396304      -1.09080357
H       -0.29901691      -1.27607363      -1.64120012
H        0.52855042       2.34266481      -0.64717320
H        1.40427187       1.85428979       0.80608503
H        2.08643955       1.53086660      -0.80263606
17
Frame=15 idx=010880 GeodesicLength=0.7972632373037305 rxn_smarts="[C:1]([C@@:2]1([H:11])[O:3][C@@:4]2([H:12])[C:5]([H:13])([H:14])[C@@:6]12[C:7]([H:15])([H:16])[H:17])([H:8])([H:9])[H:10]>>[C:1]([C@@:2]1([H:11])[O:3][C:4]([H:12])([H:13])[C@:6]1([C:5][H:14])[C:7]([H:15])([H:16])[H:17])([H:8])([H:9])[H:10]"
C       -2.08124532      -0.16999540       0.34185943
C       -0.63337865      -0.13782697       0.75185601
O       -0.05335085      -1.45029380       0.93873526
C        1.07901786      -1.11885244       0.15365384
C        0.57060858      -0.66814903      -1.40194610
C        0.45143873       0.24422230      -0.27030804
C        1.16499143       1.56197914      -0.22095540
H       -2.45518875       0.84789719       0.21009431
H       -2.21837435      -0.71595231      -0.59189006
H       -2.67963464      -0.65712900       1.11355904
H       -0.50765106       0.44435285       1.67201370
H        2.01684049      -1.08553220       0.70553541
H        1.62657490      -1.53399593      -1.11104408
H       -0.29904327      -1.28159480      -1.64256540
H        0.52882692       2.34009938      -0.65037432
H        1.40321175       1.85411602       0.80450440
H        2.08635623       1.52665501      -0.80272801
17
Frame=16 idx=010880 GeodesicLength=0.850475895407333 rxn_smarts="[C:1]([C@@:2]1([H:11])[O:3][C@@:4]2([H:12])[C:5]([H:13])([H:14])[C@@:6]12[C:7]([H:15])([H:16])[H:17])([H:8])([H:9])[H:10]>>[C:1]([C@@:2]1([H:11])[O:3][C:4]([H:12])([H:13])[C@:6]1([C:5][H:14])[C:7]([H:15])([H:16])[H:17])([H:8])([H:9])[H:10]"
C       -2.08271537      -0.16757891       0.34349183
C       -0.63470370      -0.13839180       0.75369357
O       -0.05738601      -1.45158654       0.93993295
C        1.07696986      -1.12308262       0.15484030
C        0.56940750      -0.67637638      -1.39418856
C        0.44919151       0.24293866      -0.26851837
C        1.16434328       1.55962563      -0.22203696
H       -2.45443666       0.85101381       0.21069013
H       -2.22091416      -0.71399861      -0.58983121
H       -2.68232171      -0.65269072       1.11551492
H       -0.50798826       0.44410606       1.67361978
H        2.01171152      -1.08758491       0.71176683
H        1.65010817      -1.51275619      -1.13156550
H       -0.29896883      -1.28713285      -1.64387725
H        0.52917404       2.33738025      -0.65365338
H        1.40219626       1.85385360       0.80290619
H        2.08633257       1.52226153      -0.80278527
