14
Frame=0 idx=010564 GeodesicLength=0.0 rxn_smarts="[C:1]([C@@:2]1([C:5](=[O:6])[N:7]([H:13])[H:14])[C:3]([H:11])([H:12])[O:4]1)([H:8])([H:9])[H:10]>>[C:1]([C@@:2]1(/[C:5]([O:6][H:14])=[N:7]\[H:13])[C:3]([H:11])([H:12])[O:4]1)([H:8])([H:9])[H:10]"
C        1.16586174      -1.23685479      -0.07156565
C        0.30691530      -0.01033859      -0.18867006
C        0.87907727       1.32788020      -0.36363927
O        0.27660497       0.64393186      -1.44711124
C       -1.01900091      -0.08078666       0.48025521
O       -1.19456254      -0.63464476       1.62408899
N       -2.16080403       0.38110344       0.07596116
H        2.12672253      -1.06932983      -0.55659585
H        1.32380306      -1.48118115       0.97844164
H        0.67617017      -2.08708384      -0.54880505
H        0.33689147       2.19644482      -0.00188270
H        1.95970802       1.42545236      -0.41332713
H       -2.31002046       0.81845952      -0.82028920
H       -2.36736664      -0.19305258       1.25313919
14
Frame=1 idx=010564 GeodesicLength=0.04761539925497745 rxn_smarts="[C:1]([C@@:2]1([C:5](=[O:6])[N:7]([H:13])[H:14])[C:3]([H:11])([H:12])[O:4]1)([H:8])([H:9])[H:10]>>[C:1]([C@@:2]1(/[C:5]([O:6][H:14])=[N:7]\[H:13])[C:3]([H:11])([H:12])[O:4]1)([H:8])([H:9])[H:10]"
C        1.16518485      -1.23314130      -0.05869379
C        0.30806518      -0.00609508      -0.18320094
C        0.88331153       1.32733327      -0.38095979
O        0.26916903       0.63124336      -1.45029481
C       -1.01281881      -0.05486561       0.49834009
O       -1.19391206      -0.64562016       1.62238928
N       -2.16042584       0.37667165       0.07698835
H        2.12414774      -1.07278789      -0.54999723
H        1.32791116      -1.46769719       0.99283159
H        0.67222165      -2.08697104      -0.52607729
H        0.35101433       2.20535652      -0.02768721
H        1.96380526       1.42112310      -0.44256772
H       -2.30175284       0.90026326      -0.77242784
H       -2.39592119      -0.29481287       1.20135730
14
Frame=2 idx=010564 GeodesicLength=0.09459007124779652 rxn_smarts="[C:1]([C@@:2]1([C:5](=[O:6])[N:7]([H:13])[H:14])[C:3]([H:11])([H:12])[O:4]1)([H:8])([H:9])[H:10]>>[C:1]([C@@:2]1(/[C:5]([O:6][H:14])=[N:7]\[H:13])[C:3]([H:11])([H:12])[O:4]1)([H:8])([H:9])[H:10]"
C        1.16390384      -1.22926257      -0.04572125
C        0.30860512      -0.00169203      -0.17681805
C        0.88681140       1.32656413      -0.39741007
O        0.26084436       0.61863229      -1.45221009
C       -1.00706775      -0.02907804       0.51727154
O       -1.19595552      -0.65826305       1.61869226
N       -2.15862973       0.37340137       0.07693908
H        2.12086546      -1.07584195      -0.54305156
H        1.33097912      -1.45467562       1.00705463
H        0.66791216      -2.08628134      -0.50400410
H        0.36411515       2.21376965      -0.05315160
H        1.96690515       1.41646441      -0.47135333
H       -2.29461693       0.97482261      -0.71956088
H       -2.41467184      -0.38855985       1.14332341
14
Frame=3 idx=010564 GeodesicLength=0.14144092706832026 rxn_smarts="[C:1]([C@@:2]1([C:5](=[O:6])[N:7]([H:13])[H:14])[C:3]([H:11])([H:12])[O:4]1)([H:8])([H:9])[H:10]>>[C:1]([C@@:2]1(/[C:5]([O:6][H:14])=[N:7]\[H:13])[C:3]([H:11])([H:12])[O:4]1)([H:8])([H:9])[H:10]"
C        1.16227874      -1.22550676      -0.03324859
C        0.30878025       0.00266645      -0.17029097
C        0.88993849       1.32556818      -0.41255394
O        0.25221271       0.60697510      -1.45320319
C       -1.00199891      -0.00453577       0.53555697
O       -1.19892587      -0.67024917       1.61377699
N       -2.15583685       0.37140057       0.07590235
H        2.11750823      -1.07859937      -0.53580131
H        1.33290993      -1.44281759       1.02060667
H        0.66358720      -2.08525721      -0.48341985
H        0.37621832       2.22110553      -0.07665823
H        1.96953618       1.41134173      -0.49829098
H       -2.29141345       1.03974991      -0.66489549
H       -2.42479496      -0.47184159       1.08251957
14
Frame=4 idx=010564 GeodesicLength=0.1885921596234212 rxn_smarts="[C:1]([C@@:2]1([C:5](=[O:6])[N:7]([H:13])[H:14])[C:3]([H:11])([H:12])[O:4]1)([H:8])([H:9])[H:10]>>[C:1]([C@@:2]1(/[C:5]([O:6][H:14])=[N:7]\[H:13])[C:3]([H:11])([H:12])[O:4]1)([H:8])([H:9])[H:10]"
C        1.16090948      -1.22197917      -0.02124034
C        0.30863826       0.00645242      -0.16393178
C        0.89226151       1.32414322      -0.42665067
O        0.24349759       0.59562197      -1.45373418
C       -0.99777223       0.01742160       0.55253593
O       -1.20275598      -0.68285546       1.60721827
N       -2.15222503       0.37143866       0.07452255
H        2.11471921      -1.08074252      -0.52811711
H        1.33433615      -1.43195044       1.03363239
H        0.66036489      -2.08437617      -0.46428652
H        0.38643222       2.22704486      -0.09873727
H        1.97127628       1.40613970      -0.52348803
H       -2.29064448       1.09738068      -0.60899186
H       -2.42903789      -0.54373935       1.02126861
14
Frame=5 idx=010564 GeodesicLength=0.2356415847889759 rxn_smarts="[C:1]([C@@:2]1([C:5](=[O:6])[N:7]([H:13])[H:14])[C:3]([H:11])([H:12])[O:4]1)([H:8])([H:9])[H:10]>>[C:1]([C@@:2]1(/[C:5]([O:6][H:14])=[N:7]\[H:13])[C:3]([H:11])([H:12])[O:4]1)([H:8])([H:9])[H:10]"
C        1.16030162      -1.21866439      -0.00957727
C        0.30818447       0.00927426      -0.15773419
C        0.89322347       1.32209115      -0.43997297
O        0.23461745       0.58375197      -1.45395767
C       -0.99429415       0.03593940       0.56828042
O       -1.20777580      -0.69790098       1.59834770
N       -2.14779587       0.37510632       0.07432127
H        2.11285247      -1.08193514      -0.52005169
H        1.33602764      -1.42165815       1.04625722
H        0.65924414      -2.08395479      -0.44639244
H        0.39388394       2.23139141      -0.12001909
H        1.97147555       1.40121237      -0.54751180
H       -2.28958982       1.14948178      -0.55268054
H       -2.43035512      -0.60413520       0.96069105
14
Frame=6 idx=010564 GeodesicLength=0.28287947921683226 rxn_smarts="[C:1]([C@@:2]1([C:5](=[O:6])[N:7]([H:13])[H:14])[C:3]([H:11])([H:12])[O:4]1)([H:8])([H:9])[H:10]>>[C:1]([C@@:2]1(/[C:5]([O:6][H:14])=[N:7]\[H:13])[C:3]([H:11])([H:12])[O:4]1)([H:8])([H:9])[H:10]"
C        1.15951449      -1.21557530       0.00140385
C        0.30770910       0.01202296      -0.15173373
C        0.89412758       1.31995504      -0.45225567
O        0.22603842       0.57274150      -1.45371605
C       -0.99106403       0.05336479       0.58323886
O       -1.21228912      -0.71112684       1.58937538
N       -2.14298314       0.37910141       0.07363101
H        2.11101524      -1.08308395      -0.51210643
H        1.33697385      -1.41242044       1.05808133
H        0.65801458      -2.08340645      -0.42985782
H        0.40065973       2.23500828      -0.13977234
H        1.97157752       1.39605292      -0.56971807
H       -2.29131748       1.19442204      -0.49711041
H       -2.42797674      -0.65705595       0.90054010
14
Frame=7 idx=010564 GeodesicLength=0.32998969883773976 rxn_smarts="[C:1]([C@@:2]1([C:5](=[O:6])[N:7]([H:13])[H:14])[C:3]([H:11])([H:12])[O:4]1)([H:8])([H:9])[H:10]>>[C:1]([C@@:2]1(/[C:5]([O:6][H:14])=[N:7]\[H:13])[C:3]([H:11])([H:12])[O:4]1)([H:8])([H:9])[H:10]"
C        1.15941263      -1.21266741       0.01207914
C        0.30710000       0.01401642      -0.14593850
C        0.89403788       1.31737358      -0.46402931
O        0.21742133       0.56130901      -1.45332940
C       -0.98822329       0.06817881       0.59738669
O       -1.21738794      -0.72597485       1.57880325
N       -2.13777365       0.38562557       0.07413127
H        2.11002074      -1.08348083      -0.50391343
H        1.33824471      -1.40363646       1.06958035
H        0.65848138      -2.08325536      -0.41429014
H        0.40533644       2.23745266      -0.15897204
H        1.97057213       1.39118706      -0.59107420
H       -2.29236296       1.23528368      -0.44195679
H       -2.42487940      -0.70141189       0.84152311
14
Frame=8 idx=010564 GeodesicLength=0.37733067604811377 rxn_smarts="[C:1]([C@@:2]1([C:5](=[O:6])[N:7]([H:13])[H:14])[C:3]([H:11])([H:12])[O:4]1)([H:8])([H:9])[H:10]>>[C:1]([C@@:2]1(/[C:5]([O:6][H:14])=[N:7]\[H:13])[C:3]([H:11])([H:12])[O:4]1)([H:8])([H:9])[H:10]"
C        1.15934616      -1.20992056       0.02236636
C        0.30650255       0.01585985      -0.14027608
C        0.89378273       1.31466095      -0.47522679
O        0.20899165       0.55020939      -1.45267955
C       -0.98549319       0.08201159       0.61109090
O       -1.22225007      -0.73995097       1.56792913
N       -2.13230578       0.39275723       0.07471352
H        2.10920133      -1.08377076      -0.49575400
H        1.33919274      -1.39548775       1.08063927
H        0.65914703      -2.08312016      -0.39953698
H        0.40927418       2.23930751      -0.17741383
H        1.96936136       1.38620790      -0.61142083
H       -2.29486959       1.27148933      -0.38710102
H       -2.41988110      -0.74025357       0.78266990
14
Frame=9 idx=010564 GeodesicLength=0.4248103073497466 rxn_smarts="[C:1]([C@@:2]1([C:5](=[O:6])[N:7]([H:13])[H:14])[C:3]([H:11])([H:12])[O:4]1)([H:8])([H:9])[H:10]>>[C:1]([C@@:2]1(/[C:5]([O:6][H:14])=[N:7]\[H:13])[C:3]([H:11])([H:12])[O:4]1)([H:8])([H:9])[H:10]"
C        1.15986234      -1.20725616       0.03263603
C        0.30584851       0.01713534      -0.13480637
C        0.89279874       1.31154059      -0.48633123
O        0.20048081       0.53855912      -1.45201289
C       -0.98294269       0.09401558       0.62430325
O       -1.22761590      -0.75507603       1.55560563
N       -2.12654301       0.40159592       0.07608685
H        2.10912966      -1.08348092      -0.48713532
H        1.34035348      -1.38746598       1.09171139
H        0.66121918      -2.08332613      -0.38517301
H        0.41166244       2.24026726      -0.19585440
H        1.96732053       1.38132938      -0.63153000
H       -2.29689800       1.30534098      -0.33115211
H       -2.41467609      -0.77317895       0.72365219
14
Frame=10 idx=010564 GeodesicLength=0.4724407048777389 rxn_smarts="[C:1]([C@@:2]1([C:5](=[O:6])[N:7]([H:13])[H:14])[C:3]([H:11])([H:12])[O:4]1)([H:8])([H:9])[H:10]>>[C:1]([C@@:2]1(/[C:5]([O:6][H:14])=[N:7]\[H:13])[C:3]([H:11])([H:12])[O:4]1)([H:8])([H:9])[H:10]"
C        1.16046578      -1.20471799       0.04261044
C        0.30524517       0.01826408      -0.12946783
C        0.89165857       1.30829326      -0.49703443
O        0.19216424       0.52707609      -1.45116803
C       -0.98041084       0.10517557       0.63719039
O       -1.23276536      -0.76951816       1.54295421
N       -2.12055917       0.41093973       0.07764241
H        2.10926287      -1.08306945      -0.47852016
H        1.34130411      -1.37991504       1.10245513
H        0.66354692      -2.08356813      -0.37143287
H        0.41335688       2.24071289      -0.21378688
H        1.96508330       1.37637847      -0.65090706
H       -2.29990334       1.33536303      -0.27543979
H       -2.40844913      -0.80141434       0.66490447
14
Frame=11 idx=010564 GeodesicLength=0.5200910688486675 rxn_smarts="[C:1]([C@@:2]1([C:5](=[O:6])[N:7]([H:13])[H:14])[C:3]([H:11])([H:12])[O:4]1)([H:8])([H:9])[H:10]>>[C:1]([C@@:2]1(/[C:5]([O:6][H:14])=[N:7]\[H:13])[C:3]([H:11])([H:12])[O:4]1)([H:8])([H:9])[H:10]"
C        1.16139721      -1.20227238       0.05242120
C        0.30465332       0.01905254      -0.12430906
C        0.89009794       1.30481457      -0.50751935
O        0.18394325       0.51539863      -1.45026475
C       -0.97792413       0.11511372       0.64973796
O       -1.23797951      -0.78411569       1.52953112
N       -2.11436423       0.42119491       0.07969957
H        2.10984915      -1.08230791      -0.46973243
H        1.34230123      -1.37261500       1.11303585
H        0.66666301      -2.08398815      -0.35816532
H        0.41397692       2.24052086      -0.23149414
H        1.96236951       1.37149295      -0.66979407
H       -2.30280542       1.36249832      -0.21968202
H       -2.40217826      -0.82478738       0.60653543
14
Frame=12 idx=010564 GeodesicLength=0.5677600332496765 rxn_smarts="[C:1]([C@@:2]1([C:5](=[O:6])[N:7]([H:13])[H:14])[C:3]([H:11])([H:12])[O:4]1)([H:8])([H:9])[H:10]>>[C:1]([C@@:2]1(/[C:5]([O:6][H:14])=[N:7]\[H:13])[C:3]([H:11])([H:12])[O:4]1)([H:8])([H:9])[H:10]"
C        1.16247402      -1.19993475       0.06197665
C        0.30411072       0.01965726      -0.11930448
C        0.88833051       1.30121355      -0.51769384
O        0.17591605       0.50377586      -1.44925845
C       -0.97542230       0.12422053       0.66201556
O       -1.24299723      -0.79822968       1.51579060
N       -2.10799135       0.43191452       0.08205143
H        2.11067600      -1.08137483      -0.46095927
H        1.34321943      -1.36566864       1.12334007
H        0.67013052      -2.08448116      -0.34541828
H        0.41385580       2.23985086      -0.24881443
H        1.95941924       1.36662118      -0.68804838
H       -2.30607821       1.38639243      -0.16442768
H       -2.39564321      -0.84395713       0.54875050
14
Frame=13 idx=010564 GeodesicLength=0.6155602243272147 rxn_smarts="[C:1]([C@@:2]1([C:5](=[O:6])[N:7]([H:13])[H:14])[C:3]([H:11])([H:12])[O:4]1)([H:8])([H:9])[H:10]>>[C:1]([C@@:2]1(/[C:5]([O:6][H:14])=[N:7]\[H:13])[C:3]([H:11])([H:12])[O:4]1)([H:8])([H:9])[H:10]"
C        1.16370603      -1.19767867       0.07137730
C        0.30363062       0.02009293      -0.11444810
C        0.88638859       1.29746912      -0.52767837
O        0.16806831       0.49211430      -1.44819049
C       -0.97288343       0.13259340       0.67405464
O       -1.24790236      -0.81194046       1.50163589
N       -2.10140271       0.44310947       0.08463765
H        2.11175683      -1.08028711      -0.45210502
H        1.34405953      -1.35896668       1.13348575
H        0.67396542      -2.08505670      -0.33302150
H        0.41305458       2.23872196      -0.26593474
H        1.95626068       1.36171643      -0.70587002
H       -2.30982958       1.40741765      -0.10910155
H       -2.38887251      -0.85930564       0.49115855
14
Frame=14 idx=010564 GeodesicLength=0.6635133635328412 rxn_smarts="[C:1]([C@@:2]1([C:5](=[O:6])[N:7]([H:13])[H:14])[C:3]([H:11])([H:12])[O:4]1)([H:8])([H:9])[H:10]>>[C:1]([C@@:2]1(/[C:5]([O:6][H:14])=[N:7]\[H:13])[C:3]([H:11])([H:12])[O:4]1)([H:8])([H:9])[H:10]"
C        1.16509265      -1.19548992       0.08066324
C        0.30321321       0.02036950      -0.10972614
C        0.88427897       1.29357889      -0.53751928
O        0.16037999       0.48037631      -1.44706908
C       -0.97028713       0.14028789       0.68590985
O       -1.25272234      -0.82530121       1.48705176
N       -2.09459153       0.45480229       0.08752238
H        2.11308296      -1.07904731      -0.44315085
H        1.34483789      -1.35245878       1.14351733
H        0.67816313      -2.08571279      -0.32090307
H        0.41160343       2.23715214      -0.28291663
H        1.95289773       1.35676903      -0.72335943
H       -2.31400177       1.42571027      -0.05366931
H       -2.38194719      -0.87103631       0.43364923
14
Frame=15 idx=010564 GeodesicLength=0.7114138515456483 rxn_smarts="[C:1]([C@@:2]1([C:5](=[O:6])[N:7]([H:13])[H:14])[C:3]([H:11])([H:12])[O:4]1)([H:8])([H:9])[H:10]>>[C:1]([C@@:2]1(/[C:5]([O:6][H:14])=[N:7]\[H:13])[C:3]([H:11])([H:12])[O:4]1)([H:8])([H:9])[H:10]"
C        1.16651801      -1.19340537       0.08966015
C        0.30285432       0.02054861      -0.10515998
C        0.88208657       1.28964243      -0.54704183
O        0.15294018       0.46881099      -1.44586703
C       -0.96762905       0.14745452       0.69755974
O       -1.25718844      -0.83787281       1.47252443
N       -2.08764248       0.46663611       0.09060315
H        2.11449189      -1.07774960      -0.43437123
H        1.34555466      -1.34625475       1.15323070
H        0.68243379      -2.08639442      -0.30922978
H        0.40966322       2.23523937      -0.29942278
H        1.94944665       1.35184661      -0.74020008
H       -2.31853597       1.44092074       0.00066083
H       -2.37499335      -0.87942243       0.37705370
14
Frame=16 idx=010564 GeodesicLength=0.7593017758849934 rxn_smarts="[C:1]([C@@:2]1([C:5](=[O:6])[N:7]([H:13])[H:14])[C:3]([H:11])([H:12])[O:4]1)([H:8])([H:9])[H:10]>>[C:1]([C@@:2]1(/[C:5]([O:6][H:14])=[N:7]\[H:13])[C:3]([H:11])([H:12])[O:4]1)([H:8])([H:9])[H:10]"
C        1.16788461      -1.19143709       0.09833050
C        0.30257455       0.02071650      -0.10072497
C        0.87993678       1.28571540      -0.55621216
O        0.14579322       0.45754168      -1.44456542
C       -0.96488333       0.15432217       0.70903372
O       -1.26118221      -0.84937861       1.45832467
N       -2.08055926       0.47842091       0.09374926
H        2.11585864      -1.07651756      -0.42587750
H        1.34617148      -1.34039563       1.16257595
H        0.68653132      -2.08705595      -0.29799510
H        0.40744582       2.23308216      -0.31539454
H        1.94604600       1.34691352      -0.75635910
H       -2.32380625       1.45298040       0.05368269
H       -2.36781138      -0.88490790       0.32143201
