20
Frame=0 idx=009128 GeodesicLength=0.0 rxn_smarts="[C:1]([C@@:2]1([H:11])[N:3]([C:4]([H:12])([H:13])[H:14])[C:5]1([C:6]([H:15])([H:16])[H:17])[C:7]([H:18])([H:19])[H:20])([H:8])([H:9])[H:10]>>[C:1]([C@@:2]1([H:11])[N+:3]([C:4]([H:12])([H:13])[H:14])([C:7]([H:18])([H:19])[H:20])[C-:5]1[C:6]([H:15])([H:16])[H:17])([H:8])([H:9])[H:10]"
C       -1.30855758       1.82443907       0.84906342
C       -0.55913862       0.51930337       0.76431402
N       -0.59901058      -0.16829003      -0.50243508
C       -0.87362384      -1.58447575      -0.54006074
C        0.83263963       0.45137252       0.31422644
C        1.70538271      -0.61008708       0.89689771
C        0.65859817       0.38041152      -1.60158658
H       -2.38885704       1.66059248       0.84928814
H       -1.03661322       2.35630132       1.76309715
H       -1.05237466       2.45839309       0.00022357
H       -0.79581016      -0.17736018       1.57179708
H       -0.73743986      -1.93168040      -1.56857496
H       -0.24693240      -2.19920967       0.11382045
H       -1.91723487      -1.74487420      -0.26377564
H        2.18852467      -0.15234685       1.76518882
H        1.21043384      -1.52084895       1.26047706
H        2.50183265      -0.90139386       0.20574967
H        0.44868149       1.41247317      -1.85178815
H        0.23057851      -0.27308800      -2.38331024
H        1.73892116       0.20036842      -1.64261213
20
Frame=1 idx=009128 GeodesicLength=0.06518860304861765 rxn_smarts="[C:1]([C@@:2]1([H:11])[N:3]([C:4]([H:12])([H:13])[H:14])[C:5]1([C:6]([H:15])([H:16])[H:17])[C:7]([H:18])([H:19])[H:20])([H:8])([H:9])[H:10]>>[C:1]([C@@:2]1([H:11])[N+:3]([C:4]([H:12])([H:13])[H:14])([C:7]([H:18])([H:19])[H:20])[C-:5]1[C:6]([H:15])([H:16])[H:17])([H:8])([H:9])[H:10]"
C       -1.30585143       1.82438951       0.84238612
C       -0.55957976       0.51733750       0.76812714
N       -0.58847053      -0.17799671      -0.49547311
C       -0.86920767      -1.59278473      -0.53213556
C        0.82909608       0.43611181       0.31006014
C        1.70508863      -0.62126407       0.89615023
C        0.65356080       0.39862281      -1.60351020
H       -2.38664753       1.66371049       0.83558472
H       -1.03950834       2.35741317       1.75744692
H       -1.04312849       2.45770806      -0.00472976
H       -0.79978962      -0.17501130       1.57841787
H       -0.69808453      -1.95639485      -1.54943313
H       -0.27089415      -2.20263938       0.15179265
H       -1.92350915      -1.74285580      -0.29280396
H        2.20909293      -0.15116205       1.74563935
H        1.20672358      -1.51933650       1.28552800
H        2.48636677      -0.93480468       0.19758011
H        0.42976584       1.43234243      -1.83397192
H        0.22994202      -0.24444105      -2.39538524
H        1.73503456       0.23105534      -1.66127038
20
Frame=2 idx=009128 GeodesicLength=0.1302747297437249 rxn_smarts="[C:1]([C@@:2]1([H:11])[N:3]([C:4]([H:12])([H:13])[H:14])[C:5]1([C:6]([H:15])([H:16])[H:17])[C:7]([H:18])([H:19])[H:20])([H:8])([H:9])[H:10]>>[C:1]([C@@:2]1([H:11])[N+:3]([C:4]([H:12])([H:13])[H:14])([C:7]([H:18])([H:19])[H:20])[C-:5]1[C:6]([H:15])([H:16])[H:17])([H:8])([H:9])[H:10]"
C       -1.30309971       1.82429193       0.83572709
C       -0.55987152       0.51548413       0.77157365
N       -0.57808748      -0.18760066      -0.48879707
C       -0.86469618      -1.60112146      -0.52404192
C        0.82565692       0.42099859       0.30572121
C        1.70465425      -0.63251379       0.89528151
C        0.64840198       0.41659394      -1.60515091
H       -2.38431548       1.66664133       0.82182627
H       -1.04243916       2.35831368       1.75189638
H       -1.03390896       2.45722091      -0.00944717
H       -0.80359976      -0.17244510       1.58473150
H       -0.65857078      -1.98112147      -1.52852557
H       -0.29564254      -2.20495904       0.18920423
H       -1.92827540      -1.74131908      -0.32245532
H        2.22928675      -0.15076556       1.72538983
H        1.20318214      -1.51737132       1.30992890
H        2.47040100      -0.96826069       0.18997950
H        0.41117882       1.45146690      -1.81610142
H        0.22903881      -0.21555737      -2.40719570
H        1.73070631       0.26202414      -1.67954499
20
Frame=3 idx=009128 GeodesicLength=0.1952782064492935 rxn_smarts="[C:1]([C@@:2]1([H:11])[N:3]([C:4]([H:12])([H:13])[H:14])[C:5]1([C:6]([H:15])([H:16])[H:17])[C:7]([H:18])([H:19])[H:20])([H:8])([H:9])[H:10]>>[C:1]([C@@:2]1([H:11])[N+:3]([C:4]([H:12])([H:13])[H:14])([C:7]([H:18])([H:19])[H:20])[C-:5]1[C:6]([H:15])([H:16])[H:17])([H:8])([H:9])[H:10]"
C       -1.30030667       1.82415037       0.82908243
C       -0.56001994       0.51373610       0.77465454
N       -0.56786758      -0.19709747      -0.48241611
C       -0.86010338      -1.60947732      -0.51579635
C        0.82231641       0.40603478       0.30120603
C        1.70407666      -0.64381602       0.89431786
C        0.64315710       0.43429564      -1.60652376
H       -2.38186590       1.66939533       0.80801602
H       -1.04540827       2.35900897       1.74643865
H       -1.02471910       2.45692912      -0.01393777
H       -0.80724210      -0.16967436       1.59073302
H       -0.61923091      -2.00577163      -1.50590943
H       -0.32099025      -2.20619225       0.22581791
H       -1.93146367      -1.74035955      -0.35249883
H        2.24905499      -0.15115219       1.70451648
H        1.19979929      -1.51496725       1.33368052
H        2.45399141      -1.00170360       0.18301995
H        0.39296904       1.46985092      -1.79820670
H        0.22789384      -0.18642604      -2.41876360
H        1.72595903       0.29323644      -1.69743087
20
Frame=4 idx=009128 GeodesicLength=0.2602190646949011 rxn_smarts="[C:1]([C@@:2]1([H:11])[N:3]([C:4]([H:12])([H:13])[H:14])[C:5]1([C:6]([H:15])([H:16])[H:17])[C:7]([H:18])([H:19])[H:20])([H:8])([H:9])[H:10]>>[C:1]([C@@:2]1([H:11])[N+:3]([C:4]([H:12])([H:13])[H:14])([C:7]([H:18])([H:19])[H:20])[C-:5]1[C:6]([H:15])([H:16])[H:17])([H:8])([H:9])[H:10]"
C       -1.29747668       1.82396523       0.82244749
C       -0.56002983       0.51208388       0.77737097
N       -0.55781240      -0.20648699      -0.47633879
C       -0.85544629      -1.61784486      -0.50741330
C        0.81907054       0.39121987       0.29651113
C        1.70335822      -0.65515032       0.89328284
C        0.63786063       0.45170755      -1.60764554
H       -2.37930401       1.67197812       0.79415460
H       -1.04841955       2.35950162       1.74106637
H       -1.01556214       2.45682680      -0.01821102
H       -0.81071656      -0.16671394       1.59641847
H       -0.58035077      -2.03028340      -1.48165987
H       -0.34677253      -2.20637901       0.26145464
H       -1.93304616      -1.74004952      -0.38272669
H        2.26836161      -0.15231002       1.68308922
H        1.19657003      -1.51213422       1.35679278
H        2.43719348      -1.03508252       0.17675968
H        0.37518467       1.48750960      -1.78031070
H        0.22652324      -0.15701616      -2.43011389
H        1.72081450       0.32465829      -1.71492842
20
Frame=5 idx=009128 GeodesicLength=0.32511598758190596 rxn_smarts="[C:1]([C@@:2]1([H:11])[N:3]([C:4]([H:12])([H:13])[H:14])[C:5]1([C:6]([H:15])([H:16])[H:17])[C:7]([H:18])([H:19])[H:20])([H:8])([H:9])[H:10]>>[C:1]([C@@:2]1([H:11])[N+:3]([C:4]([H:12])([H:13])[H:14])([C:7]([H:18])([H:19])[H:20])[C-:5]1[C:6]([H:15])([H:16])[H:17])([H:8])([H:9])[H:10]"
C       -1.29461362       1.82373403       0.81581726
C       -0.55990465       0.51051638       0.77972356
N       -0.54791935      -0.21577280      -0.47057321
C       -0.85074279      -1.62621809      -0.49890555
C        0.81591632       0.37655127       0.29163260
C        1.70250424      -0.66649717       0.89219588
C        0.63254498       0.46881713      -1.60853361
H       -2.37663387       1.67439114       0.78024269
H       -1.05147618       2.35979195       1.73577111
H       -1.00644260       2.45690491      -0.02227657
H       -0.81402145      -0.16357967       1.60178363
H       -0.54216641      -2.05461795      -1.45586266
H       -0.37284887      -2.20557038       0.29598701
H       -1.93302829      -1.74044023      -0.41295707
H        2.28718254      -0.15422137       1.66116770
H        1.19349145      -1.50887728       1.37928214
H        2.42005860      -1.06835721       0.17124485
H        0.35787038       1.50446615      -1.76242926
H        0.22493714      -0.12728392      -2.44126963
H        1.71529244       0.35626311      -1.73204086
20
Frame=6 idx=009128 GeodesicLength=0.38998530957299865 rxn_smarts="[C:1]([C@@:2]1([H:11])[N:3]([C:4]([H:12])([H:13])[H:14])[C:5]1([C:6]([H:15])([H:16])[H:17])[C:7]([H:18])([H:19])[H:20])([H:8])([H:9])[H:10]>>[C:1]([C@@:2]1([H:11])[N+:3]([C:4]([H:12])([H:13])[H:14])([C:7]([H:18])([H:19])[H:20])[C-:5]1[C:6]([H:15])([H:16])[H:17])([H:8])([H:9])[H:10]"
C       -1.29172139       1.82345224       0.80918640
C       -0.55964709       0.50902114       0.78171311
N       -0.53818337      -0.22496137      -0.46512702
C       -0.84601203      -1.63459260      -0.49028333
C        0.81285253       0.36202459       0.28656627
C        1.70152413      -0.67783821       0.89107325
C        0.62724051       0.48561875      -1.60920723
H       -2.37386021       1.67663369       0.76627683
H       -1.05458321       2.35987685       1.73054554
H       -0.99736293       2.45715388      -0.02614320
H       -0.81715435      -0.16028831       1.60682595
H       -0.50487274      -2.07875617      -1.42860713
H       -0.39910310      -2.20382145       0.32933231
H       -1.93144113      -1.74156726      -0.44303433
H        2.30550353      -0.15686685       1.63880693
H        1.19056614      -1.50520050       1.40116780
H        2.40263647      -1.10149263       0.16651001
H        0.34106666       1.52075002      -1.74457524
H        0.22314006      -0.09717628      -2.45225183
H        1.70941154       0.38803047      -1.74877508
20
Frame=7 idx=009128 GeodesicLength=0.45484163082295936 rxn_smarts="[C:1]([C@@:2]1([H:11])[N:3]([C:4]([H:12])([H:13])[H:14])[C:5]1([C:6]([H:15])([H:16])[H:17])[C:7]([H:18])([H:19])[H:20])([H:8])([H:9])[H:10]>>[C:1]([C@@:2]1([H:11])[N+:3]([C:4]([H:12])([H:13])[H:14])([C:7]([H:18])([H:19])[H:20])[C-:5]1[C:6]([H:15])([H:16])[H:17])([H:8])([H:9])[H:10]"
C       -1.28880341       1.82311405       0.80254974
C       -0.55925896       0.50758545       0.78333995
N       -0.52859722      -0.23406137      -0.46000710
C       -0.84127210      -1.64296516      -0.48155509
C        0.80987837       0.34763426       0.28130732
C        1.70042795      -0.68915753       0.88992607
C        0.62197403       0.50211207      -1.60968551
H       -2.37098662       1.67870298       0.75225447
H       -1.05774471       2.35975232       1.72538190
H       -0.98832677       2.45756276      -0.02981920
H       -0.82011169      -0.15685603       1.61154280
H       -0.46861525      -2.10269407      -1.39997815
H       -0.42544536      -2.20118817       0.36144573
H       -1.92833315      -1.74345217      -0.47283264
H        2.32331906      -0.16022649       1.61605027
H        1.18779720      -1.50110454       1.42247027
H        2.38497020      -1.13446297       0.16257917
H        0.32480832       1.53639446      -1.72675658
H        0.22113290      -0.06663702      -2.46307493
H        1.70318721       0.41994717      -1.76513849
20
Frame=8 idx=009128 GeodesicLength=0.5196971822777334 rxn_smarts="[C:1]([C@@:2]1([H:11])[N:3]([C:4]([H:12])([H:13])[H:14])[C:5]1([C:6]([H:15])([H:16])[H:17])[C:7]([H:18])([H:19])[H:20])([H:8])([H:9])[H:10]>>[C:1]([C@@:2]1([H:11])[N+:3]([C:4]([H:12])([H:13])[H:14])([C:7]([H:18])([H:19])[H:20])[C-:5]1[C:6]([H:15])([H:16])[H:17])([H:8])([H:9])[H:10]"
C       -1.28586295       1.82271344       0.79590272
C       -0.55874186       0.50619656       0.78460442
N       -0.51915298      -0.24308295      -0.45521995
C       -0.83653998      -1.65133410      -0.47272777
C        0.80699372       0.33337357       0.27585059
C        1.69922718      -0.70044131       0.88876185
C        0.61676942       0.51830079      -1.60998825
H       -2.36801678       1.68059635       0.73817158
H       -1.06096532       2.35941301       1.72027409
H       -0.97933646       2.45812134      -0.03331103
H       -0.82288957      -0.15329827       1.61593269
H       -0.43350424      -2.12643923      -1.37005612
H       -0.45180604      -2.19772333       0.39231146
H       -1.92376388      -1.74610764      -0.50225211
H        2.34063048      -0.16428032       1.59293296
H        1.18519052      -1.49658846       1.44321083
H        2.36709694      -1.16724994       0.15946766
H        0.30912309       1.55143416      -1.70897993
H        0.21891565      -0.03561066      -2.47374773
H        1.69663305       0.45200698      -1.78113796
20
Frame=9 idx=009128 GeodesicLength=0.5845639483266326 rxn_smarts="[C:1]([C@@:2]1([H:11])[N:3]([C:4]([H:12])([H:13])[H:14])[C:5]1([C:6]([H:15])([H:16])[H:17])[C:7]([H:18])([H:19])[H:20])([H:8])([H:9])[H:10]>>[C:1]([C@@:2]1([H:11])[N+:3]([C:4]([H:12])([H:13])[H:14])([C:7]([H:18])([H:19])[H:20])[C-:5]1[C:6]([H:15])([H:16])[H:17])([H:8])([H:9])[H:10]"
C       -1.28290482       1.82224326       0.78923952
C       -0.55809630       0.50484213       0.78550734
N       -0.50984104      -0.25203660      -0.45077044
C       -0.83183239      -1.65969674      -0.46380507
C        0.80420004       0.31923553       0.27018991
C        1.69793479      -0.71167923       0.88758400
C        0.61164806       0.53419199      -1.61013694
H       -2.36495597       1.68230843       0.72402350
H       -1.06425231       2.35885295       1.71521395
H       -0.97039741       2.45881835      -0.03662804
H       -0.82548322      -0.14963011       1.61999614
H       -0.39961709      -2.15000208      -1.33890750
H       -0.47813727      -2.19347904       0.42193331
H       -1.91779910      -1.74953483      -0.53120895
H        2.35744199      -0.16901572       1.56948840
H        1.18275251      -1.49165475       1.46340449
H        2.34905675      -1.19983463       0.15718326
H        0.29403828       1.56590652      -1.69124995
H        0.21648371      -0.00404057      -2.48427274
H        1.68976080       0.48420517      -1.79678420
20
Frame=10 idx=009128 GeodesicLength=0.6494569168523291 rxn_smarts="[C:1]([C@@:2]1([H:11])[N:3]([C:4]([H:12])([H:13])[H:14])[C:5]1([C:6]([H:15])([H:16])[H:17])[C:7]([H:18])([H:19])[H:20])([H:8])([H:9])[H:10]>>[C:1]([C@@:2]1([H:11])[N+:3]([C:4]([H:12])([H:13])[H:14])([C:7]([H:18])([H:19])[H:20])[C-:5]1[C:6]([H:15])([H:16])[H:17])([H:8])([H:9])[H:10]"
C       -1.27994418       1.82170733       0.78256003
C       -0.55732876       0.50351282       0.78605404
N       -0.50065512      -0.26093193      -0.44666567
C       -0.82716247      -1.66805447      -0.45479035
C        0.80150065       0.30520937       0.26431934
C        1.69657185      -0.72287263       0.88639809
C        0.60663164       0.54979586      -1.61016401
H       -2.36182472       1.68385049       0.70980919
H       -1.06762467       2.35807450       1.71020576
H       -0.96152139       2.45965697      -0.03977717
H       -0.82789427      -0.14586477       1.62374529
H       -0.36700718      -2.17340118      -1.30660476
H       -0.50439533      -2.18850577       0.45033745
H       -1.91051141      -1.75373531      -0.55963842
H        2.37377531      -0.17442828       1.54574249
H        1.18049957      -1.48631179       1.48308262
H        2.33089043      -1.23222367       0.15572898
H        0.27956762       1.57985141      -1.67358541
H        0.21384270       0.02812340      -2.49466251
H        1.68258972       0.51654765      -1.81209498
20
Frame=11 idx=009128 GeodesicLength=0.7143481866810549 rxn_smarts="[C:1]([C@@:2]1([H:11])[N:3]([C:4]([H:12])([H:13])[H:14])[C:5]1([C:6]([H:15])([H:16])[H:17])[C:7]([H:18])([H:19])[H:20])([H:8])([H:9])[H:10]>>[C:1]([C@@:2]1([H:11])[N+:3]([C:4]([H:12])([H:13])[H:14])([C:7]([H:18])([H:19])[H:20])[C-:5]1[C:6]([H:15])([H:16])[H:17])([H:8])([H:9])[H:10]"
C       -1.27696577       1.82109268       0.77585745
C       -0.55643200       0.50220007       0.78624054
N       -0.49158616      -0.26978386      -0.44291187
C       -0.82254142      -1.67640557      -0.44569982
C        0.79888954       0.29129172       0.25823910
C        1.69513676      -0.73399449       0.88520362
C        0.60172521       0.56510726      -1.61007026
H       -2.35859977       1.68520966       0.69550918
H       -1.07106932       2.35707186       1.70524158
H       -0.95269570       2.46061233      -0.04275153
H       -0.83010525      -0.14200331       1.62716194
H       -0.33574155      -2.19664500      -1.27321674
H       -0.53053691      -2.18282907       0.47750649
H       -1.90194580      -1.75873146      -0.58749153
H        2.38962765      -0.18048765       1.52172335
H        1.17843347      -1.48053264       1.50224104
H        2.31260027      -1.26438439       0.15510707
H        0.26572769       1.59328413      -1.65596166
H        0.21097212       0.06091192      -2.50488428
H        1.67510692       0.54901581      -1.82704369
20
Frame=12 idx=009128 GeodesicLength=0.7792440563041784 rxn_smarts="[C:1]([C@@:2]1([H:11])[N:3]([C:4]([H:12])([H:13])[H:14])[C:5]1([C:6]([H:15])([H:16])[H:17])[C:7]([H:18])([H:19])[H:20])([H:8])([H:9])[H:10]>>[C:1]([C@@:2]1([H:11])[N+:3]([C:4]([H:12])([H:13])[H:14])([C:7]([H:18])([H:19])[H:20])[C-:5]1[C:6]([H:15])([H:16])[H:17])([H:8])([H:9])[H:10]"
C       -1.27393679       1.82034301       0.76909203
C       -0.55538871       0.50086963       0.78604270
N       -0.48261171      -0.27860625      -0.43948916
C       -0.81799676      -1.68473990      -0.43651122
C        0.79636190       0.27748840       0.25192848
C        1.69360419      -0.74499619       0.88397394
C        0.59696056       0.58014326      -1.60983086
H       -2.35523142       1.68630097       0.68113118
H       -1.07453505       2.35579536       1.70022618
H       -0.94390703       2.46161675      -0.04559989
H       -0.83210035      -0.13809192       1.63020251
H       -0.30593376      -2.21967197      -1.23878023
H       -0.55653864      -2.17650883       0.50344024
H       -1.89217771      -1.76450291      -0.61462483
H        2.40492105      -0.18714856       1.49746229
H        1.17652610      -1.47432874       1.52080926
H        2.29420632      -1.29618130       0.15530816
H        0.25259729       1.60623832      -1.63833672
H        0.20786766       0.09438463      -2.51483993
H        1.66731287       0.58159626      -1.84160413
20
Frame=13 idx=009128 GeodesicLength=0.8441669529581491 rxn_smarts="[C:1]([C@@:2]1([H:11])[N:3]([C:4]([H:12])([H:13])[H:14])[C:5]1([C:6]([H:15])([H:16])[H:17])[C:7]([H:18])([H:19])[H:20])([H:8])([H:9])[H:10]>>[C:1]([C@@:2]1([H:11])[N+:3]([C:4]([H:12])([H:13])[H:14])([C:7]([H:18])([H:19])[H:20])[C-:5]1[C:6]([H:15])([H:16])[H:17])([H:8])([H:9])[H:10]"
C       -1.27095271       1.81954401       0.76231955
C       -0.55424076       0.49954705       0.78551275
N       -0.47375098      -0.28739828      -0.43643458
C       -0.81352209      -1.69306738      -0.42725048
C        0.79394028       0.26376465       0.24539536
C        1.69207052      -0.75596229       0.88274542
C        0.59234018       0.59491199      -1.60957301
H       -2.35185914       1.68726462       0.66668604
H       -1.07814137       2.35431633       1.69529615
H       -0.93522385       2.46276765      -0.04829118
H       -0.83391138      -0.13410074       1.63297607
H       -0.27743289      -2.24258919      -1.20335748
H       -0.58241299      -2.16956465       0.52826978
H       -1.88129818      -1.77103645      -0.64116085
H        2.41981721      -0.19449217       1.47298945
H        1.17486743      -1.46773773       1.53893105
H        2.27580706      -1.32779476       0.15632028
H        0.24010758       1.61876319      -1.62082299
H        0.20453762       0.12856252      -2.52467183
H        1.65925845       0.61430163      -1.85587950
20
Frame=14 idx=009128 GeodesicLength=0.9091978493550317 rxn_smarts="[C:1]([C@@:2]1([H:11])[N:3]([C:4]([H:12])([H:13])[H:14])[C:5]1([C:6]([H:15])([H:16])[H:17])[C:7]([H:18])([H:19])[H:20])([H:8])([H:9])[H:10]>>[C:1]([C@@:2]1([H:11])[N+:3]([C:4]([H:12])([H:13])[H:14])([C:7]([H:18])([H:19])[H:20])[C-:5]1[C:6]([H:15])([H:16])[H:17])([H:8])([H:9])[H:10]"
C       -1.26793445       1.81863913       0.75550271
C       -0.55296009       0.49820584       0.78461084
N       -0.46498791      -0.29618106      -0.43372208
C       -0.80910799      -1.70139828      -0.41788852
C        0.79159685       0.25013012       0.23861865
C        1.69045928      -0.76685362       0.88144989
C        0.58784778       0.60944570      -1.60922981
H       -2.34836299       1.68802222       0.65213080
H       -1.08181680       2.35257239       1.69036651
H       -0.92656267       2.46401254      -0.05081257
H       -0.83549977      -0.13005493       1.63540308
H       -0.25017017      -2.26540573      -1.16680730
H       -0.60825752      -2.16198277       0.55204137
H       -1.86925325      -1.77838251      -0.66717002
H        2.43427971      -0.20246788       1.44814750
H        1.17338121      -1.46067891       1.55656362
H        2.25724702      -1.35921406       0.15811172
H        0.22824430       1.63088177      -1.60333751
H        0.20097859       0.16347922      -2.53421929
H        1.65087886       0.64723082      -1.86975958
20
Frame=15 idx=009128 GeodesicLength=0.9742645299982354 rxn_smarts="[C:1]([C@@:2]1([H:11])[N:3]([C:4]([H:12])([H:13])[H:14])[C:5]1([C:6]([H:15])([H:16])[H:17])[C:7]([H:18])([H:19])[H:20])([H:8])([H:9])[H:10]>>[C:1]([C@@:2]1([H:11])[N+:3]([C:4]([H:12])([H:13])[H:14])([C:7]([H:18])([H:19])[H:20])[C-:5]1[C:6]([H:15])([H:16])[H:17])([H:8])([H:9])[H:10]"
C       -1.26488409       1.81761410       0.74863908
C       -0.55154248       0.49683689       0.78333860
N       -0.45631885      -0.30496422      -0.43136391
C       -0.80478258      -1.70971623      -0.40845014
C        0.78933733       0.23658089       0.23159505
C        1.68879251      -0.77763814       0.88009284
C        0.58349681       0.62372733      -1.60882052
H       -2.34475063       1.68855783       0.63747266
H       -1.08554880       2.35055498       1.68543464
H       -0.91793522       2.46531650      -0.05317534
H       -0.83685779      -0.12595671       1.63748057
H       -0.22424640      -2.28808147      -1.12922838
H       -0.63402336      -2.15378344       0.57471660
H       -1.85612918      -1.78653152      -0.69256170
H        2.44829149      -0.21105414       1.42304128
H        1.17209366      -1.45315763       1.57366555
H        2.23860075      -1.39034496       0.16068467
H        0.21704014       1.64258800      -1.58587483
H        0.19718073       0.19912567      -2.54345144
H        1.64218595       0.68032630      -1.88323530
20
Frame=16 idx=009128 GeodesicLength=1.039385922725992 rxn_smarts="[C:1]([C@@:2]1([H:11])[N:3]([C:4]([H:12])([H:13])[H:14])[C:5]1([C:6]([H:15])([H:16])[H:17])[C:7]([H:18])([H:19])[H:20])([H:8])([H:9])[H:10]>>[C:1]([C@@:2]1([H:11])[N+:3]([C:4]([H:12])([H:13])[H:14])([C:7]([H:18])([H:19])[H:20])[C-:5]1[C:6]([H:15])([H:16])[H:17])([H:8])([H:9])[H:10]"
C       -1.26185023       1.81650206       0.74173677
C       -0.55001000       0.49544176       0.78171960
N       -0.44774484      -0.31374997      -0.42936357
C       -0.80054590      -1.71802681      -0.39893206
C        0.78716985       0.22309925       0.22431998
C        1.68711298      -0.78835379       0.87868546
C        0.57930598       0.63777472      -1.60841164
H       -2.34108783       1.68892431       0.62272288
H       -1.08939427       2.34829730       1.68052302
H       -0.90938795       2.46671526      -0.05540085
H       -0.83800378      -0.12181741       1.63925959
H       -0.19965087      -2.31060529      -1.09067918
H       -0.65968050      -2.14502271       0.59634342
H       -1.84198320      -1.79547533      -0.71729443
H        2.46189094      -0.22029439       1.39770997
H        1.17104805      -1.44523051       1.59027634
H        2.21994149      -1.42121805       0.16402278
H        0.20650661       1.65393669      -1.56848477
H        0.19314819       0.23553932      -2.55239486
H        1.63321526       0.71356360      -1.89635844
