14
Frame=0 idx=004977 GeodesicLength=0.0 rxn_smarts="[O:1]([C:2]([C@@:3]1([H:10])[C:4]([H:11])([H:12])[C:5]([H:13])([H:14])[O:6]1)([H:8])[H:9])[H:7]>>[O:1]([C:4]([C:5]([O:6][C:3](=[C:2]([H:8])[H:9])[H:10])([H:13])[H:14])([H:11])[H:12])[H:7]"
O       -1.05144910       0.00255456      -1.07311981
C       -1.33113197      -0.53533230       0.43622863
C       -0.05300973      -0.99310925       0.83285249
C        0.83781832       0.13894405      -0.92228725
C        1.13481062       0.82741724       0.38496814
O        0.89875471      -0.12522455       1.38812139
H       -1.58839848       0.76705291      -1.36559531
H       -1.74934378       0.35692467       0.90723194
H       -2.07064637      -1.32033031       0.31650380
H        0.12287876      -2.03446496       1.06545271
H        1.37955884      -0.77674804      -1.11647345
H        0.82788545       0.79104396      -1.79478158
H        0.47422035       1.69876697       0.49895933
H        2.16805239       1.20250502       0.44193903
14
Frame=1 idx=004977 GeodesicLength=0.0935762113161991 rxn_smarts="[O:1]([C:2]([C@@:3]1([H:10])[C:4]([H:11])([H:12])[C:5]([H:13])([H:14])[O:6]1)([H:8])[H:9])[H:7]>>[O:1]([C:4]([C:5]([O:6][C:3](=[C:2]([H:8])[H:9])[H:10])([H:13])[H:14])([H:11])[H:12])[H:7]"
O       -1.05824048       0.02033223      -1.08541576
C       -1.34828449      -0.55542985       0.43808711
C       -0.05719702      -0.98181463       0.82821983
C        0.83467039       0.12804692      -0.92130863
C        1.13753151       0.83456548       0.37498425
O        0.85554837      -0.08419410       1.39829210
H       -1.57087229       0.81870587      -1.32180032
H       -1.78974605       0.31543899       0.92726208
H       -2.06552160      -1.35932331       0.30779984
H        0.15103668      -2.01787898       1.05882011
H        1.38383807      -0.78495283      -1.11146464
H        0.84044037       0.76967355      -1.80162577
H        0.50317951       1.72707469       0.46757100
H        2.18361702       1.16975598       0.44057880
14
Frame=2 idx=004977 GeodesicLength=0.1869560848210694 rxn_smarts="[O:1]([C:2]([C@@:3]1([H:10])[C:4]([H:11])([H:12])[C:5]([H:13])([H:14])[O:6]1)([H:8])[H:9])[H:7]>>[O:1]([C:4]([C:5]([O:6][C:3](=[C:2]([H:8])[H:9])[H:10])([H:13])[H:14])([H:11])[H:12])[H:7]"
O       -1.06528675       0.04035417      -1.09759734
C       -1.36539719      -0.57631174       0.43929489
C       -0.06188936      -0.96918871       0.82396352
C        0.83096965       0.11815303      -0.92062341
C        1.14125494       0.84131362       0.36485785
O        0.81075064      -0.04156721       1.40582692
H       -1.55316528       0.86746150      -1.27623501
H       -1.83100807       0.27132571       0.94631652
H       -2.05858081      -1.39931880       0.29774498
H        0.17883860      -1.99835839       1.05513312
H        1.38623202      -0.79281648      -1.10745011
H        0.85199997       0.74963624      -1.80809801
H        0.53614953       1.75533971       0.43557848
H        2.19913212       1.13397736       0.44128762
14
Frame=3 idx=004977 GeodesicLength=0.2801439985348772 rxn_smarts="[O:1]([C:2]([C@@:3]1([H:10])[C:4]([H:11])([H:12])[C:5]([H:13])([H:14])[O:6]1)([H:8])[H:9])[H:7]>>[O:1]([C:4]([C:5]([O:6][C:3](=[C:2]([H:8])[H:9])[H:10])([H:13])[H:14])([H:11])[H:12])[H:7]"
O       -1.07259328       0.06270013      -1.10958096
C       -1.38235614      -0.59800514       0.43983348
C       -0.06710754      -0.95512641       0.82017545
C        0.82667652       0.10926457      -0.92024258
C        1.14599435       0.84763811       0.35461809
O        0.76437431       0.00286878       1.41048531
H       -1.53549431       0.91337693      -1.22894803
H       -1.87291687       0.22444063       0.96430206
H       -2.04955441      -1.44026592       0.28634309
H        0.20624621      -1.97573275       1.05446231
H        1.38663039      -0.80039193      -1.10440914
H        0.86251652       0.73091610      -1.81425497
H        0.57338561       1.78331222       0.40301737
H        2.21419865       1.09500467       0.44419851
14
Frame=4 idx=004977 GeodesicLength=0.3731389537886012 rxn_smarts="[O:1]([C:2]([C@@:3]1([H:10])[C:4]([H:11])([H:12])[C:5]([H:13])([H:14])[O:6]1)([H:8])[H:9])[H:7]>>[O:1]([C:4]([C:5]([O:6][C:3](=[C:2]([H:8])[H:9])[H:10])([H:13])[H:14])([H:11])[H:12])[H:7]"
O       -1.08016915       0.08743104      -1.12127855
C       -1.39901765      -0.62049211       0.43971978
C       -0.07286723      -0.93957105       0.81691873
C        0.82175536       0.10138406      -0.92017694
C        1.15173796       0.85349353       0.34431594
O        0.71652768       0.04921788       1.41196679
H       -1.51804827       0.95639144      -1.18009005
H       -1.91513569       0.17474697       0.98112787
H       -2.03820061      -1.48200688       0.27369611
H        0.23314891      -1.94986624       1.05680310
H        1.38493648      -0.80772483      -1.10232355
H        0.87195285       0.71350868      -1.82015515
H        0.61506908       1.81064771       0.37000656
H        2.22831029       1.05283979       0.44946936
14
Frame=5 idx=004977 GeodesicLength=0.4658959290176503 rxn_smarts="[O:1]([C:2]([C@@:3]1([H:10])[C:4]([H:11])([H:12])[C:5]([H:13])([H:14])[O:6]1)([H:8])[H:9])[H:7]>>[O:1]([C:4]([C:5]([O:6][C:3](=[C:2]([H:8])[H:9])[H:10])([H:13])[H:14])([H:11])[H:12])[H:7]"
O       -1.08797137       0.11437994      -1.13266344
C       -1.41523773      -0.64370939       0.43906009
C       -0.07916511      -0.92269277       0.81416167
C        0.81620628       0.09454801      -0.92035425
C        1.15844697       0.85876453       0.33407983
O        0.66744921       0.09720407       1.41014679
H       -1.50086989       0.99633116      -1.12990926
H       -1.95721543       0.12257986       0.99657392
H       -2.02459431      -1.52419567       0.26020695
H        0.25926237      -1.92098243       1.06195440
H        1.38119907      -0.81477048      -1.10117268
H        0.88029187       0.69749535      -1.82571971
H        0.66112581       1.83688700       0.33666262
H        2.24107227       1.00816084       0.45697305
14
Frame=6 idx=004977 GeodesicLength=0.5584799555554111 rxn_smarts="[O:1]([C:2]([C@@:3]1([H:10])[C:4]([H:11])([H:12])[C:5]([H:13])([H:14])[O:6]1)([H:8])[H:9])[H:7]>>[O:1]([C:4]([C:5]([O:6][C:3](=[C:2]([H:8])[H:9])[H:10])([H:13])[H:14])([H:11])[H:12])[H:7]"
O       -1.09598671       0.14348421      -1.14375141
C       -1.43083516      -0.66748999       0.43792887
C       -0.08600421      -0.90440853       0.81195037
C        0.81003855       0.08874262      -0.92083298
C        1.16596054       0.86343639       0.32396462
O        0.61747684       0.14677011       1.40458510
H       -1.48416302       1.03309488      -1.07892459
H       -1.99855475       0.06812584       1.01077724
H       -2.00853738      -1.56653803       0.24617557
H        0.28451850      -1.88895974       1.06971984
H        1.37540184      -0.82152248      -1.10091701
H        0.88757090       0.68286820      -1.83104036
H        0.71135315       1.86150294       0.30339816
H        2.25176093       0.96089357       0.46696658
14
Frame=7 idx=004977 GeodesicLength=0.6509600016779811 rxn_smarts="[O:1]([C:2]([C@@:3]1([H:10])[C:4]([H:11])([H:12])[C:5]([H:13])([H:14])[O:6]1)([H:8])[H:9])[H:7]>>[O:1]([C:4]([C:5]([O:6][C:3](=[C:2]([H:8])[H:9])[H:10])([H:13])[H:14])([H:11])[H:12])[H:7]"
O       -1.10408875       0.17445037      -1.15464838
C       -1.44564185      -0.69159289       0.43652327
C       -0.09333888      -0.88488623       0.81020943
C        0.80334052       0.08396085      -0.92161690
C        1.17407760       0.86744931       0.31409601
O        0.56717809       0.19739865       1.39503626
H       -1.46798273       1.06653355      -1.02793178
H       -2.03845068       0.01199765       1.02391212
H       -1.99021797      -1.60855225       0.23225466
H        0.30867103      -1.85407756       1.07966354
H        1.36778187      -0.82787714      -1.10154596
H        0.89389152       0.66967851      -1.83610739
H        0.76510607       1.88391199       0.27074189
H        2.25967416       0.91160520       0.47941323
14
Frame=8 idx=004977 GeodesicLength=0.7431513890012312 rxn_smarts="[O:1]([C:2]([C@@:3]1([H:10])[C:4]([H:11])([H:12])[C:5]([H:13])([H:14])[O:6]1)([H:8])[H:9])[H:7]>>[O:1]([C:4]([C:5]([O:6][C:3](=[C:2]([H:8])[H:9])[H:10])([H:13])[H:14])([H:11])[H:12])[H:7]"
O       -1.11215526       0.20674072      -1.16555872
C       -1.45954119      -0.71562318       0.43507512
C       -0.10117338      -0.86443864       0.80872397
C        0.79619449       0.08017079      -0.92267154
C        1.18256036       0.87080503       0.30464818
O        0.51722704       0.24826782       1.38159076
H       -1.45250431       1.09615440      -0.97792313
H       -2.07599130      -0.04480773       1.03608981
H       -1.97009787      -1.64951076       0.21929422
H        0.33143541      -1.81695938       1.09092265
H        1.35868753      -0.83372622      -1.10293986
H        0.89933640       0.65798897      -1.84088281
H        0.82145295       1.90355039       0.23945701
H        2.26456913       0.86138780       0.49417434
14
Frame=9 idx=004977 GeodesicLength=0.8357046937621139 rxn_smarts="[O:1]([C:2]([C@@:3]1([H:10])[C:4]([H:11])([H:12])[C:5]([H:13])([H:14])[O:6]1)([H:8])[H:9])[H:7]>>[O:1]([C:4]([C:5]([O:6][C:3](=[C:2]([H:8])[H:9])[H:10])([H:13])[H:14])([H:11])[H:12])[H:7]"
O       -1.11984201       0.24007141      -1.17677065
C       -1.47258033      -0.73940219       0.43401160
C       -0.10930669      -0.84356445       0.80723992
C        0.78888888       0.07735548      -0.92395954
C        1.19107849       0.87339135       0.29579743
O        0.46831699       0.29843634       1.36439966
H       -1.43740965       1.12215295      -0.92973608
H       -2.11095942      -0.10147543       1.04790018
H       -1.94902443      -1.68909433       0.20824772
H        0.35256105      -1.77836142       1.10280008
H        1.34875531      -0.83891218      -1.10519572
H        0.90442325       0.64786989      -1.84524540
H        0.87922399       1.92017982       0.20970216
H        2.26587458       0.81135276       0.51080865
14
Frame=10 idx=004977 GeodesicLength=0.928128740140576 rxn_smarts="[O:1]([C:2]([C@@:3]1([H:10])[C:4]([H:11])([H:12])[C:5]([H:13])([H:14])[O:6]1)([H:8])[H:9])[H:7]>>[O:1]([C:4]([C:5]([O:6][C:3](=[C:2]([H:8])[H:9])[H:10])([H:13])[H:14])([H:11])[H:12])[H:7]"
O       -1.12706909       0.27386592      -1.18857960
C       -1.48471350      -0.76249144       0.43348620
C       -0.11779399      -0.82250785       0.80551543
C        0.78149365       0.07540060      -0.92546574
C        1.19940970       0.87536141       0.28761641
O        0.42102109       0.34716134       1.34389273
H       -1.42304350       1.14425066      -0.88443005
H       -2.14244578      -0.15705128       1.05961821
H       -1.92745029      -1.72669733       0.19973678
H        0.37195715      -1.73896464       1.11434307
H        1.33835419      -0.84334127      -1.10805394
H        0.90922185       0.63923858      -1.84920986
H        0.93728361       1.93346839       0.18246384
H        2.26377490       0.76230691       0.52906650
14
Frame=11 idx=004977 GeodesicLength=1.0204168431052314 rxn_smarts="[O:1]([C:2]([C@@:3]1([H:10])[C:4]([H:11])([H:12])[C:5]([H:13])([H:14])[O:6]1)([H:8])[H:9])[H:7]>>[O:1]([C:4]([C:5]([O:6][C:3](=[C:2]([H:8])[H:9])[H:10])([H:13])[H:14])([H:11])[H:12])[H:7]"
O       -1.13360565       0.30779473      -1.20125821
C       -1.49600332      -0.78466040       0.43375965
C       -0.12656182      -0.80161884       0.80330750
C        0.77418753       0.07420773      -0.92718267
C        1.20732040       0.87675601       0.28020610
O        0.37582193       0.39369930       1.32051840
H       -1.40938359       1.16262864      -0.84280554
H       -2.17017191      -0.21084410       1.07175631
H       -1.90599965      -1.76205861       0.19435953
H        0.38950500      -1.69947193       1.12482032
H        1.32799693      -0.84694491      -1.11146402
H        0.91403775       0.63204594      -1.85274301
H        0.99451427       1.94341936       0.15820318
H        2.25834214       0.71504709       0.54852245
14
Frame=12 idx=004977 GeodesicLength=1.1126004528287408 rxn_smarts="[O:1]([C:2]([C@@:3]1([H:10])[C:4]([H:11])([H:12])[C:5]([H:13])([H:14])[O:6]1)([H:8])[H:9])[H:7]>>[O:1]([C:4]([C:5]([O:6][C:3](=[C:2]([H:8])[H:9])[H:10])([H:13])[H:14])([H:11])[H:12])[H:7]"
O       -1.13925286       0.34166562      -1.21506467
C       -1.50658644      -0.80580050       0.43502077
C       -0.13554283      -0.78119813       0.80039263
C        0.76712289       0.07368128      -0.92910817
C        1.21464673       0.87764001       0.27360129
O        0.33298011       0.43754858       1.29480485
H       -1.39640716       1.17759279      -0.80533561
H       -2.19410961      -0.26241266       1.08480359
H       -1.88522513      -1.79511952       0.19247271
H        0.40520521      -1.66048303       1.13369025
H        1.31809811      -0.84968520      -1.11536883
H        0.91917604       0.62620564      -1.85583831
H        1.05008863       1.95023051       0.13716607
H        2.24980631       0.67013461       0.56876344
14
Frame=13 idx=004977 GeodesicLength=1.2050628385986957 rxn_smarts="[O:1]([C:2]([C@@:3]1([H:10])[C:4]([H:11])([H:12])[C:5]([H:13])([H:14])[O:6]1)([H:8])[H:9])[H:7]>>[O:1]([C:4]([C:5]([O:6][C:3](=[C:2]([H:8])[H:9])[H:10])([H:13])[H:14])([H:11])[H:12])[H:7]"
O       -1.14379319       0.37555598      -1.23021717
C       -1.51672477      -0.82598372       0.43745223
C       -0.14462835      -0.76151412       0.79655045
C        0.76045352       0.07375936      -0.93122406
C        1.22130109       0.87804726       0.26780433
O        0.29240804       0.47852328       1.26728347
H       -1.38397546       1.18955576      -0.77196870
H       -2.21465360      -0.31168882       1.09923164
H       -1.86568750      -1.82611201       0.19419212
H        0.41920004      -1.62244769       1.14063065
H        1.30898716      -0.85157232      -1.11974814
H        0.92502402       0.62163691      -1.85845353
H        1.10357118       1.95435275       0.11905524
H        2.23851784       0.62788739       0.58941147
14
Frame=14 idx=004977 GeodesicLength=1.29747247569842 rxn_smarts="[O:1]([C:2]([C@@:3]1([H:10])[C:4]([H:11])([H:12])[C:5]([H:13])([H:14])[O:6]1)([H:8])[H:9])[H:7]>>[O:1]([C:4]([C:5]([O:6][C:3](=[C:2]([H:8])[H:9])[H:10])([H:13])[H:14])([H:11])[H:12])[H:7]"
O       -1.14718662       0.40943436      -1.24683616
C       -1.52647181      -0.84517110       0.44108148
C       -0.15384873      -0.74265059       0.79168549
C        0.75421489       0.07431522      -0.93360000
C        1.22722486       0.87808071       0.26276314
O        0.25415195       0.51650048       1.23830201
H       -1.37227118       1.19890827      -0.74299397
H       -2.23172511      -0.35859257       1.11539187
H       -1.84746479      -1.85512660       0.19948346
H        0.43151893      -1.58562273       1.14546600
H        1.30080140      -0.85265803      -1.12453375
H        0.93169069       0.61817375      -1.86070465
H        1.15459448       1.95608719       0.10422157
H        2.22477102       0.58832165       0.61027350
14
Frame=15 idx=004977 GeodesicLength=1.3899142308692731 rxn_smarts="[O:1]([C:2]([C@@:3]1([H:10])[C:4]([H:11])([H:12])[C:5]([H:13])([H:14])[O:6]1)([H:8])[H:9])[H:7]>>[O:1]([C:4]([C:5]([O:6][C:3](=[C:2]([H:8])[H:9])[H:10])([H:13])[H:14])([H:11])[H:12])[H:7]"
O       -1.14931059       0.44343385      -1.26505268
C       -1.53599965      -0.86347625       0.44596593
C       -0.16317767      -0.72470595       0.78568579
C        0.74845929       0.07528462      -0.93627013
C        1.23240363       0.87778413       0.25843844
O        0.21800691       0.55154666       1.20818101
H       -1.36126151       1.20601122      -0.71824245
H       -2.24560208      -0.40322850       1.13359530
H       -1.83074447      -1.88243011       0.20823219
H        0.44228178      -1.55019258       1.14815340
H        1.29365709      -0.85299714      -1.12972302
H        0.93936261       0.61571940      -1.86262602
H        1.20302646       1.95587057       0.09252965
H        2.20889817       0.55138009       0.63113259
14
Frame=16 idx=004977 GeodesicLength=1.482496310511546 rxn_smarts="[O:1]([C:2]([C@@:3]1([H:10])[C:4]([H:11])([H:12])[C:5]([H:13])([H:14])[O:6]1)([H:8])[H:9])[H:7]>>[O:1]([C:4]([C:5]([O:6][C:3](=[C:2]([H:8])[H:9])[H:10])([H:13])[H:14])([H:11])[H:12])[H:7]"
O       -1.15006570       0.47777463      -1.28493948
C       -1.54546132      -0.88102356       0.45215986
C       -0.17260452      -0.70774203       0.77846324
C        0.74321677       0.07661812      -0.93926841
C        1.23685071       0.87718527       0.25478086
O        0.18371827       0.58382491       1.17712884
H       -1.35093382       1.21114693      -0.69749079
H       -2.25655105      -0.44578360       1.15409242
H       -1.81562454      -1.90830062       0.22025459
H        0.45160372      -1.51625318       1.14873870
H        1.28760390      -0.85264804      -1.13531574
H        0.94818345       0.61418662      -1.86425337
H        1.24887605       1.95408154       0.08381132
H        2.19118809       0.51693303       0.65183794
