19
Frame=0 idx=010189 GeodesicLength=0.0 rxn_smarts="[C:1]([C:2]([C@@:3]1([C:4]([H:13])([H:14])[H:15])[C:5]([H:16])([H:17])[C@:6]1([O:7][H:19])[H:18])([H:11])[H:12])([H:8])([H:9])[H:10]>>[C:1]([C@@:6]([C:3]1([C:4]([H:13])([H:14])[H:15])[C:2]([H:11])([H:12])[C:5]1([H:16])[H:17])([O:7][H:19])[H:18])([H:8])([H:9])[H:10]"
C        1.54949650       0.75412596      -0.65929602
C        0.92389778      -0.46983505       0.76850543
C       -0.46254437      -0.41885563       0.24938700
C       -0.68882116      -1.39099477      -0.89925541
C       -1.34957018      -0.63282896       1.36442589
C       -0.41064776       0.99896377      -0.28082876
O       -0.44610923       1.99625731       0.63768347
H        1.69794902       1.82943591      -0.54702054
H        1.44882249       0.48256607      -1.70986101
H        2.51341575       0.32418860      -0.34577647
H        1.12353621       0.18359796       1.61156049
H        1.47456896      -1.41098447       0.78003892
H        0.03336904      -1.25191582      -1.70495356
H       -0.59590325      -2.41472946      -0.53290662
H       -1.69491046      -1.26829799      -1.30601175
H       -1.38359355       0.08852363       2.16888799
H       -2.05083632      -1.45706874       1.38534841
H       -0.92658549       1.24973522      -1.21632987
H       -0.75553393       2.80811645       0.23640248
19
Frame=1 idx=010189 GeodesicLength=0.08254767564048669 rxn_smarts="[C:1]([C:2]([C@@:3]1([C:4]([H:13])([H:14])[H:15])[C:5]([H:16])([H:17])[C@:6]1([O:7][H:19])[H:18])([H:11])[H:12])([H:8])([H:9])[H:10]>>[C:1]([C@@:6]([C:3]1([C:4]([H:13])([H:14])[H:15])[C:2]([H:11])([H:12])[C:5]1([H:16])[H:17])([O:7][H:19])[H:18])([H:8])([H:9])[H:10]"
C        1.54349668       0.75699625      -0.65656258
C        0.91739447      -0.47686189       0.77943708
C       -0.45703728      -0.42816126       0.23216090
C       -0.68526348      -1.40055174      -0.91204924
C       -1.33760405      -0.61711969       1.35659439
C       -0.42914730       0.99627591      -0.27144896
O       -0.45524227       1.99399753       0.65076401
H        1.68311272       1.83614683      -0.57139608
H        1.45497022       0.46972897      -1.70427742
H        2.51327083       0.35023714      -0.33199867
H        1.11791661       0.17986113       1.61950890
H        1.46281555      -1.42064341       0.79464541
H        0.03811568      -1.26221832      -1.71688608
H       -0.59402901      -2.42307427      -0.54173552
H       -1.69107500      -1.27526566      -1.31881454
H       -1.36171220       0.09256242       2.17125545
H       -2.04668688      -1.43470836       1.38108061
H       -0.95741470       1.24466923      -1.20024074
H       -0.71588059       2.81812917       0.23996309
19
Frame=2 idx=010189 GeodesicLength=0.16510140406680343 rxn_smarts="[C:1]([C:2]([C@@:3]1([C:4]([H:13])([H:14])[H:15])[C:5]([H:16])([H:17])[C@:6]1([O:7][H:19])[H:18])([H:11])[H:12])([H:8])([H:9])[H:10]>>[C:1]([C@@:6]([C:3]1([C:4]([H:13])([H:14])[H:15])[C:2]([H:11])([H:12])[C:5]1([H:16])[H:17])([O:7][H:19])[H:18])([H:8])([H:9])[H:10]"
C        1.53774379       0.75982869      -0.65409807
C        0.91078395      -0.48381896       0.79029496
C       -0.45135139      -0.43676247       0.21533654
C       -0.68171017      -1.40946633      -0.92456623
C       -1.32542245      -0.60147316       1.34873330
C       -0.44746049       0.99355719      -0.26202038
O       -0.46390885       1.99216339       0.66335962
H        1.66809670       1.84216212      -0.59691771
H        1.46206501       0.45621160      -1.69844607
H        2.51280339       0.37702157      -0.31803190
H        1.11268546       0.17617324       1.62727282
H        1.45057771      -1.43039783       0.80931744
H        0.04271731      -1.27222826      -1.72872710
H       -0.59221568      -2.43085621      -0.55053945
H       -1.68722558      -1.28153413      -1.33135506
H       -1.34088103       0.09665882       2.17308960
H       -2.04204255      -1.41252129       1.37665694
H       -0.98831640       1.23945407      -1.18376432
H       -0.67693873       2.82582797       0.24440507
19
Frame=3 idx=010189 GeodesicLength=0.247668348193939 rxn_smarts="[C:1]([C:2]([C@@:3]1([C:4]([H:13])([H:14])[H:15])[C:5]([H:16])([H:17])[C@:6]1([O:7][H:19])[H:18])([H:11])[H:12])([H:8])([H:9])[H:10]>>[C:1]([C@@:6]([C:3]1([C:4]([H:13])([H:14])[H:15])[C:2]([H:11])([H:12])[C:5]1([H:16])[H:17])([O:7][H:19])[H:18])([H:8])([H:9])[H:10]"
C        1.53224971       0.76263382      -0.65190595
C        0.90407540      -0.49072465       0.80106120
C       -0.44550592      -0.44466609       0.19891316
C       -0.67817036      -1.41773350      -0.93681304
C       -1.31304367      -0.58594453       1.34088561
C       -0.46557364       0.99081716      -0.25254564
O       -0.47212247       1.99072224       0.67550912
H        1.65288981       1.84742210      -0.62356459
H        1.47017173       0.44201533      -1.69231022
H        2.51198406       0.40461231      -0.30387556
H        1.10784234       0.17249147       1.63485314
H        1.43785381      -1.44026446       0.82401399
H        0.04716574      -1.28192199      -1.74048180
H       -0.59046814      -2.43807601      -0.55932888
H       -1.68337609      -1.28710178      -1.34363296
H       -1.32103654       0.10080534       2.17445658
H       -2.03692727      -1.39057081       1.37210266
H       -1.01927456       1.23407849      -1.16689160
H       -0.63873393       2.83140555       0.24955478
19
Frame=4 idx=010189 GeodesicLength=0.33025164549965014 rxn_smarts="[C:1]([C:2]([C@@:3]1([C:4]([H:13])([H:14])[H:15])[C:5]([H:16])([H:17])[C@:6]1([O:7][H:19])[H:18])([H:11])[H:12])([H:8])([H:9])[H:10]>>[C:1]([C@@:6]([C:3]1([C:4]([H:13])([H:14])[H:15])[C:2]([H:11])([H:12])[C:5]1([H:16])[H:17])([O:7][H:19])[H:18])([H:8])([H:9])[H:10]"
C        1.52705145       0.76542441      -0.65002059
C        0.89729274      -0.49762297       0.81173384
C       -0.43952604      -0.45188534       0.18289604
C       -0.67464146      -1.42535195      -0.94880445
C       -1.30052455      -0.57059147       1.33312802
C       -0.48349383       0.98808624      -0.24303646
O       -0.47993763       1.98966942       0.68724925
H        1.63750248       1.85188360      -0.65135277
H        1.47939500       0.42715730      -1.68585580
H        2.51082011       0.43306718      -0.28955309
H        1.10338844       0.16874840       1.64227444
H        1.42467611      -1.45030509       0.83871734
H        0.05148556      -1.29127241      -1.75218391
H       -0.58877258      -2.44475858      -0.56810644
H       -1.67954666      -1.29195465      -1.35565938
H       -1.30215836       0.10497918       2.17546929
H       -2.03141302      -1.36892634       1.36749037
H       -1.05030393       1.22857265      -1.14963451
H       -0.60129385       2.83508041       0.25524881
19
Frame=5 idx=010189 GeodesicLength=0.4128486125466487 rxn_smarts="[C:1]([C:2]([C@@:3]1([C:4]([H:13])([H:14])[H:15])[C:5]([H:16])([H:17])[C@:6]1([O:7][H:19])[H:18])([H:11])[H:12])([H:8])([H:9])[H:10]>>[C:1]([C@@:6]([C:3]1([C:4]([H:13])([H:14])[H:15])[C:2]([H:11])([H:12])[C:5]1([H:16])[H:17])([O:7][H:19])[H:18])([H:8])([H:9])[H:10]"
C        1.52212180       0.76817225      -0.64839898
C        0.89043571      -0.50448542       0.82224712
C       -0.43338229      -0.45842433       0.16725702
C       -0.67112951      -1.43232543      -0.96054077
C       -1.28777600      -0.55538310       1.32540760
C       -0.50114149       0.98533252      -0.23349353
O       -0.48717237       1.98891130       0.69860262
H        1.62185490       1.85541213      -0.68021061
H        1.48971107       0.41158809      -1.67892719
H        2.50919796       0.46250695      -0.27506290
H        1.09934714       0.16494548       1.64947474
H        1.41095105      -1.46046551       0.85336554
H        0.05569096      -1.30036433      -1.76373669
H       -0.58726451      -2.45085935      -0.57686604
H       -1.67566554      -1.29606956      -1.36748743
H       -1.28401653       0.10924445       2.17608118
H       -2.02549591      -1.34745806       1.36268891
H       -1.08132973       1.22284271      -1.13193056
H       -0.56493671       2.83687924       0.26152997
19
Frame=6 idx=010189 GeodesicLength=0.49551794817736444 rxn_smarts="[C:1]([C:2]([C@@:3]1([C:4]([H:13])([H:14])[H:15])[C:5]([H:16])([H:17])[C@:6]1([O:7][H:19])[H:18])([H:11])[H:12])([H:8])([H:9])[H:10]>>[C:1]([C@@:6]([C:3]1([C:4]([H:13])([H:14])[H:15])[C:2]([H:11])([H:12])[C:5]1([H:16])[H:17])([O:7][H:19])[H:18])([H:8])([H:9])[H:10]"
C        1.51736732       0.77091894      -0.64701490
C        0.88345348      -0.51127084       0.83261555
C       -0.42713693      -0.46428864       0.15198780
C       -0.66764977      -1.43864260      -0.97203190
C       -1.27485004      -0.54040573       1.31773409
C       -0.51856676       0.98252078      -0.22389196
O       -0.49403610       1.98841392       0.70958967
H        1.60590120       1.85795246      -0.71009990
H        1.50112571       0.39532167      -1.67138958
H        2.50691965       0.49304706      -0.26031649
H        1.09562760       0.16114107       1.65644814
H        1.39667680      -1.47064855       0.86790380
H        0.05963822      -1.30901226      -1.77521374
H       -0.58575551      -2.45636364      -0.58569389
H       -1.67180938      -1.29958532      -1.37901586
H       -1.26661451       0.11355789       2.17628271
H       -2.01908149      -1.32639451       1.35775423
H       -1.11238012       1.21680222      -1.11373877
H       -0.52882935       2.83693609       0.26809099
19
Frame=7 idx=010189 GeodesicLength=0.5782151623014605 rxn_smarts="[C:1]([C:2]([C@@:3]1([C:4]([H:13])([H:14])[H:15])[C:5]([H:16])([H:17])[C@:6]1([O:7][H:19])[H:18])([H:11])[H:12])([H:8])([H:9])[H:10]>>[C:1]([C@@:6]([C:3]1([C:4]([H:13])([H:14])[H:15])[C:2]([H:11])([H:12])[C:5]1([H:16])[H:17])([O:7][H:19])[H:18])([H:8])([H:9])[H:10]"
C        1.51291770       0.77365157      -0.64597235
C        0.87642259      -0.51809078       0.84284911
C       -0.42079752      -0.46950692       0.13710559
C       -0.66416759      -1.44431679      -0.98330665
C       -1.26184287      -0.52567812       1.31024250
C       -0.53578056       0.97973918      -0.21427893
O       -0.50052132       1.98821885       0.72023866
H        1.58968796       1.85945942      -0.74112579
H        1.51382932       0.37839301      -1.66331435
H        2.50411097       0.52471403      -0.24545835
H        1.09228096       0.15718410       1.66326060
H        1.38193005      -1.48104131       0.88237261
H        0.06349230      -1.31728130      -1.78665130
H       -0.58430457      -2.46134569      -0.59454071
H       -1.66795700      -1.30239888      -1.39034267
H       -1.24997779       0.11791523       2.17627594
H       -2.01237870      -1.30569585       1.35281127
H       -1.14349959       1.21059088      -1.09511927
H       -0.49344435       2.83548937       0.27495408
19
Frame=8 idx=010189 GeodesicLength=0.6609604831456494 rxn_smarts="[C:1]([C:2]([C@@:3]1([C:4]([H:13])([H:14])[H:15])[C:5]([H:16])([H:17])[C@:6]1([O:7][H:19])[H:18])([H:11])[H:12])([H:8])([H:9])[H:10]>>[C:1]([C@@:6]([C:3]1([C:4]([H:13])([H:14])[H:15])[C:2]([H:11])([H:12])[C:5]1([H:16])[H:17])([O:7][H:19])[H:18])([H:8])([H:9])[H:10]"
C        1.50872729       0.77636165      -0.64525076
C        0.86932670      -0.52491548       0.85292363
C       -0.41436984      -0.47408700       0.12258885
C       -0.66068307      -1.44934690      -0.99437427
C       -1.24873914      -0.51119614       1.30290355
C       -0.55276493       0.97696105      -0.20465182
O       -0.50661110       1.98827171       0.73055568
H        1.57316507       1.85981743      -0.77322348
H        1.52781019       0.36081065      -1.65455996
H        2.50061234       0.55760983      -0.23049514
H        1.08928611       0.15310154       1.66987671
H        1.36665967      -1.49158200       0.89673725
H        0.06723016      -1.32515271      -1.79802386
H       -0.58292006      -2.46577863      -0.60342943
H       -1.66409008      -1.30454164      -1.40147200
H       -1.23398513       0.12233276       2.17603384
H       -2.00535400      -1.28536959       1.34782341
H       -1.17466398       1.20413224      -1.07602540
H       -0.45863620       2.83257122       0.28206321
19
Frame=9 idx=010189 GeodesicLength=0.7437620083595409 rxn_smarts="[C:1]([C:2]([C@@:3]1([C:4]([H:13])([H:14])[H:15])[C:5]([H:16])([H:17])[C@:6]1([O:7][H:19])[H:18])([H:11])[H:12])([H:8])([H:9])[H:10]>>[C:1]([C@@:6]([C:3]1([C:4]([H:13])([H:14])[H:15])[C:2]([H:11])([H:12])[C:5]1([H:16])[H:17])([O:7][H:19])[H:18])([H:8])([H:9])[H:10]"
C        1.50478752       0.77903989      -0.64486495
C        0.86216753      -0.53175100       0.86283548
C       -0.40786608      -0.47804158       0.10842915
C       -0.65718172      -1.45373362      -1.00525229
C       -1.23556246      -0.49696081       1.29573476
C       -0.56952068       0.97418808      -0.19501758
O       -0.51232190       1.98855696       0.74054835
H        1.55632373       1.85892900      -0.80635520
H        1.54308930       0.34261763      -1.64504401
H        2.49631472       0.59179054      -0.21548714
H        1.08663064       0.14888499       1.67629310
H        1.35085342      -1.50227049       0.91098882
H        0.07087352      -1.33260691      -1.80933792
H       -0.58159185      -2.46966412      -0.61237473
H       -1.66019421      -1.30602172      -1.41242423
H       -1.21857948       0.12682074       2.17559099
H       -1.99802333      -1.26543333       1.34281647
H       -1.20586783       1.19740326      -1.05644252
H       -0.42433084       2.82825250       0.28936345
19
Frame=10 idx=010189 GeodesicLength=0.8266364607657393 rxn_smarts="[C:1]([C:2]([C@@:3]1([C:4]([H:13])([H:14])[H:15])[C:5]([H:16])([H:17])[C@:6]1([O:7][H:19])[H:18])([H:11])[H:12])([H:8])([H:9])[H:10]>>[C:1]([C@@:6]([C:3]1([C:4]([H:13])([H:14])[H:15])[C:2]([H:11])([H:12])[C:5]1([H:16])[H:17])([O:7][H:19])[H:18])([H:8])([H:9])[H:10]"
C        1.50108339       0.78167361      -0.64481985
C        0.85494162      -0.53858886       0.87257877
C       -0.40129621      -0.48138701       0.09461728
C       -0.65364875      -1.45748369      -1.01595350
C       -1.22232705      -0.48297070       1.28873875
C       -0.58605156       0.97141723      -0.18538486
O       -0.51766962       1.98904927       0.75021610
H        1.53913753       1.85668977      -0.84045886
H        1.55966035       0.32387206      -1.63466902
H        2.49110188       0.62731733      -0.20052487
H        1.08430314       0.14454301       1.68249823
H        1.33448533      -1.51308557       0.92512310
H        0.07444333      -1.33963555      -1.82058129
H       -0.58031756      -2.47300327      -0.62138681
H       -1.65624655      -1.30685859      -1.42322237
H       -1.20369639       0.13139373       2.17495491
H       -1.99039973      -1.24589441       1.33779294
H       -1.23710045       1.19037244      -1.03635782
H       -0.39040269       2.82257919       0.29683917
19
Frame=11 idx=010189 GeodesicLength=0.9095699600990779 rxn_smarts="[C:1]([C:2]([C@@:3]1([C:4]([H:13])([H:14])[H:15])[C:5]([H:16])([H:17])[C@:6]1([O:7][H:19])[H:18])([H:11])[H:12])([H:8])([H:9])[H:10]>>[C:1]([C@@:6]([C:3]1([C:4]([H:13])([H:14])[H:15])[C:2]([H:11])([H:12])[C:5]1([H:16])[H:17])([O:7][H:19])[H:18])([H:8])([H:9])[H:10]"
C        1.49761046       0.78423888      -0.64513232
C        0.84764197      -0.54543676       0.88215975
C       -0.39467200      -0.48412763       0.08114810
C       -0.65005700      -1.46059027      -1.02649503
C       -1.20906562      -0.46920011       1.28193594
C       -0.60235178       0.96865154      -0.17576386
O       -0.52267359       1.98974873       0.75955100
H        1.52167561       1.85300277      -0.87540205
H        1.57748026       0.30469230      -1.62339163
H        2.48485574       0.66409932      -0.18574429
H        1.08228012       0.14007366       1.68849025
H        1.31754724      -1.52402268       0.93912847
H        0.07797535      -1.34620666      -1.83176698
H       -0.57906406      -2.47578775      -0.63047807
H       -1.65222432      -1.30705430      -1.43387530
H       -1.18931002       0.13608731       2.17416536
H       -1.98245940      -1.22678701       1.33282162
H       -1.26830304       1.18302245      -1.01578906
H       -0.35688594       2.81559622       0.30443811
19
Frame=12 idx=010189 GeodesicLength=0.9925697992531248 rxn_smarts="[C:1]([C:2]([C@@:3]1([C:4]([H:13])([H:14])[H:15])[C:5]([H:16])([H:17])[C@:6]1([O:7][H:19])[H:18])([H:11])[H:12])([H:8])([H:9])[H:10]>>[C:1]([C@@:6]([C:3]1([C:4]([H:13])([H:14])[H:15])[C:2]([H:11])([H:12])[C:5]1([H:16])[H:17])([O:7][H:19])[H:18])([H:8])([H:9])[H:10]"
C        1.49437365       0.78672556      -0.64581037
C        0.84027219      -0.55229758       0.89158707
C       -0.38800447      -0.48628553       0.06801947
C       -0.64638879      -1.46306526      -1.03688773
C       -1.19580405      -0.45564726       1.27533779
C       -0.61843311       0.96589547      -0.16616711
O       -0.52735762       1.99064943       0.76854283
H        1.50395521       1.84779742      -0.91108472
H        1.59650954       0.28519512      -1.61114977
H        2.47749930       0.70213505      -0.17129491
H        1.08056179       0.13547951       1.69426752
H        1.30002366      -1.53508118       0.95302512
H        0.08150756      -1.35231451      -1.84288386
H       -0.57782918      -2.47803410      -0.63964952
H       -1.64810995      -1.30662397      -1.44441151
H       -1.17537930       0.14090961       2.17324271
H       -1.97423786      -1.20811990       1.32791918
H       -1.29946579       1.17533628      -0.99474346
H       -0.32369279       2.80734585       0.31214127
19
Frame=13 idx=010189 GeodesicLength=1.0756579058831777 rxn_smarts="[C:1]([C:2]([C@@:3]1([C:4]([H:13])([H:14])[H:15])[C:5]([H:16])([H:17])[C@:6]1([O:7][H:19])[H:18])([H:11])[H:12])([H:8])([H:9])[H:10]>>[C:1]([C@@:6]([C:3]1([C:4]([H:13])([H:14])[H:15])[C:2]([H:11])([H:12])[C:5]1([H:16])[H:17])([O:7][H:19])[H:18])([H:8])([H:9])[H:10]"
C        1.49136687       0.78911144      -0.64685852
C        0.83282820      -0.55917317       0.90086550
C       -0.38129950      -0.48787562       0.05522683
C       -0.64261667      -1.46491201      -1.04714655
C       -1.18255722      -0.44229115       1.26895334
C       -0.63429568       0.96314584      -0.15660078
O       -0.53173011       1.99174248       0.77718438
H        1.48600166       1.84098785      -0.94740529
H        1.61668771       0.26548936      -1.59788599
H        2.46892387       0.74139210      -0.15731330
H        1.07913812       0.13076397       1.69982317
H        1.28189067      -1.54625144       0.96681820
H        0.08508252      -1.35795015      -1.85392652
H       -0.57659934      -2.47974234      -0.64891231
H       -1.64386878      -1.30557353      -1.45485782
H       -1.16185535       0.14588566       2.17220763
H       -1.96575003      -1.18987896       1.32310480
H       -1.33055979       1.16728473      -0.97321770
H       -0.29078717       2.79784492       0.31994091
19
Frame=14 idx=010189 GeodesicLength=1.1588552130589427 rxn_smarts="[C:1]([C:2]([C@@:3]1([C:4]([H:13])([H:14])[H:15])[C:5]([H:16])([H:17])[C@:6]1([O:7][H:19])[H:18])([H:11])[H:12])([H:8])([H:9])[H:10]>>[C:1]([C@@:6]([C:3]1([C:4]([H:13])([H:14])[H:15])[C:2]([H:11])([H:12])[C:5]1([H:16])[H:17])([O:7][H:19])[H:18])([H:8])([H:9])[H:10]"
C        1.48859064       0.79137765      -0.64827729
C        0.82530592      -0.56606669       0.91000361
C       -0.37456275      -0.48891497       0.04276799
C       -0.63871309      -1.46613767      -1.05728324
C       -1.16934146      -0.42911141       1.26279158
C       -0.64994113       0.96040125      -0.14707358
O       -0.53580361       1.99302227       0.78546399
H        1.46785506       1.83250681      -0.98424156
H        1.63793264       0.24570718      -1.58356069
H        2.45903986       0.78180849      -0.14396042
H        1.07800172       0.12593022       1.70515187
H        1.26312441      -1.55752559       0.98051882
H        0.08874758      -1.36311014      -1.86488495
H       -0.57536333      -2.48091773      -0.65827132
H       -1.63946671      -1.30391024      -1.46524171
H       -1.14869559       0.15103852       2.17108052
H       -1.95701613      -1.17204952       1.31839836
H       -1.36155122       1.15884298      -0.95121842
H       -0.25814281       2.78710859       0.32783645
19
Frame=15 idx=010189 GeodesicLength=1.2421846078492687 rxn_smarts="[C:1]([C:2]([C@@:3]1([C:4]([H:13])([H:14])[H:15])[C:5]([H:16])([H:17])[C@:6]1([O:7][H:19])[H:18])([H:11])[H:12])([H:8])([H:9])[H:10]>>[C:1]([C@@:6]([C:3]1([C:4]([H:13])([H:14])[H:15])[C:2]([H:11])([H:12])[C:5]1([H:16])[H:17])([O:7][H:19])[H:18])([H:8])([H:9])[H:10]"
C        1.48604970       0.79350775      -0.65006109
C        0.81770108      -0.57298125       0.91901217
C       -0.36779856      -0.48942136       0.03064164
C       -0.63465040      -1.46675215      -1.06730717
C       -1.15617138      -0.41608547       1.25686029
C       -0.66537072       0.95765916      -0.13759505
O       -0.53959222       1.99448489       0.79336699
H        1.44957344       1.82230715      -1.02144432
H        1.66013427       0.22600217      -1.56815718
H        2.44777753       0.82328333      -0.13141230
H        1.07714636       0.12098216       1.71024896
H        1.24370104      -1.56889413       0.99414096
H        0.09255189      -1.36779664      -1.87574609
H       -0.57411097      -2.48156751      -0.66772762
H       -1.63486881      -1.30164240      -1.47559014
H       -1.13586025       0.15639260       2.16987984
H       -1.94805687      -1.15461204       1.31381942
H       -1.39240056       1.14998445      -0.92875897
H       -0.22575457       2.77514928       0.33582964
19
Frame=16 idx=010189 GeodesicLength=1.3256723129165588 rxn_smarts="[C:1]([C:2]([C@@:3]1([C:4]([H:13])([H:14])[H:15])[C:5]([H:16])([H:17])[C@:6]1([O:7][H:19])[H:18])([H:11])[H:12])([H:8])([H:9])[H:10]>>[C:1]([C@@:6]([C:3]1([C:4]([H:13])([H:14])[H:15])[C:2]([H:11])([H:12])[C:5]1([H:16])[H:17])([O:7][H:19])[H:18])([H:8])([H:9])[H:10]"
C        1.48375235       0.79548919      -0.65219647
C        0.81000851      -0.57992094       0.92790271
C       -0.36100965      -0.48941358       0.01884722
C       -0.63040265      -1.46676795      -1.07722524
C       -1.14305889      -0.40319006       1.25116549
C       -0.68058446       0.95491656      -0.12817480
O       -0.54311027       1.99612721       0.80087790
H        1.43122203       1.81036117      -1.05885484
H        1.68316595       0.20653186      -1.55167481
H        2.43508831       0.86569464      -0.11984911
H        1.07656601       0.11592165       1.71511030
H        1.22359640      -1.58034690       1.00769640
H        0.09654348      -1.37201758      -1.88649389
H       -0.57283534      -2.48170110      -0.67727925
H       -1.63004056      -1.29877779      -1.48592870
H       -1.12331072       0.16197205       2.16862172
H       -1.93889248      -1.13754322       1.30938596
H       -1.42306149       1.14068429      -0.90585850
H       -0.19363654       2.76198048       0.34392792
