14
Frame=0 idx=005681 GeodesicLength=0.0 rxn_smarts="[O:1]([C:2]1([H:8])[C:3]([H:9])([H:10])[C:4]([H:11])=[C:5]([H:12])[C:6]1([H:13])[H:14])[H:7]>>[O:1](/[C:2](=[C:3]([C:4](=[C:5](\[C:6]([H:9])([H:13])[H:14])[H:12])/[H:11])\[H:10])[H:8])[H:7]"
O       -2.29738705       1.44290528      -0.44804729
C       -1.23135050       0.64148874      -0.50144438
C        0.05803671       1.07549888      -0.01050625
C        1.27195794       0.26144314       0.08914770
C        1.27700931      -1.11955236       0.24059725
C        0.25188026      -2.01833465       0.09612069
H       -2.04766904       2.32652715      -0.15574145
H       -1.46713715      -0.32444281      -0.90938105
H       -0.19245428       1.18635618       1.07132319
H        0.26950700       2.09877842      -0.34697113
H        2.18539664       0.81720317       0.24797131
H        2.22858329      -1.53917364       0.56085928
H       -0.71292027      -1.80024499      -0.32474594
H        0.40654711      -3.04845253       0.39081806
14
Frame=1 idx=005681 GeodesicLength=0.12211656909068623 rxn_smarts="[O:1]([C:2]1([H:8])[C:3]([H:9])([H:10])[C:4]([H:11])=[C:5]([H:12])[C:6]1([H:13])[H:14])[H:7]>>[O:1](/[C:2](=[C:3]([C:4](=[C:5](\[C:6]([H:9])([H:13])[H:14])[H:12])/[H:11])\[H:10])[H:8])[H:7]"
O       -2.29452233       1.40449891      -0.43998982
C       -1.20518680       0.63288821      -0.52867081
C        0.06968653       1.07752211      -0.01335274
C        1.29335504       0.26974483       0.04218925
C        1.28502325      -1.10751609       0.19784052
C        0.20351288      -1.96193810       0.17341539
H       -2.07338469       2.27108162      -0.08191827
H       -1.41389545      -0.29857750      -1.02319344
H       -0.19551006       1.10067097       1.09389539
H        0.26828422       2.11596190      -0.30564177
H        2.20426389       0.82163236       0.22836608
H        2.22851153      -1.54258617       0.52043318
H       -0.70099209      -1.80452010      -0.38749076
H        0.33085410      -2.97886295       0.52411781
14
Frame=2 idx=005681 GeodesicLength=0.24929137468014378 rxn_smarts="[O:1]([C:2]1([H:8])[C:3]([H:9])([H:10])[C:4]([H:11])=[C:5]([H:12])[C:6]1([H:13])[H:14])[H:7]>>[O:1](/[C:2](=[C:3]([C:4](=[C:5](\[C:6]([H:9])([H:13])[H:14])[H:12])/[H:11])\[H:10])[H:8])[H:7]"
O       -2.29057360       1.36624475      -0.43508075
C       -1.17988798       0.62399170      -0.55176287
C        0.08106443       1.08008291      -0.01525441
C        1.31211241       0.27719127       0.00445706
C        1.28778423      -1.09658661       0.16356075
C        0.16019778      -1.90155499       0.22780256
H       -2.09729745       2.21120551      -0.01525733
H       -1.36479856      -0.27280504      -1.11584320
H       -0.19719004       1.02322828       1.11208174
H        0.26925812       2.12831803      -0.27446119
H        2.22232695       0.82304709       0.21190649
H        2.22290747      -1.54955952       0.48464405
H       -0.68544055      -1.81244826      -0.43373729
H        0.25953679      -2.90035514       0.63694438
14
Frame=3 idx=005681 GeodesicLength=0.37879410400312297 rxn_smarts="[O:1]([C:2]1([H:8])[C:3]([H:9])([H:10])[C:4]([H:11])=[C:5]([H:12])[C:6]1([H:13])[H:14])[H:7]>>[O:1](/[C:2](=[C:3]([C:4](=[C:5](\[C:6]([H:9])([H:13])[H:14])[H:12])/[H:11])\[H:10])[H:8])[H:7]"
O       -2.28614345       1.32901318      -0.43044497
C       -1.15595706       0.61523114      -0.57079784
C        0.09204349       1.08313174      -0.01661816
C        1.32870086       0.28376762      -0.02729374
C        1.28767699      -1.08611732       0.13758116
C        0.12133384      -1.84188810       0.26537223
H       -2.11892957       2.14903998       0.04563675
H       -1.32033391      -0.24686846      -1.19316431
H       -0.19728907       0.95282475       1.12750829
H        0.27194833       2.13751619      -0.25238801
H        2.23994631       0.82283439       0.19404788
H        2.21312509      -1.55685984       0.45986117
H       -0.66976163      -1.82180437      -0.46812721
H        0.19363978      -2.81982091       0.72882676
14
Frame=4 idx=005681 GeodesicLength=0.5094828402519443 rxn_smarts="[O:1]([C:2]1([H:8])[C:3]([H:9])([H:10])[C:4]([H:11])=[C:5]([H:12])[C:6]1([H:13])[H:14])[H:7]>>[O:1](/[C:2](=[C:3]([C:4](=[C:5](\[C:6]([H:9])([H:13])[H:14])[H:12])/[H:11])\[H:10])[H:8])[H:7]"
O       -2.28111063       1.29353803      -0.42713010
C       -1.13317713       0.60675084      -0.58670833
C        0.10249292       1.08672706      -0.01727389
C        1.34345750       0.28976909      -0.05386907
C        1.28594357      -1.07592446       0.11717282
C        0.08580280      -1.78424142       0.29212101
H       -2.13872269       2.08501704       0.10190882
H       -1.27928419      -0.22056725      -1.25960207
H       -0.19680142       0.88806887       1.14143559
H        0.27598569       2.14482710      -0.23735437
H        2.25691496       0.82173385       0.17642010
H        2.20138180      -1.56438218       0.44038851
H       -0.65551339      -1.83194591      -0.49281046
H        0.13263023      -2.73937066       0.80530144
14
Frame=5 idx=005681 GeodesicLength=0.6410150583975172 rxn_smarts="[O:1]([C:2]1([H:8])[C:3]([H:9])([H:10])[C:4]([H:11])=[C:5]([H:12])[C:6]1([H:13])[H:14])[H:7]>>[O:1](/[C:2](=[C:3]([C:4](=[C:5](\[C:6]([H:9])([H:13])[H:14])[H:12])/[H:11])\[H:10])[H:8])[H:7]"
O       -2.27565153       1.25972117      -0.42440639
C       -1.11141746       0.59862054      -0.60005190
C        0.11245842       1.09090853      -0.01742617
C        1.35668802       0.29531251      -0.07621319
C        1.28313765      -1.06588924       0.10111018
C        0.05272049      -1.72891207       0.31135679
H       -2.15687933       2.01938418       0.15430044
H       -1.24112162      -0.19374449      -1.31767013
H       -0.19598198       0.82819909       1.15454886
H        0.28115348       2.15097585      -0.22836503
H        2.27329177       0.82004602       0.15910563
H        2.18838224      -1.57193601       0.42467654
H       -0.64234557      -1.84263202      -0.51060256
H        0.07556541      -2.66005406       0.86963692
14
Frame=6 idx=005681 GeodesicLength=0.7732608002043748 rxn_smarts="[O:1]([C:2]1([H:8])[C:3]([H:9])([H:10])[C:4]([H:11])=[C:5]([H:12])[C:6]1([H:13])[H:14])[H:7]>>[O:1](/[C:2](=[C:3]([C:4](=[C:5](\[C:6]([H:9])([H:13])[H:14])[H:12])/[H:11])\[H:10])[H:8])[H:7]"
O       -2.26986908       1.22732759      -0.42191021
C       -1.09050572       0.59087964      -0.61141452
C        0.12196768       1.09564128      -0.01723160
C        1.36866761       0.30051727      -0.09501481
C        1.27964879      -1.05599149       0.08800357
C        0.02167172      -1.67590745       0.32491512
H       -2.17345986       1.95238970       0.20309520
H       -1.20539918      -0.16631542      -1.36915251
H       -0.19512133       0.77232757       1.16727048
H        0.28721565       2.15642780      -0.22425480
H        2.28902997       0.81791043       0.14280537
H        2.17461325      -1.57960592       0.41088838
H       -0.63018870      -1.85383424      -0.52288816
H        0.02172920      -2.58176675       0.92488848
14
Frame=7 idx=005681 GeodesicLength=0.9061566352249784 rxn_smarts="[O:1]([C:2]1([H:8])[C:3]([H:9])([H:10])[C:4]([H:11])=[C:5]([H:12])[C:6]1([H:13])[H:14])[H:7]>>[O:1](/[C:2](=[C:3]([C:4](=[C:5](\[C:6]([H:9])([H:13])[H:14])[H:12])/[H:11])\[H:10])[H:8])[H:7]"
O       -2.26390127       1.19613127      -0.41909312
C       -1.07041258       0.58353213      -0.62103132
C        0.13108315       1.10092773      -0.01688941
C        1.37956736       0.30540705      -0.11091073
C        1.27568479      -1.04616931       0.07765774
C       -0.00778125      -1.62521784       0.33402903
H       -2.18849956       1.88426394       0.24872338
H       -1.17194299      -0.13814843      -1.41518730
H       -0.19424458       0.71997420       1.17995731
H        0.29404679       2.16143294      -0.22448010
H        2.30427856       0.81545544       0.12679169
H        2.16023295      -1.58714137       0.39930380
H       -0.61853062      -1.86537669      -0.53104061
H       -0.02958074      -2.50507106       0.97216965
14
Frame=8 idx=005681 GeodesicLength=1.039643607970415 rxn_smarts="[O:1]([C:2]1([H:8])[C:3]([H:9])([H:10])[C:4]([H:11])=[C:5]([H:12])[C:6]1([H:13])[H:14])[H:7]>>[O:1](/[C:2](=[C:3]([C:4](=[C:5](\[C:6]([H:9])([H:13])[H:14])[H:12])/[H:11])\[H:10])[H:8])[H:7]"
O       -2.25771570       1.16621500      -0.41615973
C       -1.05102834       0.57662440      -0.62928776
C        0.13983764       1.10677792      -0.01655532
C        1.38953569       0.31005943      -0.12427009
C        1.27135551      -1.03638963       0.06949394
C       -0.03588892      -1.57668076       0.33973657
H       -2.20208499       1.81497340       0.29149481
H       -1.14050831      -0.10924063      -1.45664905
H       -0.19355071       0.67062104       1.19280989
H        0.30154496       2.16618801      -0.22833968
H        2.31903576       0.81272496       0.11132657
H        2.14543860      -1.59460661       0.38895146
H       -0.60744667      -1.87717433      -0.53532877
H       -0.07852453      -2.43009220       1.01277715
14
Frame=9 idx=005681 GeodesicLength=1.173694329429917 rxn_smarts="[O:1]([C:2]1([H:8])[C:3]([H:9])([H:10])[C:4]([H:11])=[C:5]([H:12])[C:6]1([H:13])[H:14])[H:7]>>[O:1](/[C:2](=[C:3]([C:4](=[C:5](\[C:6]([H:9])([H:13])[H:14])[H:12])/[H:11])\[H:10])[H:8])[H:7]"
O       -2.25134381       1.13748669      -0.41302095
C       -1.03228254       0.57018651      -0.63644698
C        0.14826289       1.11318433      -0.01635733
C        1.39868982       0.31452613      -0.13541676
C        1.26674749      -1.02661733       0.06319961
C       -0.06284621      -1.53014938       0.34272532
H       -2.21422206       1.74467053       0.33148240
H       -1.11095562      -0.07959437      -1.49417205
H       -0.19315915       0.62380474       1.20599672
H        0.30961837       2.17080215      -0.23525483
H        2.33332851       0.80976160       0.09637984
H        2.13035170      -1.60199879       0.37936040
H       -0.59684981      -1.88912952      -0.53611661
H       -0.12533955      -2.35693332       1.04764123
14
Frame=10 idx=005681 GeodesicLength=1.308293749777928 rxn_smarts="[O:1]([C:2]1([H:8])[C:3]([H:9])([H:10])[C:4]([H:11])=[C:5]([H:12])[C:6]1([H:13])[H:14])[H:7]>>[O:1](/[C:2](=[C:3]([C:4](=[C:5](\[C:6]([H:9])([H:13])[H:14])[H:12])/[H:11])\[H:10])[H:8])[H:7]"
O       -2.24480433       1.10988494      -0.40965697
C       -1.01411566       0.56424455      -0.64273655
C        0.15638603       1.12013929      -0.01640924
C        1.40712837       0.31885824      -0.14460360
C        1.26191975      -1.01682101       0.05851165
C       -0.08879912      -1.48546770       0.34353138
H       -2.22490290       1.67349526       0.36872063
H       -1.08318314      -0.04924166      -1.52825148
H       -0.19318078       0.57909650       1.21963658
H        0.31819829       2.17534498      -0.24473614
H        2.34717281       0.80659673       0.08198064
H        2.11506162      -1.60932223       0.37009966
H       -0.58672717      -1.90113738      -0.53360107
H       -0.17015377      -2.28567050       1.07751450
14
Frame=11 idx=005681 GeodesicLength=1.4434426764160384 rxn_smarts="[O:1]([C:2]1([H:8])[C:3]([H:9])([H:10])[C:4]([H:11])=[C:5]([H:12])[C:6]1([H:13])[H:14])[H:7]>>[O:1](/[C:2](=[C:3]([C:4](=[C:5](\[C:6]([H:9])([H:13])[H:14])[H:12])/[H:11])\[H:10])[H:8])[H:7]"
O       -2.23812308       1.08330778      -0.40602273
C       -0.99647985       0.55881377      -0.64834257
C        0.16422920       1.12763010      -0.01680864
C        1.41493281       0.32310193      -0.15203538
C        1.25691893      -1.00697154       0.05523195
C       -0.11386061      -1.44248750       0.34256094
H       -2.23409166       1.60164575       0.40319617
H       -1.05711918      -0.01823165      -1.55928273
H       -0.19371164       0.53608770       1.23381571
H        0.32722566       2.17985775      -0.25637455
H        2.36057820       0.80325992       0.06815387
H        2.09963469      -1.61657436       0.36082238
H       -0.57706223      -1.91308925      -0.52793455
H       -0.21307125      -2.21635040       1.10302013
14
Frame=12 idx=005681 GeodesicLength=1.57916138556366 rxn_smarts="[O:1]([C:2]1([H:8])[C:3]([H:9])([H:10])[C:4]([H:11])=[C:5]([H:12])[C:6]1([H:13])[H:14])[H:7]>>[O:1](/[C:2](=[C:3]([C:4](=[C:5](\[C:6]([H:9])([H:13])[H:14])[H:12])/[H:11])\[H:10])[H:8])[H:7]"
O       -2.23131427       1.05766005      -0.40208919
C       -0.97932991       0.55390828      -0.65341693
C        0.17181569       1.13564974      -0.01763817
C        1.42216743       0.32729559      -0.15787540
C        1.25177734      -0.99703793       0.05325418
C       -0.13813551      -1.40106277       0.34013607
H       -2.24176379       1.52927232       0.43493537
H       -1.03269428       0.01339076      -1.58759218
H       -0.19483517       0.49440151       1.24859809
H        0.33666054       2.18436844      -0.26984809
H        2.37356508       0.79977513       0.05483773
H        2.08410889      -1.62374325       0.35129169
H       -0.56780987      -1.92485810      -0.51925530
H       -0.25421218      -2.14901977       1.12466215
14
Frame=13 idx=005681 GeodesicLength=1.7154810347170344 rxn_smarts="[O:1]([C:2]1([H:8])[C:3]([H:9])([H:10])[C:4]([H:11])=[C:5]([H:12])[C:6]1([H:13])[H:14])[H:7]>>[O:1](/[C:2](=[C:3]([C:4](=[C:5](\[C:6]([H:9])([H:13])[H:14])[H:12])/[H:11])\[H:10])[H:8])[H:7]"
O       -2.22438645       1.03285491      -0.39784341
C       -0.96262785       0.54953202      -0.65807956
C        0.17916462       1.14419236      -0.01896619
C        1.42888361       0.33147632      -0.16224467
C        1.24652161      -0.98698803       0.05252199
C       -0.16171029      -1.36105790       0.33652617
H       -2.24789350       1.45654171       0.46395564
H       -1.00984986       0.04556689      -1.61344383
H       -0.19663292       0.45367907       1.26403280
H        0.34647334       2.18889378      -0.28490781
H        2.38615027       0.79616668       0.04196506
H        2.06851275      -1.63081498       0.34129220
H       -0.55892551      -1.93630047      -0.50766931
H       -0.29367980      -2.08374236       1.14286090
14
Frame=14 idx=005681 GeodesicLength=1.8523628129068794 rxn_smarts="[O:1]([C:2]1([H:8])[C:3]([H:9])([H:10])[C:4]([H:11])=[C:5]([H:12])[C:6]1([H:13])[H:14])[H:7]>>[O:1](/[C:2](=[C:3]([C:4](=[C:5](\[C:6]([H:9])([H:13])[H:14])[H:12])/[H:11])\[H:10])[H:8])[H:7]"
O       -2.21735740       1.00891346      -0.39331081
C       -0.94638654       0.54563902      -0.66236750
C        0.18626367       1.15323233      -0.02084167
C        1.43510543       0.33568067      -0.16522002
C        1.24118921      -0.97679305       0.05302151
C       -0.18462827      -1.32239269       0.33199696
H       -2.25244657       1.38392855       0.49016279
H       -0.98860182       0.07815451      -1.63698106
H       -0.19920264       0.41355218       1.28016931
H        0.35661452       2.19341132      -0.30139815
H        2.39831146       0.79247876       0.02952205
H        2.05290705      -1.63774648       0.33061423
H       -0.55034542      -1.94725340      -0.49326623
H       -0.33142268      -2.02080518       1.15789858
14
Frame=15 idx=005681 GeodesicLength=1.9897789308278966 rxn_smarts="[O:1]([C:2]1([H:8])[C:3]([H:9])([H:10])[C:4]([H:11])=[C:5]([H:12])[C:6]1([H:13])[H:14])[H:7]>>[O:1](/[C:2](=[C:3]([C:4](=[C:5](\[C:6]([H:9])([H:13])[H:14])[H:12])/[H:11])\[H:10])[H:8])[H:7]"
O       -2.21023559       0.98585072      -0.38852284
C       -0.93060492       0.54218050      -0.66632258
C        0.19311037       1.16275136      -0.02332386
C        1.44085751       0.33994421      -0.16685140
C        1.23581498      -0.96642112       0.05478564
C       -0.20692930      -1.28498656       0.32678781
H       -2.25541886       1.31184292       0.51354258
H       -0.96894271       0.11100473      -1.65834146
H       -0.20263882       0.37367985       1.29703364
H        0.36705004       2.19789832      -0.31922455
H        2.41003617       0.78875255       0.01748094
H        2.03733623      -1.64449619       0.31906099
H       -0.54200558      -1.95751788      -0.47615900
H       -0.36742951      -1.96048340       1.17005408
14
Frame=16 idx=005681 GeodesicLength=2.1276893685835643 rxn_smarts="[O:1]([C:2]1([H:8])[C:3]([H:9])([H:10])[C:4]([H:11])=[C:5]([H:12])[C:6]1([H:13])[H:14])[H:7]>>[O:1](/[C:2](=[C:3]([C:4](=[C:5](\[C:6]([H:9])([H:13])[H:14])[H:12])/[H:11])\[H:10])[H:8])[H:7]"
O       -2.20302583       0.96370093      -0.38351918
C       -0.91528122       0.53909119      -0.66996810
C        0.19970231       1.17273427      -0.02647491
C        1.44616040       0.34430521      -0.16715073
C        1.23043681      -0.95583518       0.05790030
C       -0.22864164      -1.24877060       0.32113675
H       -2.25683265       1.24072835       0.53411037
H       -0.95085933       0.14393722      -1.67763234
H       -0.20704296       0.33374147       1.31464311
H        0.37775344       2.20231858      -0.33836809
H        2.42131222       0.78503326       0.00581956
H        2.02183895      -1.65101972       0.30641534
H       -0.53383259      -1.96686064      -0.45649575
H       -0.40168791      -1.90310434       1.17958365
