14
Frame=0 idx=006855 GeodesicLength=0.0 rxn_smarts="[C:1]([c:2]1[c:3]([H:11])[c:4]([N:5]([H:12])[H:13])[c:6]([H:14])[o:7]1)([H:8])([H:9])[H:10]>>[C:1]([C@@:3]1([H:11])[C-:2]=[O+:7][C:6]([H:14])=[C:4]1[N:5]([H:12])[H:13])([H:8])([H:9])[H:10]"
C        1.79147785      -0.34230688      -0.34162599
C        1.08606735       0.33447653       1.21102471
C        0.21406704      -0.60199997       0.61369119
C       -0.94353019       0.07161742       0.06141292
N       -1.96558833      -0.54854720      -0.66697258
C       -0.69918761       1.37231576       0.29775567
O        0.49106819       1.56041726       0.92553462
H        1.29792865      -0.75813376      -1.22481658
H        2.56738478      -1.00754517       0.01513223
H        2.19264781       0.62847966      -0.61006943
H        0.29531981      -1.66906049       0.76948785
H       -2.33270690      -1.37191450      -0.21461714
H       -2.72087824       0.07373360      -0.90857764
H       -1.27407015       2.25846776       0.07264016
14
Frame=1 idx=006855 GeodesicLength=0.046813538183012426 rxn_smarts="[C:1]([c:2]1[c:3]([H:11])[c:4]([N:5]([H:12])[H:13])[c:6]([H:14])[o:7]1)([H:8])([H:9])[H:10]>>[C:1]([C@@:3]1([H:11])[C-:2]=[O+:7][C:6]([H:14])=[C:4]1[N:5]([H:12])[H:13])([H:8])([H:9])[H:10]"
C        1.80259338      -0.34581849      -0.34295732
C        1.08065943       0.34099025       1.20070781
C        0.21311478      -0.59944320       0.60203543
C       -0.94824842       0.07512159       0.05683060
N       -1.97399745      -0.54510337      -0.66469133
C       -0.71299227       1.37506524       0.30514420
O        0.48685238       1.56355113       0.91944828
H        1.32414302      -0.74907703      -1.24006227
H        2.56444869      -1.02283494       0.02290969
H        2.22713503       0.61730661      -0.60521983
H        0.28629208      -1.66405987       0.77766183
H       -2.32590834      -1.37964655      -0.22106369
H       -2.73946262       0.07177633      -0.88724129
H       -1.28462968       2.26217228       0.07649788
14
Frame=2 idx=006855 GeodesicLength=0.09324379032986323 rxn_smarts="[C:1]([c:2]1[c:3]([H:11])[c:4]([N:5]([H:12])[H:13])[c:6]([H:14])[o:7]1)([H:8])([H:9])[H:10]>>[C:1]([C@@:3]1([H:11])[C-:2]=[O+:7][C:6]([H:14])=[C:4]1[N:5]([H:12])[H:13])([H:8])([H:9])[H:10]"
C        1.81377261      -0.34924434      -0.34437136
C        1.07524208       0.34748646       1.19001594
C        0.21215016      -0.59688024       0.58997180
C       -0.95307166       0.07865589       0.05210331
N       -1.98269955      -0.54172731      -0.66213586
C       -0.72652978       1.37773834       0.31193262
O        0.48243378       1.56667530       0.91336839
H        1.35126941      -0.73964441      -1.25531493
H        2.56104898      -1.03818757       0.03029551
H        2.26203064       0.60567037      -0.59945070
H        0.27706378      -1.65857509       0.78587623
H       -2.31929086      -1.38711965      -0.22751154
H       -2.75806794       0.06939949      -0.86528552
H       -1.29535165       2.26575274       0.08050609
14
Frame=3 idx=006855 GeodesicLength=0.13927451612420014 rxn_smarts="[C:1]([c:2]1[c:3]([H:11])[c:4]([N:5]([H:12])[H:13])[c:6]([H:14])[o:7]1)([H:8])([H:9])[H:10]>>[C:1]([C@@:3]1([H:11])[C-:2]=[O+:7][C:6]([H:14])=[C:4]1[N:5]([H:12])[H:13])([H:8])([H:9])[H:10]"
C        1.82500050      -0.35259764      -0.34588058
C        1.06983280       0.35399664       1.17892599
C        0.21117345      -0.59429689       0.57752604
C       -0.95799979       0.08222656       0.04725174
N       -1.99165009      -0.53843106      -0.65931965
C       -0.73975012       1.38035462       0.31802124
O        0.47782707       1.56981382       0.90726361
H        1.37931029      -0.72989254      -1.27052902
H        2.55716830      -1.05359783       0.03725460
H        2.29726461       0.59350931      -0.59278448
H        0.26764036      -1.65255972       0.79415639
H       -2.31287101      -1.39431021      -0.23395144
H       -2.77659686       0.06660087      -0.84281473
H       -1.30634951       2.26918407       0.08488029
14
Frame=4 idx=006855 GeodesicLength=0.18493486254080715 rxn_smarts="[C:1]([c:2]1[c:3]([H:11])[c:4]([N:5]([H:12])[H:13])[c:6]([H:14])[o:7]1)([H:8])([H:9])[H:10]>>[C:1]([C@@:3]1([H:11])[C-:2]=[O+:7][C:6]([H:14])=[C:4]1[N:5]([H:12])[H:13])([H:8])([H:9])[H:10]"
C        1.83625456      -0.35591537      -0.34749985
C        1.06446001       0.36058000       1.16739550
C        0.21018191      -0.59166079       0.56474368
C       -0.96303711       0.08584925       0.04230946
N       -2.00079206      -0.53518354      -0.65630166
C       -0.75267524       1.38295597       0.32343920
O        0.47306506       1.57301117       0.90105310
H        1.40824453      -0.71991149      -1.28565353
H        2.55277261      -1.06909260       0.04376813
H        2.33279076       0.58073820      -0.58526193
H        0.25801674      -1.64594006       0.80257622
H       -2.30653311      -1.40127879      -0.24057160
H       -2.79503427       0.06337995      -0.81977136
H       -1.31771437       2.27246812       0.08977463
14
Frame=5 idx=006855 GeodesicLength=0.2302037491725954 rxn_smarts="[C:1]([c:2]1[c:3]([H:11])[c:4]([N:5]([H:12])[H:13])[c:6]([H:14])[o:7]1)([H:8])([H:9])[H:10]>>[C:1]([C@@:3]1([H:11])[C-:2]=[O+:7][C:6]([H:14])=[C:4]1[N:5]([H:12])[H:13])([H:8])([H:9])[H:10]"
C        1.84750435      -0.35920561      -0.34924772
C        1.05915079       0.36726749       1.15540991
C        0.20917623      -0.58896201       0.55167603
C       -0.96819023       0.08952485       0.03733732
N       -2.01006497      -0.53199654      -0.65309639
C       -0.76528689       1.38555356       0.32816955
O        0.46816337       1.57629136       0.89473186
H        1.43804109      -0.70977323      -1.30063670
H        2.54784439      -1.08464829       0.04978191
H        2.36849511       0.56730129      -0.57693232
H        0.24821497      -1.63867501       0.81116071
H       -2.30028119      -1.40800600      -0.24738866
H       -2.81326024       0.05972793      -0.79629055
H       -1.32950680       2.27560023       0.09532506
14
Frame=6 idx=006855 GeodesicLength=0.2750702229094372 rxn_smarts="[C:1]([c:2]1[c:3]([H:11])[c:4]([N:5]([H:12])[H:13])[c:6]([H:14])[o:7]1)([H:8])([H:9])[H:10]>>[C:1]([C@@:3]1([H:11])[C-:2]=[O+:7][C:6]([H:14])=[C:4]1[N:5]([H:12])[H:13])([H:8])([H:9])[H:10]"
C        1.85870981      -0.36242250      -0.35114408
C        1.05390788       0.37402062       1.14300585
C        0.20815017      -0.58623142       0.53835595
C       -0.97348109       0.09322812       0.03241981
N       -2.01945554      -0.52888837      -0.64966428
C       -0.77762077       1.38811666       0.33233600
O        0.46309516       1.57961732       0.88843269
H        1.46867780      -0.69942573      -1.31545288
H        2.54237088      -1.10020628       0.05519198
H        2.40425982       0.55322200      -0.56776001
H        0.23827504      -1.63078332       0.81983868
H       -2.29414777      -1.41449323      -0.25438087
H       -2.83122829       0.05563057      -0.77237107
H       -1.34151309       2.27861556       0.10119222
14
Frame=7 idx=006855 GeodesicLength=0.31959032008862204 rxn_smarts="[C:1]([c:2]1[c:3]([H:11])[c:4]([N:5]([H:12])[H:13])[c:6]([H:14])[o:7]1)([H:8])([H:9])[H:10]>>[C:1]([C@@:3]1([H:11])[C-:2]=[O+:7][C:6]([H:14])=[C:4]1[N:5]([H:12])[H:13])([H:8])([H:9])[H:10]"
C        1.86986789      -0.36561486      -0.35319458
C        1.04875549       0.38091789       1.13012353
C        0.20709956      -0.58342742       0.52482325
C       -0.97889778       0.09697979       0.02754560
N       -2.02892700      -0.52581904      -0.64607357
C       -0.78970495       1.39070552       0.33593349
O        0.45789758       1.58304982       0.88203612
H        1.50016213      -0.68899240      -1.33004777
H        2.53632835      -1.11580547       0.06001996
H        2.44007217       0.53839995      -0.55778627
H        0.22819608      -1.62218253       0.82866850
H       -2.28800786      -1.42078629      -0.26174894
H       -2.84895974       0.05107664      -0.74792162
H       -1.35388191       2.28149838       0.10762231
14
Frame=8 idx=006855 GeodesicLength=0.3637866768322005 rxn_smarts="[C:1]([c:2]1[c:3]([H:11])[c:4]([N:5]([H:12])[H:13])[c:6]([H:14])[o:7]1)([H:8])([H:9])[H:10]>>[C:1]([C@@:3]1([H:11])[C-:2]=[O+:7][C:6]([H:14])=[C:4]1[N:5]([H:12])[H:13])([H:8])([H:9])[H:10]"
C        1.88094916      -0.36876264      -0.35541355
C        1.04370216       0.38795677       1.11677265
C        0.20601636      -0.58055698       0.51111720
C       -0.98444959       0.10077209       0.02277039
N       -2.03847080      -0.52277569      -0.64231313
C       -0.80161321       1.39331032       0.33912517
O        0.45256486       1.58658255       0.87560633
H        1.53248174      -0.67847854      -1.34438457
H        2.52970162      -1.13141351       0.06420074
H        2.47583645       0.52281994      -0.54700084
H        0.21801118      -1.61287106       0.83760308
H       -2.28181993      -1.42690158      -0.26958712
H       -2.86644737       0.04603138      -0.72285880
H       -1.36646263       2.28428696       0.11436245
14
Frame=9 idx=006855 GeodesicLength=0.40775494357351594 rxn_smarts="[C:1]([c:2]1[c:3]([H:11])[c:4]([N:5]([H:12])[H:13])[c:6]([H:14])[o:7]1)([H:8])([H:9])[H:10]>>[C:1]([C@@:3]1([H:11])[C-:2]=[O+:7][C:6]([H:14])=[C:4]1[N:5]([H:12])[H:13])([H:8])([H:9])[H:10]"
C        1.89187967      -0.37177378      -0.35787536
C        1.03875861       0.39503854       1.10303243
C        0.20489453      -0.57768673       0.49729762
C       -0.99020963       0.10452813       0.01833049
N       -2.04807992      -0.51983359      -0.63826207
C       -0.81358345       1.39583361       0.34247722
O        0.44705564       1.59011032       0.86944770
H        1.56551132      -0.66762334      -1.35849310
H        2.52247909      -1.14695761       0.06754973
H        2.51146206       0.50659903      -0.53536412
H        0.20782927      -1.60298298       0.84651694
H       -2.27571771      -1.43282531      -0.27771673
H       -2.88357609       0.04049451      -0.69737551
H       -1.37870339       2.28707919       0.12043477
14
Frame=10 idx=006855 GeodesicLength=0.4514340452246018 rxn_smarts="[C:1]([c:2]1[c:3]([H:11])[c:4]([N:5]([H:12])[H:13])[c:6]([H:14])[o:7]1)([H:8])([H:9])[H:10]>>[C:1]([C@@:3]1([H:11])[C-:2]=[O+:7][C:6]([H:14])=[C:4]1[N:5]([H:12])[H:13])([H:8])([H:9])[H:10]"
C        1.90273052      -0.37473973      -0.36052147
C        1.03392243       0.40230278       1.08879263
C        0.20373124      -0.57473800       0.48334672
C       -0.99608357       0.10832538       0.01397653
N       -2.05774344      -0.51692377      -0.63403993
C       -0.82541190       1.39838780       0.34548060
O        0.44141381       1.59375827       0.86324875
H        1.59941760      -0.65677694      -1.37225388
H        2.51467236      -1.16247533       0.07021364
H        2.54691699       0.48954234      -0.52293119
H        0.19760475      -1.59236323       0.85545562
H       -2.26958040      -1.43852674      -0.28631626
H       -2.90039466       0.03444049      -0.67130840
H       -1.39119572       2.28978667       0.12685663
14
Frame=11 idx=006855 GeodesicLength=0.4948235161724794 rxn_smarts="[C:1]([c:2]1[c:3]([H:11])[c:4]([N:5]([H:12])[H:13])[c:6]([H:14])[o:7]1)([H:8])([H:9])[H:10]>>[C:1]([C@@:3]1([H:11])[C-:2]=[O+:7][C:6]([H:14])=[C:4]1[N:5]([H:12])[H:13])([H:8])([H:9])[H:10]"
C        1.91347077      -0.37764370      -0.36337690
C        1.02920926       0.40975542       1.07406173
C        0.20252423      -0.57171511       0.46931912
C       -1.00208002       0.11215228       0.00978249
N       -2.06741367      -0.51407356      -0.62963890
C       -0.83715610       1.40094779       0.34829941
O        0.43563654       1.59752646       0.85707036
H        1.63415331      -0.64596587      -1.38563088
H        2.50628160      -1.17791828       0.07212619
H        2.58208030       0.47164548      -0.50974390
H        0.18739782      -1.58103144       0.86438234
H       -2.26344932      -1.44397835      -0.29532552
H       -2.91680221       0.02787352      -0.64481836
H       -1.40385252       2.29242536       0.13349282
14
Frame=12 idx=006855 GeodesicLength=0.5379613356728206 rxn_smarts="[C:1]([c:2]1[c:3]([H:11])[c:4]([N:5]([H:12])[H:13])[c:6]([H:14])[o:7]1)([H:8])([H:9])[H:10]>>[C:1]([C@@:3]1([H:11])[C-:2]=[O+:7][C:6]([H:14])=[C:4]1[N:5]([H:12])[H:13])([H:8])([H:9])[H:10]"
C        1.92413098      -0.38051075      -0.36642758
C        1.02461253       0.41744048       1.05878849
C        0.20126724      -0.56859348       0.45520306
C       -1.00816682       0.11603406       0.00565092
N       -2.07710835      -0.51125598      -0.62507808
C       -0.84882005       1.40355147       0.35087555
O        0.42973769       1.60144719       0.85082592
H        1.66977841      -0.63528912      -1.39857503
H        2.49731267      -1.19329310       0.07334189
H        2.61692968       0.45284893      -0.49579490
H        0.17721636      -1.56895303       0.87325440
H       -2.25728517      -1.44915900      -0.30482010
H       -2.93281475       0.02075057      -0.61777819
H       -1.41679043       2.29498175       0.14053365
14
Frame=13 idx=006855 GeodesicLength=0.5808192015662587 rxn_smarts="[C:1]([c:2]1[c:3]([H:11])[c:4]([N:5]([H:12])[H:13])[c:6]([H:14])[o:7]1)([H:8])([H:9])[H:10]>>[C:1]([C@@:3]1([H:11])[C-:2]=[O+:7][C:6]([H:14])=[C:4]1[N:5]([H:12])[H:13])([H:8])([H:9])[H:10]"
C        1.93466623      -0.38329679      -0.36970817
C        1.02014655       0.42533062       1.04301452
C        0.19996061      -0.56540093       0.44106590
C       -1.01436586       0.11993596       0.00171425
N       -2.08676987      -0.50852824      -0.62032397
C       -0.86045699       1.40613759       0.35342001
O        0.42369403       1.60548503       0.84466898
H        1.70622358      -0.62472230      -1.41104687
H        2.48777983      -1.20851072       0.07374546
H        2.65129641       0.43320005      -0.48113762
H        0.16714977      -1.55620155       0.88200656
H       -2.25119180      -1.45403872      -0.31461472
H       -2.94831742       0.01312904      -0.59047699
H       -1.42981507       2.29748098       0.14767266
14
Frame=14 idx=006855 GeodesicLength=0.6234790665772716 rxn_smarts="[C:1]([c:2]1[c:3]([H:11])[c:4]([N:5]([H:12])[H:13])[c:6]([H:14])[o:7]1)([H:8])([H:9])[H:10]>>[C:1]([C@@:3]1([H:11])[C-:2]=[O+:7][C:6]([H:14])=[C:4]1[N:5]([H:12])[H:13])([H:8])([H:9])[H:10]"
C        1.94511687      -0.38603476      -0.37320330
C        1.01580263       0.43348677       1.02666570
C        0.19859467      -0.56209498       0.42688004
C       -1.02063998       0.12390282      -0.00216368
N       -2.09643999      -0.50583257      -0.61540453
C       -0.87213973       1.40874827       0.35598769
O        0.41753407       1.60969326       0.83847279
H        1.74356289      -0.61438058      -1.42300199
H        2.47767703      -1.22360532       0.07341532
H        2.68519716       0.41261596      -0.46574608
H        0.15719054      -1.54272819       0.89060709
H       -2.24506054      -1.45861771      -0.32492058
H       -2.96336861       0.00491307      -0.56262596
H       -1.44302700       2.29993397       0.15503750
14
Frame=15 idx=006855 GeodesicLength=0.6659280184556634 rxn_smarts="[C:1]([c:2]1[c:3]([H:11])[c:4]([N:5]([H:12])[H:13])[c:6]([H:14])[o:7]1)([H:8])([H:9])[H:10]>>[C:1]([C@@:3]1([H:11])[C-:2]=[O+:7][C:6]([H:14])=[C:4]1[N:5]([H:12])[H:13])([H:8])([H:9])[H:10]"
C        1.95546338      -0.38868965      -0.37693914
C        1.01158409       0.44189259       1.00975720
C        0.19716928      -0.55869478       0.41268113
C       -1.02699730       0.12791022      -0.00591840
N       -2.10609048      -0.50321716      -0.61028860
C       -0.88387519       1.41135032       0.35864898
O        0.41123713       1.61404166       0.83234485
H        1.78177634      -0.60425018      -1.43439974
H        2.46702115      -1.23851077       0.07227376
H        2.71851378       0.39112871      -0.44963980
H        0.14741092      -1.52859646       0.89899397
H       -2.23899676      -1.46286143      -0.33554902
H       -2.97788692      -0.00384719      -0.53444548
H       -1.45632942       2.30234412       0.16248027
14
Frame=16 idx=006855 GeodesicLength=0.708221077015207 rxn_smarts="[C:1]([c:2]1[c:3]([H:11])[c:4]([N:5]([H:12])[H:13])[c:6]([H:14])[o:7]1)([H:8])([H:9])[H:10]>>[C:1]([C@@:3]1([H:11])[C-:2]=[O+:7][C:6]([H:14])=[C:4]1[N:5]([H:12])[H:13])([H:8])([H:9])[H:10]"
C        1.96572424      -0.39127895      -0.38090743
C        1.00747768       0.45059254       0.99223295
C        0.19566687      -0.55516441       0.39844918
C       -1.03342191       0.13200194      -0.00964158
N       -2.11575981      -0.50062749      -0.60498048
C       -0.89569783       1.41397933       0.36141510
O        0.40482180       1.61856975       0.82621825
H        1.82092947      -0.59441381      -1.44517362
H        2.45579222      -1.25324475       0.07036103
H        2.75122374       0.36867212      -0.43278219
H        0.13780421      -1.51378004       0.90713047
H       -2.23287701      -1.46678319      -0.34675485
H       -2.99192934      -0.01326379      -0.50559218
H       -1.46975430       2.30474076       0.17002536
