14
Frame=0 idx=005410 GeodesicLength=0.0 rxn_smarts="[C:1]([C:2]1=[C:3]([H:10])[C:4]([H:11])([H:12])[O:5][C:6]1([H:13])[H:14])([H:7])([H:8])[H:9]>>[C:1]([C:2]1=[C:3]([H:10])[C:4]([H:11])([H:12])[O+:5]=[C-:6]1)([H:7])([H:8])[H:9].[H:13][H:14]"
C       -1.80277272       0.25969947      -0.61770188
C       -0.36499875       0.06298939      -0.28443124
C        0.64694656       0.92686028      -0.34921658
C        1.88601437       0.26460913       0.14106389
O        1.48265786      -1.09715618       0.34846312
C        0.17585891      -1.24474008       0.15098426
H       -2.09662675      -0.39095276      -1.44303513
H       -2.00959857       1.29267472      -0.89552267
H       -2.43035184       0.00008770       0.23838852
H        0.60721347       1.95703081      -0.67542590
H        2.25405446       0.68430632       1.08586298
H        2.70855425       0.25017677      -0.57699436
H       -0.59888726      -1.16759417       1.78445167
H       -0.45806400      -1.79799140       1.09311335
14
Frame=1 idx=005410 GeodesicLength=0.05534619612447521 rxn_smarts="[C:1]([C:2]1=[C:3]([H:10])[C:4]([H:11])([H:12])[O:5][C:6]1([H:13])[H:14])([H:7])([H:8])[H:9]>>[C:1]([C:2]1=[C:3]([H:10])[C:4]([H:11])([H:12])[O+:5]=[C-:6]1)([H:7])([H:8])[H:9].[H:13][H:14]"
C       -1.80038940       0.26486768      -0.61484629
C       -0.36324313       0.06921713      -0.27809924
C        0.64905410       0.93192576      -0.35073362
C        1.88958193       0.27259208       0.13941416
O        1.48574663      -1.08594789       0.36427564
C        0.17780937      -1.23612644       0.16528689
H       -2.09763842      -0.40046974      -1.42724218
H       -2.00399770       1.29282730      -0.91299778
H       -2.42858934       0.02440180       0.24632897
H        0.61052636       1.95815720      -0.68949685
H        2.26403398       0.70165657       1.07727935
H        2.70788370       0.25126536      -0.58360824
H       -0.61395300      -1.20775248       1.78230481
H       -0.47682509      -1.83661432       1.08213437
14
Frame=2 idx=005410 GeodesicLength=0.11064762374931125 rxn_smarts="[C:1]([C:2]1=[C:3]([H:10])[C:4]([H:11])([H:12])[O:5][C:6]1([H:13])[H:14])([H:7])([H:8])[H:9]>>[C:1]([C:2]1=[C:3]([H:10])[C:4]([H:11])([H:12])[O+:5]=[C-:6]1)([H:7])([H:8])[H:9].[H:13][H:14]"
C       -1.79797144       0.27015947      -0.61155729
C       -0.36139111       0.07564224      -0.27155060
C        0.65135843       0.93692198      -0.35285196
C        1.89322462       0.28078686       0.13784458
O        1.48871417      -1.07399186       0.38154441
C        0.17965817      -1.22698081       0.18096931
H       -2.09870832      -0.40959062      -1.41072038
H       -1.99844246       1.29271646      -0.92982148
H       -2.42658077       0.04884563       0.25441005
H        0.61407307       1.95882016      -0.70482678
H        2.27409709       0.71999612       1.06821771
H        2.70727053       0.25160331      -0.59000161
H       -0.63003258      -1.24936134       1.77905249
H       -0.49526941      -1.87556759       1.06929153
14
Frame=3 idx=005410 GeodesicLength=0.1658482697666292 rxn_smarts="[C:1]([C:2]1=[C:3]([H:10])[C:4]([H:11])([H:12])[O:5][C:6]1([H:13])[H:14])([H:7])([H:8])[H:9]>>[C:1]([C:2]1=[C:3]([H:10])[C:4]([H:11])([H:12])[O+:5]=[C-:6]1)([H:7])([H:8])[H:9].[H:13][H:14]"
C       -1.79552274       0.27554909      -0.60787164
C       -0.35945759       0.08225834      -0.26480490
C        0.65385481       0.94180188      -0.35560234
C        1.89692150       0.28913866       0.13631901
O        1.49150289      -1.06126540       0.40026594
C        0.18132920      -1.21724545       0.19818290
H       -2.09977191      -0.41826982      -1.39359187
H       -1.99296509       1.29235329      -0.94591834
H       -2.42435981       0.07327019       0.26254183
H        0.61781186       1.95902903      -0.72119131
H        2.28425344       0.73925009       1.05859445
H        2.70667244       0.25108250      -0.59619287
H       -0.64703738      -1.29225155       1.77465727
H       -0.51323160      -1.91470085       1.05461186
14
Frame=4 idx=005410 GeodesicLength=0.2209468770012018 rxn_smarts="[C:1]([C:2]1=[C:3]([H:10])[C:4]([H:11])([H:12])[O:5][C:6]1([H:13])[H:14])([H:7])([H:8])[H:9]>>[C:1]([C:2]1=[C:3]([H:10])[C:4]([H:11])([H:12])[O+:5]=[C-:6]1)([H:7])([H:8])[H:9].[H:13][H:14]"
C       -1.79306260       0.28103895      -0.60379148
C       -0.35745846       0.08907850      -0.25783489
C        0.65654541       0.94652027      -0.35902667
C        1.90067388       0.29761525       0.13482686
O        1.49407907      -1.04769201       0.42056176
C        0.18277317      -1.20684022       0.21708723
H       -2.10079402      -0.42647956      -1.37591562
H       -1.98760942       1.29177211      -0.96123070
H       -2.42198160       0.09760513       0.27069995
H        0.62172619       1.95875222      -0.73854270
H        2.29454224       0.75943267       1.04832033
H        2.70607176       0.24956552      -0.60217926
H       -0.66494839      -1.33642416       1.76902453
H       -0.53055723      -1.95394468       1.03800067
14
Frame=5 idx=005410 GeodesicLength=0.2759371116995833 rxn_smarts="[C:1]([C:2]1=[C:3]([H:10])[C:4]([H:11])([H:12])[O:5][C:6]1([H:13])[H:14])([H:7])([H:8])[H:9]>>[C:1]([C:2]1=[C:3]([H:10])[C:4]([H:11])([H:12])[O+:5]=[C-:6]1)([H:7])([H:8])[H:9].[H:13][H:14]"
C       -1.79061040       0.28664755      -0.59929080
C       -0.35541035       0.09611716      -0.25063072
C        0.65942512       0.95103631      -0.36315164
C        1.90446109       0.30619763       0.13339396
O        1.49639398      -1.03318106       0.44253510
C        0.18393482      -1.19567260       0.23783288
H       -2.10180680      -0.43424404      -1.35763073
H       -1.98238856       1.29098751      -0.97579547
H       -2.41945845       0.12191886       0.27894203
H        0.62582913       1.95791318      -0.75695371
H        2.30494731       0.78054761       1.03735314
H        2.70544808       0.24695032      -0.60788456
H       -0.68373375      -1.38195420       1.76198810
H       -0.54703121      -1.99326424       1.01929243
14
Frame=6 idx=005410 GeodesicLength=0.3308036842662621 rxn_smarts="[C:1]([C:2]1=[C:3]([H:10])[C:4]([H:11])([H:12])[O:5][C:6]1([H:13])[H:14])([H:7])([H:8])[H:9]>>[C:1]([C:2]1=[C:3]([H:10])[C:4]([H:11])([H:12])[O+:5]=[C-:6]1)([H:7])([H:8])[H:9].[H:13][H:14]"
C       -1.78818958       0.29239138      -0.59435046
C       -0.35333378       0.10338378      -0.24318565
C        0.66248981       0.95529152      -0.36801533
C        1.90826082       0.31485379       0.13204145
O        1.49838950      -1.01763505       0.46629311
C        0.18473859      -1.18363007       0.26060752
H       -2.10283833      -0.44157409      -1.33869733
H       -1.97732172       1.29001770      -0.98962386
H       -2.41681417       0.14625271       0.28730376
H        0.63012839       1.95643069      -0.77646559
H        2.31545826       0.80259002       1.02563391
H        2.70477528       0.24310996      -0.61322997
H       -0.70334054      -1.42889654       1.75336841
H       -0.56240254      -2.03258580       0.99832003
14
Frame=7 idx=005410 GeodesicLength=0.38553012008789384 rxn_smarts="[C:1]([C:2]1=[C:3]([H:10])[C:4]([H:11])([H:12])[O:5][C:6]1([H:13])[H:14])([H:7])([H:8])[H:9]>>[C:1]([C:2]1=[C:3]([H:10])[C:4]([H:11])([H:12])[O+:5]=[C-:6]1)([H:7])([H:8])[H:9].[H:13][H:14]"
C       -1.78582459       0.29828062      -0.58897952
C       -0.35125694       0.11088097      -0.23550948
C        0.66571900       0.95922846      -0.37361562
C        1.91203917       0.32352658       0.13077679
O        1.49999874      -1.00098023       0.49187546
C        0.18508418      -1.17057941       0.28564043
H       -2.10391340      -0.44851612      -1.31906874
H       -1.97241696       1.28885348      -1.00281001
H       -2.41407984       0.17069384       0.29579165
H        0.63460193       1.95426388      -0.79698393
H        2.32607178       0.82548246       1.01309344
H        2.70399731       0.23791212      -0.61816061
H       -0.72366433      -1.47725966       1.74299369
H       -0.57635606      -2.07178698       0.97495644
14
Frame=8 idx=005410 GeodesicLength=0.4401020614248213 rxn_smarts="[C:1]([C:2]1=[C:3]([H:10])[C:4]([H:11])([H:12])[O:5][C:6]1([H:13])[H:14])([H:7])([H:8])[H:9]>>[C:1]([C:2]1=[C:3]([H:10])[C:4]([H:11])([H:12])[O+:5]=[C-:6]1)([H:7])([H:8])[H:9].[H:13][H:14]"
C       -1.78355270       0.30431587      -0.58320789
C       -0.34921961       0.11861592      -0.22758163
C        0.66909350       0.96277789      -0.37993761
C        1.91577582       0.33213633       0.12959092
O        1.50115327      -0.98313459       0.51933788
C        0.18483774      -1.15634231       0.31322829
H       -2.10503415      -0.45508917      -1.29876932
H       -1.96770014       1.28749232      -1.01540816
H       -2.41133698       0.19524185       0.30435600
H        0.63922152       1.95138774      -0.81835474
H        2.33685253       0.84912253       0.99962104
H        2.70304231       0.23118542      -0.62265884
H       -0.74458961      -1.52702969       1.73069898
H       -0.58854349      -2.11068013       0.94908508
14
Frame=9 idx=005410 GeodesicLength=0.49446773886207107 rxn_smarts="[C:1]([C:2]1=[C:3]([H:10])[C:4]([H:11])([H:12])[O:5][C:6]1([H:13])[H:14])([H:7])([H:8])[H:9]>>[C:1]([C:2]1=[C:3]([H:10])[C:4]([H:11])([H:12])[O+:5]=[C-:6]1)([H:7])([H:8])[H:9].[H:13][H:14]"
C       -1.78140080       0.31050484      -0.57706926
C       -0.34727576       0.12659736      -0.21939322
C        0.67255847       0.96590263      -0.38687282
C        1.91940123       0.34059055       0.12849145
O        1.50175109      -0.96406124       0.54860858
C        0.18382891      -1.14071329       0.34370690
H       -2.10621241      -0.46138000      -1.27773490
H       -1.96314980       1.28588422      -1.02760767
H       -2.40864274       0.22005811       0.31295692
H        0.64396116       1.94776785      -0.84043145
H        2.34780294       0.87330984       0.98515915
H        2.70177321       0.22278367      -0.62668786
H       -0.76589861      -1.57820107       1.71628195
H       -0.59849689      -2.14904345       0.92059222
14
Frame=10 idx=005410 GeodesicLength=0.5486186110992961 rxn_smarts="[C:1]([C:2]1=[C:3]([H:10])[C:4]([H:11])([H:12])[O:5][C:6]1([H:13])[H:14])([H:7])([H:8])[H:9]>>[C:1]([C:2]1=[C:3]([H:10])[C:4]([H:11])([H:12])[O+:5]=[C-:6]1)([H:7])([H:8])[H:9].[H:13][H:14]"
C       -1.77942612       0.31693176      -0.57041721
C       -0.34546799       0.13484363      -0.21086508
C        0.67612386       0.96843084      -0.39457138
C        1.92286514       0.34885674       0.12759383
O        1.50165514      -0.94346717       0.58012846
C        0.18190283      -1.12337882       0.37747634
H       -2.10763104      -0.46737859      -1.25565377
H       -1.95878299       1.28403872      -1.03937739
H       -2.40598903       0.24538282       0.32178075
H        0.64891783       1.94304104      -0.86371829
H        2.35888376       0.89820398       0.96959919
H        2.70014782       0.21240013      -0.62995222
H       -0.78758617      -1.63114579       1.69911506
H       -0.60561304      -2.18675927       0.88886171
14
Frame=11 idx=005410 GeodesicLength=0.6025971016079273 rxn_smarts="[C:1]([C:2]1=[C:3]([H:10])[C:4]([H:11])([H:12])[O:5][C:6]1([H:13])[H:14])([H:7])([H:8])[H:9]>>[C:1]([C:2]1=[C:3]([H:10])[C:4]([H:11])([H:12])[O+:5]=[C-:6]1)([H:7])([H:8])[H:9].[H:13][H:14]"
C       -1.77772133       0.32363214      -0.56329437
C       -0.34390200       0.14337991      -0.20192167
C        0.67971834       0.97030108      -0.40289655
C        1.92609936       0.35678239       0.12692387
O        1.50072865      -0.92132070       0.61386611
C        0.17878138      -1.10401242       0.41505168
H       -2.10933270      -0.47313175      -1.23246045
H       -1.95462841       1.28192355      -1.05093149
H       -2.40356330       0.27139809       0.33073718
H        0.65407789       1.93710873      -0.88813156
H        2.37013994       0.92351385       0.95286368
H        2.69802170       0.19978708      -0.63238617
H       -0.80930099      -1.68590862       1.67886029
H       -0.60911850      -2.22345333       0.85371945
14
Frame=12 idx=005410 GeodesicLength=0.6563437568305168 rxn_smarts="[C:1]([C:2]1=[C:3]([H:10])[C:4]([H:11])([H:12])[O:5][C:6]1([H:13])[H:14])([H:7])([H:8])[H:9]>>[C:1]([C:2]1=[C:3]([H:10])[C:4]([H:11])([H:12])[O+:5]=[C-:6]1)([H:7])([H:8])[H:9].[H:13][H:14]"
C       -1.77635864       0.33057340      -0.55586773
C       -0.34272983       0.15224591      -0.19239047
C        0.68319871       0.97148808      -0.41148756
C        1.92898601       0.36409493       0.12643936
O        1.49879551      -0.89773662       0.64952824
C        0.17409185      -1.08220857       0.45698562
H       -2.11122904      -0.47875045      -1.20827438
H       -1.95066893       1.27940761      -1.06259091
H       -2.40162637       0.29817663       0.33949311
H        0.65931965       1.93002894      -0.91306926
H        2.38174255       0.94864974       0.93484300
H        2.69502584       0.18464842      -0.63411131
H       -0.83040294      -1.74219460       1.65530028
H       -0.60814436      -2.25842343       0.81520202
14
Frame=13 idx=005410 GeodesicLength=0.7099533515089234 rxn_smarts="[C:1]([C:2]1=[C:3]([H:10])[C:4]([H:11])([H:12])[O:5][C:6]1([H:13])[H:14])([H:7])([H:8])[H:9]>>[C:1]([C:2]1=[C:3]([H:10])[C:4]([H:11])([H:12])[O+:5]=[C-:6]1)([H:7])([H:8])[H:9].[H:13][H:14]"
C       -1.77547820       0.33774722      -0.54817146
C       -0.34213770       0.16152759      -0.18193807
C        0.68644719       0.97195021      -0.41999465
C        1.93144002       0.37052798       0.12619435
O        1.49563670      -0.87270328       0.68715649
C        0.16747066      -1.05753762       0.50378055
H       -2.11332595      -0.48436271      -1.18302453
H       -1.94693219       1.27635661      -1.07455719
H       -2.40055970       0.32581602       0.34784667
H        0.66464814       1.92161402      -0.93840735
H        2.39393543       0.97318661       0.91539335
H        2.69085443       0.16655063      -0.63511293
H       -0.85029694      -1.79980071       1.62784719
H       -0.60170189      -2.29087256       0.77298757
14
Frame=14 idx=005410 GeodesicLength=0.7628819098244646 rxn_smarts="[C:1]([C:2]1=[C:3]([H:10])[C:4]([H:11])([H:12])[O:5][C:6]1([H:13])[H:14])([H:7])([H:8])[H:9]>>[C:1]([C:2]1=[C:3]([H:10])[C:4]([H:11])([H:12])[O+:5]=[C-:6]1)([H:7])([H:8])[H:9].[H:13][H:14]"
C       -1.77506755       0.34510029      -0.54052095
C       -0.34232966       0.17114178      -0.17055502
C        0.68917427       0.97155653      -0.42805999
C        1.93302905       0.37558374       0.12619434
O        1.49083619      -0.84681376       0.72586151
C        0.15848419      -1.03006553       0.55487166
H       -2.11544321      -0.48976786      -1.15719536
H       -1.94329207       1.27271143      -1.08704357
H       -2.40047222       0.35412243       0.35528553
H        0.66978089       1.91202075      -0.96314659
H        2.40623271       0.99584566       0.89487831
H        2.68490133       0.14540136      -0.63534304
H       -0.86702757      -1.85734455       1.59676594
H       -0.58880635      -2.31949229       0.72800723
14
Frame=15 idx=005410 GeodesicLength=0.8158602036833393 rxn_smarts="[C:1]([C:2]1=[C:3]([H:10])[C:4]([H:11])([H:12])[O:5][C:6]1([H:13])[H:14])([H:7])([H:8])[H:9]>>[C:1]([C:2]1=[C:3]([H:10])[C:4]([H:11])([H:12])[O+:5]=[C-:6]1)([H:7])([H:8])[H:9].[H:13][H:14]"
C       -1.77551798       0.35263340      -0.53292752
C       -0.34343342       0.18075986      -0.15861967
C        0.69138342       0.97008742      -0.43569663
C        1.93381491       0.37910220       0.12683252
O        1.48433603      -0.82035782       0.76541861
C        0.14724800      -1.00075667       0.60818737
H       -2.11847288      -0.49489218      -1.13084637
H       -1.94008274       1.26856894      -1.09985407
H       -2.40158628       0.38311514       0.36201586
H        0.67485169       1.90093729      -0.98749735
H        2.41837991       1.01636704       0.87409367
H        2.67768836       0.12140738      -0.63408753
H       -0.87904606      -1.91326074       1.56224091
H       -0.56956296      -2.34371127       0.68074019
14
Frame=16 idx=005410 GeodesicLength=0.8685885540775014 rxn_smarts="[C:1]([C:2]1=[C:3]([H:10])[C:4]([H:11])([H:12])[O:5][C:6]1([H:13])[H:14])([H:7])([H:8])[H:9]>>[C:1]([C:2]1=[C:3]([H:10])[C:4]([H:11])([H:12])[O+:5]=[C-:6]1)([H:7])([H:8])[H:9].[H:13][H:14]"
C       -1.77657924       0.36049904      -0.52529443
C       -0.34530097       0.18980107      -0.14708954
C        0.69296785       0.96718264      -0.44331229
C        1.93320846       0.38113911       0.12852763
O        1.47567121      -0.79366585       0.80533175
C        0.13417751      -0.97144286       0.66036011
H       -2.12289590      -0.49912717      -1.10378082
H       -1.93703799       1.26431102      -1.11246056
H       -2.40285075       0.41294574       0.36840530
H        0.67987298       1.88788703      -1.01201757
H        2.42866784       1.03460936       0.85398917
H        2.66920670       0.09531288      -0.63011559
H       -0.88419053      -1.96591581       1.52514847
H       -0.54491716      -2.36353619       0.63230837
