17
Frame=0 idx=010319 GeodesicLength=0.0 rxn_smarts="[C:1]([C@@:2]1([H:11])[C@:3]([O:4][H:13])([H:12])[C:5]([H:14])([H:15])[C@:6]1([O:7][H:17])[H:16])([H:8])([H:9])[H:10]>>[C:1]([C@@:2]1([H:11])[C:5]([H:14])([H:15])[C@:6]1([O:7][H:17])[H:16])([H:8])([H:9])[H:10].[C:3]([O:4][H:13])[H:12]"
C       -1.55489397      -0.34378701      -0.41485713
C       -0.50485130       0.29779268       0.45773740
C        0.29414848      -1.35240513       1.09886568
O        0.59775266      -2.24883326       0.12176327
C        1.21467241       0.40003700       0.24191262
C        0.26189252       1.42821374      -0.20613633
O        0.19452128       1.57254737      -1.59478134
H       -2.26583307       0.41135443      -0.76650480
H       -2.08082254      -1.10579355       0.15659049
H       -1.10609912      -0.82154918      -1.28468907
H       -0.85001639       0.58976888       1.44073730
H        1.14182285      -1.18023966       1.77155304
H        1.54661505      -2.34661308      -0.02589588
H        1.86155676       0.65089376       1.07025422
H        1.66411512      -0.16797201      -0.56166815
H        0.27932229       2.37491956       0.33219878
H       -0.69390300       1.84166544      -1.83708011
17
Frame=1 idx=010319 GeodesicLength=0.06453919362403825 rxn_smarts="[C:1]([C@@:2]1([H:11])[C@:3]([O:4][H:13])([H:12])[C:5]([H:14])([H:15])[C@:6]1([O:7][H:17])[H:16])([H:8])([H:9])[H:10]>>[C:1]([C@@:2]1([H:11])[C:5]([H:14])([H:15])[C@:6]1([O:7][H:17])[H:16])([H:8])([H:9])[H:10].[C:3]([O:4][H:13])[H:12]"
C       -1.55084647      -0.35019287      -0.42891804
C       -0.50719255       0.29148859       0.45186087
C        0.30495548      -1.34998710       1.13111864
O        0.59077295      -2.26622432       0.16946303
C        1.21442279       0.38633909       0.22319273
C        0.26179166       1.42707908      -0.20193511
O        0.18527665       1.59617471      -1.58739930
H       -2.27132591       0.39950053      -0.77214685
H       -2.07512159      -1.12254154       0.13031607
H       -1.09508087      -0.81369616      -1.30283064
H       -0.86763277       0.58695928       1.42902314
H        1.14775616      -1.16044996       1.80513368
H        1.53557436      -2.33801124      -0.01486651
H        1.89001559       0.63735694       1.02872086
H        1.64647561      -0.17550093      -0.59463452
H        0.29009640       2.36540570       0.35064581
H       -0.69993748       1.88630021      -1.81674385
17
Frame=2 idx=010319 GeodesicLength=0.128780014173485 rxn_smarts="[C:1]([C@@:2]1([H:11])[C@:3]([O:4][H:13])([H:12])[C:5]([H:14])([H:15])[C@:6]1([O:7][H:17])[H:16])([H:8])([H:9])[H:10]>>[C:1]([C@@:2]1([H:11])[C:5]([H:14])([H:15])[C@:6]1([O:7][H:17])[H:16])([H:8])([H:9])[H:10].[C:3]([O:4][H:13])[H:12]"
C       -1.54662105      -0.35683148      -0.44327407
C       -0.50969544       0.28503083       0.44594423
C        0.31645456      -1.34628135       1.16369230
O        0.58402752      -2.28204279       0.21803739
C        1.21401905       0.37248165       0.20437121
C        0.26187341       1.42557239      -0.19748036
O        0.17621759       1.61957762      -1.57923404
H       -2.27671929       0.38710596      -0.77803122
H       -2.06839095      -1.13999004       0.10342336
H       -1.08409966      -0.80544492      -1.32140014
H       -0.88562720       0.58368247       1.41699800
H        1.15436027      -1.13873475       1.83838788
H        1.52216308      -2.32977304      -0.00443109
H        1.91783598       0.62297900       0.98603979
H        1.62826838      -0.18301073      -0.62739702
H        0.30122763       2.35510377       0.36932374
H       -0.70529388       1.93057540      -1.79496997
17
Frame=3 idx=010319 GeodesicLength=0.1927653835284636 rxn_smarts="[C:1]([C@@:2]1([H:11])[C@:3]([O:4][H:13])([H:12])[C:5]([H:14])([H:15])[C@:6]1([O:7][H:17])[H:16])([H:8])([H:9])[H:10]>>[C:1]([C@@:2]1([H:11])[C:5]([H:14])([H:15])[C@:6]1([O:7][H:17])[H:16])([H:8])([H:9])[H:10].[C:3]([O:4][H:13])[H:12]"
C       -1.54223514      -0.36369287      -0.45792606
C       -0.51235647       0.27839375       0.43997115
C        0.32868536      -1.34125120       1.19652124
O        0.57752658      -2.29624581       0.26744494
C        1.21346883       0.35845743       0.18544901
C        0.26214300       1.42366727      -0.19277217
O        0.16736300       1.64272675      -1.57027448
H       -2.28204622       0.37417765      -0.78410314
H       -2.06059474      -1.15813246       0.07589469
H       -1.07322850      -0.79672446      -1.34042898
H       -0.90394877       0.57988878       1.40466003
H        1.16165364      -1.11505492       1.87122645
H        1.50634421      -2.32191755       0.00551298
H        1.94489538       0.60775540       0.94229180
H        1.60956085      -0.19046368      -0.65993962
H        0.31270103       2.34397436       0.38822813
H       -0.70993204       1.97444156      -1.77175599
17
Frame=4 idx=010319 GeodesicLength=0.2565986447056413 rxn_smarts="[C:1]([C@@:2]1([H:11])[C@:3]([O:4][H:13])([H:12])[C:5]([H:14])([H:15])[C@:6]1([O:7][H:17])[H:16])([H:8])([H:9])[H:10]>>[C:1]([C@@:2]1([H:11])[C:5]([H:14])([H:15])[C@:6]1([O:7][H:17])[H:16])([H:8])([H:9])[H:10].[C:3]([O:4][H:13])[H:12]"
C       -1.53771093      -0.37077204      -0.47287826
C       -0.51517586       0.27154874       0.43392641
C        0.34169459      -1.33486869       1.22955781
O        0.57127633      -2.30881225       0.31768120
C        1.21279004       0.34426090       0.16642716
C        0.26260544       1.42134620      -0.18781316
O        0.15873895       1.66561507      -1.56051609
H       -2.28735705       0.36071467      -0.79031115
H       -2.05170087      -1.17697798       0.04770339
H       -1.06253545      -0.78745811      -1.35994883
H       -0.92255592       0.57552222       1.39201205
H        1.16966881      -1.08938349       1.90357274
H        1.48804776      -2.31445342       0.01503648
H        1.97109632       0.59168849       0.89756913
H        1.59043457      -0.19781996      -0.69224909
H        0.32449741       2.33198842       0.40735014
H       -0.71381415       2.01786120      -1.74711991
17
Frame=5 idx=010319 GeodesicLength=0.32016036776628937 rxn_smarts="[C:1]([C@@:2]1([H:11])[C@:3]([O:4][H:13])([H:12])[C:5]([H:14])([H:15])[C@:6]1([O:7][H:17])[H:16])([H:8])([H:9])[H:10]>>[C:1]([C@@:2]1([H:11])[C:5]([H:14])([H:15])[C@:6]1([O:7][H:17])[H:16])([H:8])([H:9])[H:10].[C:3]([O:4][H:13])[H:12]"
C       -1.53303913      -0.37805253      -0.48813794
C       -0.51813378       0.26446814       0.42778169
C        0.35550201      -1.32706777       1.26268075
O        0.56528703      -2.31963760       0.36862898
C        1.21195824       0.32986335       0.14728117
C        0.26326546       1.41854697      -0.18259542
O        0.15033464       1.68816731      -1.54992008
H       -2.29263489       0.34670955      -0.79658668
H       -2.04162564      -1.19648356       0.01880952
H       -1.05209554      -0.77756942      -1.37999286
H       -0.94135207       0.57053967       1.37904808
H        1.17836422      -1.06164263       1.93529358
H        1.46726150      -2.30738846       0.02438791
H        1.99628873       0.57478244       0.85193876
H        1.57090386      -0.20505875      -0.72434854
H        0.33661618       2.31905593       0.42670898
H       -0.71690082       2.06076735      -1.72097790
17
Frame=6 idx=010319 GeodesicLength=0.38370526312818704 rxn_smarts="[C:1]([C@@:2]1([H:11])[C@:3]([O:4][H:13])([H:12])[C:5]([H:14])([H:15])[C@:6]1([O:7][H:17])[H:16])([H:8])([H:9])[H:10]>>[C:1]([C@@:2]1([H:11])[C:5]([H:14])([H:15])[C@:6]1([O:7][H:17])[H:16])([H:8])([H:9])[H:10].[C:3]([O:4][H:13])[H:12]"
C       -1.52832573      -0.38550685      -0.50367825
C       -0.52125242       0.25712376       0.42153351
C        0.37015421      -1.31793708       1.29581025
O        0.55962735      -2.32876297       0.42020461
C        1.21103838       0.31528424       0.12805097
C        0.26412333       1.41528878      -0.17716552
O        0.14221789       1.71038869      -1.53856416
H       -2.29803166       0.33221877      -0.80285481
H       -2.03045217      -1.21663503      -0.01074244
H       -1.04205746      -0.76696983      -1.40055757
H       -0.96030502       0.56486557       1.36581632
H        1.18776928      -1.03196856       1.96632473
H        1.44405197      -2.30074971       0.03367443
H        2.02041226       0.55708622       0.80561702
H        1.55117914      -0.21208991      -0.75618246
H        0.34898831       2.30522443       0.44620570
H       -0.71913767       2.10313950      -1.69349235
17
Frame=7 idx=010319 GeodesicLength=0.4468515655759434 rxn_smarts="[C:1]([C@@:2]1([H:11])[C@:3]([O:4][H:13])([H:12])[C:5]([H:14])([H:15])[C@:6]1([O:7][H:17])[H:16])([H:8])([H:9])[H:10]>>[C:1]([C@@:2]1([H:11])[C:5]([H:14])([H:15])[C@:6]1([O:7][H:17])[H:16])([H:8])([H:9])[H:10].[C:3]([O:4][H:13])[H:12]"
C       -1.52350062      -0.39311570      -0.51946481
C       -0.52447042       0.24950214       0.41518516
C        0.38567312      -1.30735933       1.32876507
O        0.55424602      -2.33601690       0.47221805
C        1.20996670       0.30053803       0.10879104
C        0.26516572       1.41147159      -0.17148354
O        0.13444573       1.73205213      -1.52637328
H       -2.30344124       0.31719350      -0.80896973
H       -2.01802260      -1.23733303      -0.04098493
H       -1.03247373      -0.75559415      -1.42161397
H       -0.97922104       0.55848462       1.35235440
H        1.19782208      -1.00027183       1.99647785
H        1.41817850      -2.29438147       0.04279769
H        2.04322652       0.53867999       0.75883141
H        1.53126157      -0.21886083      -0.78767704
H        0.36154973       2.29040152       0.46584643
H       -0.72040603       2.14460972      -1.66469982
17
Frame=8 idx=010319 GeodesicLength=0.5099492949635956 rxn_smarts="[C:1]([C@@:2]1([H:11])[C@:3]([O:4][H:13])([H:12])[C:5]([H:14])([H:15])[C@:6]1([O:7][H:17])[H:16])([H:8])([H:9])[H:10]>>[C:1]([C@@:2]1([H:11])[C:5]([H:14])([H:15])[C@:6]1([O:7][H:17])[H:16])([H:8])([H:9])[H:10].[C:3]([O:4][H:13])[H:12]"
C       -1.51868913      -0.40085192      -0.53551353
C       -0.52783005       0.24156762       0.40870376
C        0.40207221      -1.29546150       1.36148414
O        0.54924177      -2.34147602       0.52459731
C        1.20880942       0.28559047       0.08944959
C        0.26640106       1.40712640      -0.16560981
O        0.12701114       1.75327905      -1.51343075
H       -2.30903773       0.30168991      -0.81492477
H       -2.00444842      -1.25856662      -0.07191241
H       -1.02348952      -0.74334816      -1.44318738
H       -0.99811540       0.55131500       1.33868758
H        1.20849564      -0.96668799       2.02572214
H        1.38993318      -2.28838804       0.05224709
H        2.06478575       0.51956226       0.71165034
H        1.51129669      -0.22533738      -0.81890777
H        0.37429607       2.27460943       0.48557564
H       -0.72073270       2.18537748      -1.63463117
17
Frame=9 idx=010319 GeodesicLength=0.5729766743170809 rxn_smarts="[C:1]([C@@:2]1([H:11])[C@:3]([O:4][H:13])([H:12])[C:5]([H:14])([H:15])[C@:6]1([O:7][H:17])[H:16])([H:8])([H:9])[H:10]>>[C:1]([C@@:2]1([H:11])[C:5]([H:14])([H:15])[C@:6]1([O:7][H:17])[H:16])([H:8])([H:9])[H:10].[C:3]([O:4][H:13])[H:12]"
C       -1.51387682      -0.40871205      -0.55184222
C       -0.53131574       0.23329603       0.40207002
C        0.41937156      -1.28218240       1.39387983
O        0.54459608      -2.34507841       0.57730399
C        1.20754571       0.27041022       0.06999811
C        0.26783151       1.40220146      -0.15952491
O        0.11992193       1.77402294      -1.49968848
H       -2.31482550       0.28564847      -0.82065227
H       -1.98962297      -1.28031831      -0.10362201
H       -1.01515694      -0.73014514      -1.46529246
H       -1.01691093       0.54332232       1.32483139
H        1.21973828      -0.93113273       2.05395859
H        1.35923666      -2.28268955       0.06216538
H        2.08503347       0.49973866       0.66414638
H        1.49127526      -0.23152023      -0.84991485
H        0.38723241       2.25777226       0.50542636
H       -0.72007398       2.22536646      -1.60324285
17
Frame=10 idx=010319 GeodesicLength=0.6360042105715062 rxn_smarts="[C:1]([C@@:2]1([H:11])[C@:3]([O:4][H:13])([H:12])[C:5]([H:14])([H:15])[C@:6]1([O:7][H:17])[H:16])([H:8])([H:9])[H:10]>>[C:1]([C@@:2]1([H:11])[C:5]([H:14])([H:15])[C@:6]1([O:7][H:17])[H:16])([H:8])([H:9])[H:10].[C:3]([O:4][H:13])[H:12]"
C       -1.50909195      -0.41668168      -0.56846524
C       -0.53493175       0.22466246       0.39526085
C        0.43757805      -1.26752064       1.42585736
O        0.54032379      -2.34679300       0.63026608
C        1.20616946       0.25496023       0.05039722
C        0.26946049       1.39666409      -0.15323268
O        0.11318365       1.79427956      -1.48512965
H       -2.32085272       0.26903821      -0.82610289
H       -1.97350065      -1.30255498      -0.13618303
H       -1.00756243      -0.71589425      -1.48792932
H       -1.03555876       0.53446213       1.31080718
H        1.23147649      -0.89358739       2.08109656
H        1.32617366      -2.27724268       0.07283090
H        2.10394983       0.47920355       0.61638075
H        1.47121327      -0.23740509      -0.88075168
H        0.40036449       2.23983459       0.52540251
H       -0.71839491       2.26457489      -1.57050491
17
Frame=11 idx=010319 GeodesicLength=0.6990956363388763 rxn_smarts="[C:1]([C@@:2]1([H:11])[C@:3]([O:4][H:13])([H:12])[C:5]([H:14])([H:15])[C@:6]1([O:7][H:17])[H:16])([H:8])([H:9])[H:10]>>[C:1]([C@@:2]1([H:11])[C:5]([H:14])([H:15])[C@:6]1([O:7][H:17])[H:16])([H:8])([H:9])[H:10].[C:3]([O:4][H:13])[H:12]"
C       -1.50436474      -0.42475073      -0.58539341
C       -0.53868657       0.21564641       0.38825399
C        0.45668725      -1.25147557       1.45731073
O        0.53643089      -2.34659467       0.68340018
C        1.20466818       0.23920168       0.03060583
C        0.27129345       1.39048344      -0.14673451
O        0.10680952       1.81404078      -1.46972733
H       -2.32716238       0.25181714      -0.83122952
H       -1.95603959      -1.32523755      -0.16966544
H       -1.00079278      -0.70051875      -1.51107846
H       -1.05401813       0.52470091       1.29663650
H        1.24361221      -0.85402430       2.10703352
H        1.29086814      -2.27199211       0.08452302
H        2.12152152       0.45795087       0.56840194
H        1.45111505      -0.24299535      -0.91147073
H        0.41370220       2.22074685       0.54550762
H       -0.71564421       2.30300093      -1.53637392
17
Frame=12 idx=010319 GeodesicLength=0.7624514342329904 rxn_smarts="[C:1]([C@@:2]1([H:11])[C@:3]([O:4][H:13])([H:12])[C:5]([H:14])([H:15])[C@:6]1([O:7][H:17])[H:16])([H:8])([H:9])[H:10]>>[C:1]([C@@:2]1([H:11])[C:5]([H:14])([H:15])[C@:6]1([O:7][H:17])[H:16])([H:8])([H:9])[H:10].[C:3]([O:4][H:13])[H:12]"
C       -1.49975118      -0.43290401      -0.60267444
C       -0.54259305       0.20621534       0.38103999
C        0.47672384      -1.23401471       1.48819870
O        0.53291604      -2.34440871       0.73669131
C        1.20304921       0.22308613       0.01058588
C        0.27335162       1.38359710      -0.14001444
O        0.10081130       1.83329110      -1.45346865
H       -2.33386050       0.23390592      -0.83599776
H       -1.93718846      -1.34833524      -0.20421774
H       -0.99497029      -0.68387535      -1.53478559
H       -1.07226327       0.51397525       1.28237353
H        1.25609136      -0.81237361       2.13174504
H        1.25339491      -2.26681718       0.09745938
H        2.13780604       0.43594095       0.52025799
H        1.43097277      -0.24828494      -0.94215300
H        0.42729593       2.20039261       0.56579457
H       -0.71178625       2.34060936      -1.50083479
17
Frame=13 idx=010319 GeodesicLength=0.825823853163044 rxn_smarts="[C:1]([C@@:2]1([H:11])[C@:3]([O:4][H:13])([H:12])[C:5]([H:14])([H:15])[C@:6]1([O:7][H:17])[H:16])([H:8])([H:9])[H:10]>>[C:1]([C@@:2]1([H:11])[C:5]([H:14])([H:15])[C@:6]1([O:7][H:17])[H:16])([H:8])([H:9])[H:10].[C:3]([O:4][H:13])[H:12]"
C       -1.49522002      -0.44109099      -0.62025728
C       -0.54664987       0.19638492       0.37357400
C        0.49760559      -1.21517283       1.51827368
O        0.52976871      -2.34021362       0.78987654
C        1.20121002       0.20655306      -0.00969756
C        0.27560111       1.37597242      -0.13309550
O        0.09519343       1.85197068      -1.43626749
H       -2.34083703       0.21533704      -0.84034188
H       -1.91686204      -1.37167448      -0.23980910
H       -0.99014790      -0.66594775      -1.55887346
H       -1.09021099       0.50233071       1.26797489
H        1.26868084      -0.76869107       2.15493973
H        1.21418020      -2.26167868       0.11207469
H        2.15261623       0.41316958       0.47200385
H        1.41072223      -0.25332942      -0.97277316
H        0.44109746       2.17875173       0.58617219
H       -0.70674799       2.37732869      -1.46377415
17
Frame=14 idx=010319 GeodesicLength=0.8897042856117903 rxn_smarts="[C:1]([C@@:2]1([H:11])[C@:3]([O:4][H:13])([H:12])[C:5]([H:14])([H:15])[C@:6]1([O:7][H:17])[H:16])([H:8])([H:9])[H:10]>>[C:1]([C@@:2]1([H:11])[C:5]([H:14])([H:15])[C@:6]1([O:7][H:17])[H:16])([H:8])([H:9])[H:10].[C:3]([O:4][H:13])[H:12]"
C       -1.49091531      -0.44933113      -0.63825016
C       -0.55091807       0.18609477       0.36583266
C        0.51935124      -1.19492295       1.54759144
O        0.52694135      -2.33398006       0.84307049
C        1.19919348       0.18953122      -0.03034306
C        0.27810817       1.36756166      -0.12596271
O        0.08995895       1.87018604      -1.41812067
H       -2.34830928       0.19598027      -0.84432329
H       -1.89512071      -1.39528210      -0.27664744
H       -0.98650837      -0.64658834      -1.58344749
H       -1.10794429       0.48965563       1.25348717
H        1.28134452      -0.72284719       2.17666918
H        1.17353525      -2.25646502       0.12873871
H        2.16616091       0.38954104       0.42354745
H        1.39033264      -0.25812000      -1.00350872
H        0.45526927       2.15567038       0.60674820
H       -0.70047975       2.41331578      -1.42508175
17
Frame=15 idx=010319 GeodesicLength=0.95429667964613 rxn_smarts="[C:1]([C@@:2]1([H:11])[C@:3]([O:4][H:13])([H:12])[C:5]([H:14])([H:15])[C@:6]1([O:7][H:17])[H:16])([H:8])([H:9])[H:10]>>[C:1]([C@@:2]1([H:11])[C:5]([H:14])([H:15])[C@:6]1([O:7][H:17])[H:16])([H:8])([H:9])[H:10].[C:3]([O:4][H:13])[H:12]"
C       -1.48679364      -0.45761476      -0.65669172
C       -0.55542806       0.17532653       0.35778492
C        0.54198295      -1.17310257       1.57609544
O        0.52441270      -2.32559257       0.89641413
C        1.19693187       0.17189507      -0.05145645
C        0.28087000       1.35826720      -0.11856550
O        0.08512119       1.88792160      -1.39887744
H       -2.35630010       0.17568508      -0.84784602
H       -1.87166957      -1.41914646      -0.31500225
H       -0.98406644      -0.62560356      -1.60848640
H       -1.12550709       0.47594122       1.23889550
H        1.29389931      -0.67454885       2.19680173
H        1.13148144      -2.25107190       0.14761530
H        2.17842636       0.36486091       0.37473024
H        1.36969294      -0.26274564      -1.03447715
H        0.46982509       2.13095318       0.62761486
H       -0.69287895       2.44857552      -1.38454920
17
Frame=16 idx=010319 GeodesicLength=1.0192768204381892 rxn_smarts="[C:1]([C@@:2]1([H:11])[C@:3]([O:4][H:13])([H:12])[C:5]([H:14])([H:15])[C@:6]1([O:7][H:17])[H:16])([H:8])([H:9])[H:10]>>[C:1]([C@@:2]1([H:11])[C:5]([H:14])([H:15])[C@:6]1([O:7][H:17])[H:16])([H:8])([H:9])[H:10].[C:3]([O:4][H:13])[H:12]"
C       -1.48292976      -0.46587882      -0.67552323
C       -0.56016329       0.16410123       0.34942836
C        0.56535640      -1.14980443       1.60347691
O        0.52205920      -2.31495277       0.94937451
C        1.19431662       0.15365167      -0.07295883
C        0.28388165       1.34801682      -0.11092425
O        0.08073959       1.90494842      -1.37851601
H       -2.36465942       0.15452634      -0.85100608
H       -1.84678457      -1.44285246      -0.35466822
H       -0.98299825      -0.60316412      -1.63372844
H       -1.14271511       0.46122640       1.22424887
H        1.30611668      -0.62403802       2.21506151
H        1.08888664      -2.24524118       0.16898452
H        2.18919771       0.33928670       0.32584513
H        1.34874537      -0.26715628      -1.06555802
H        0.48476127       2.10457302       0.64866018
H       -0.68381074       2.48275746      -1.34219691
