14
Frame=0 idx=003754 GeodesicLength=0.0 rxn_smarts="[C:1]([C@@:2]1([H:10])[O:3][C@@:4]2([H:11])[C:5]([H:12])([H:13])[C@@:6]12[H:14])([H:7])([H:8])[H:9]>>[C:1]([C@@:2]([O:3][H:13])([C:6]1([H:14])[C:4]([H:11])=[C:5]1[H:12])[H:10])([H:7])([H:8])[H:9]"
C       -1.74531461      -0.75826092      -0.00133989
C       -0.75409159       0.39223518       0.00846762
O       -0.40079767       0.80019074       1.24524308
C        1.53347509       1.02562163      -0.06744667
C        1.62411699      -0.28370591       0.40572095
C        0.61797247       0.13794089      -0.70087157
H       -2.64427715      -0.46002874       0.53966197
H       -1.31715421      -1.62617040       0.50533870
H       -2.02564128      -1.04698348      -1.01765666
H       -1.14976823       1.21803169      -0.60812282
H        2.12801517       1.91246109      -0.22382761
H        2.53088635      -0.87379392       0.38461460
H        0.91581874      -0.34712028       1.28870065
H        0.68675997      -0.09041758      -1.75848230
14
Frame=1 idx=003754 GeodesicLength=0.082841735548183 rxn_smarts="[C:1]([C@@:2]1([H:10])[O:3][C@@:4]2([H:11])[C:5]([H:12])([H:13])[C@@:6]12[H:14])([H:7])([H:8])[H:9]>>[C:1]([C@@:2]([O:3][H:13])([C:6]1([H:14])[C:4]([H:11])=[C:5]1[H:12])[H:10])([H:7])([H:8])[H:9]"
C       -1.74104287      -0.75767788       0.00050347
C       -0.75253592       0.39457303      -0.00097049
O       -0.38642438       0.80596509       1.23703238
C        1.52699173       1.02628515      -0.05963503
C        1.62245692      -0.28755287       0.40022635
C        0.61856545       0.13340880      -0.70527449
H       -2.63760666      -0.45941043       0.54549458
H       -1.30874589      -1.62357716       0.50709735
H       -2.02551950      -1.05006411      -1.01356629
H       -1.15407824       1.21967666      -0.61330733
H        2.12108398       1.91463148      -0.20753729
H        2.52690263      -0.88043478       0.37434123
H        0.90015365      -0.34326334       1.29860222
H        0.68979911      -0.09255965      -1.76300665
14
Frame=2 idx=003754 GeodesicLength=0.16617293549721268 rxn_smarts="[C:1]([C@@:2]1([H:10])[O:3][C@@:4]2([H:11])[C:5]([H:12])([H:13])[C@@:6]12[H:14])([H:7])([H:8])[H:9]>>[C:1]([C@@:2]([O:3][H:13])([C:6]1([H:14])[C:4]([H:11])=[C:5]1[H:12])[H:10])([H:7])([H:8])[H:9]"
C       -1.73673349      -0.75709511       0.00223926
C       -0.75094909       0.39678373      -0.01022050
O       -0.37244001       0.81149544       1.22906061
C        1.52077731       1.02674585      -0.05217594
C        1.62104530      -0.29116178       0.39458450
C        0.61914743       0.12893671      -0.70958068
H       -2.63091928      -0.45882671       0.55113915
H       -1.30046287      -1.62112902       0.50860739
H       -2.02534744      -1.05299375      -1.00960310
H       -1.15831783       1.22136875      -0.61795466
H        2.11431688       1.91661562      -0.19171352
H        2.52309100      -0.88697409       0.36410474
H        0.88410590      -0.33899052       1.30894123
H        0.69268619      -0.09477512      -1.76742851
14
Frame=3 idx=003754 GeodesicLength=0.24950716782525922 rxn_smarts="[C:1]([C@@:2]1([H:10])[O:3][C@@:4]2([H:11])[C:5]([H:12])([H:13])[C@@:6]12[H:14])([H:7])([H:8])[H:9]>>[C:1]([C@@:2]([O:3][H:13])([C:6]1([H:14])[C:4]([H:11])=[C:5]1[H:12])[H:10])([H:7])([H:8])[H:9]"
C       -1.73239867      -0.75650279       0.00392178
C       -0.74932478       0.39889794      -0.01939747
O       -0.35871113       0.81698521       1.22116503
C        1.51466303       1.02713555      -0.04480490
C        1.61984154      -0.29469647       0.38882375
C        0.61972590       0.12452552      -0.71379820
H       -2.62422564      -0.45822400       0.55665652
H       -1.29222743      -1.61870951       0.51002815
H       -2.02509981      -1.05584382      -1.00568338
H       -1.16257134       1.22303714      -0.62233476
H        2.10764598       1.91842596      -0.17612142
H        2.51946000      -0.89341414       0.35373484
H        0.86773547      -0.33456898       1.31954346
H        0.69548691      -0.09704761      -1.77173339
14
Frame=4 idx=003754 GeodesicLength=0.33290183173954224 rxn_smarts="[C:1]([C@@:2]1([H:10])[O:3][C@@:4]2([H:11])[C:5]([H:12])([H:13])[C@@:6]12[H:14])([H:7])([H:8])[H:9]>>[C:1]([C@@:2]([O:3][H:13])([C:6]1([H:14])[C:4]([H:11])=[C:5]1[H:12])[H:10])([H:7])([H:8])[H:9]"
C       -1.72803154      -0.75590296       0.00556115
C       -0.74767341       0.40093937      -0.02851342
O       -0.34523994       0.82252587       1.21331919
C        1.50861881       1.02744091      -0.03744348
C        1.61886718      -0.29817552       0.38292303
C        0.62031097       0.12017669      -0.71791006
H       -2.61752115      -0.45759878       0.56205279
H       -1.28402072      -1.61629293       0.51139281
H       -2.02475305      -1.05865671      -1.00180065
H       -1.16685394       1.22467111      -0.62649820
H        2.10106150       1.92000712      -0.16075515
H        2.51602873      -0.89974243       0.34317231
H        0.85100497      -0.33006943       1.33042774
H        0.69820160      -0.09932231      -1.77592806
14
Frame=5 idx=003754 GeodesicLength=0.41625453555117575 rxn_smarts="[C:1]([C@@:2]1([H:10])[O:3][C@@:4]2([H:11])[C:5]([H:12])([H:13])[C@@:6]12[H:14])([H:7])([H:8])[H:9]>>[C:1]([C@@:2]([O:3][H:13])([C:6]1([H:14])[C:4]([H:11])=[C:5]1[H:12])[H:10])([H:7])([H:8])[H:9]"
C       -1.72363378      -0.75530076       0.00715316
C       -0.74599265       0.40290145      -0.03755860
O       -0.33202303       0.82805892       1.20555199
C        1.50268218       1.02765426      -0.03015209
C        1.61810826      -0.30158235       0.37687940
C        0.62089730       0.11588171      -0.72193730
H       -2.61080799      -0.45696589       0.56732981
H       -1.27585430      -1.61390500       0.51268351
H       -2.02432626      -1.06142110      -0.99796162
H       -1.17114230       1.22628179      -0.63041074
H        2.09457835       1.92140620      -0.14561596
H        2.51277464      -0.90599200       0.33246286
H        0.83390957      -0.32541048       1.34160841
H        0.70083001      -0.10160673      -1.78003283
14
Frame=6 idx=003754 GeodesicLength=0.4995648635675737 rxn_smarts="[C:1]([C@@:2]1([H:10])[O:3][C@@:4]2([H:11])[C:5]([H:12])([H:13])[C@@:6]12[H:14])([H:7])([H:8])[H:9]>>[C:1]([C@@:2]([O:3][H:13])([C:6]1([H:14])[C:4]([H:11])=[C:5]1[H:12])[H:10])([H:7])([H:8])[H:9]"
C       -1.71920456      -0.75469937       0.00870012
C       -0.74428245       0.40478678      -0.04653839
O       -0.31905096       0.83358951       1.19785928
C        1.49685562       1.02777160      -0.02292364
C        1.61756657      -0.30492351       0.37068205
C        0.62148492       0.11163759      -0.72588612
H       -2.60408307      -0.45632881       0.57249413
H       -1.26772291      -1.61154679       0.51390473
H       -2.02382185      -1.06414324      -0.99416347
H       -1.17543500       1.22786668      -0.63408022
H        2.08820244       1.92262966      -0.13069089
H        2.50969857      -0.91217150       0.32159554
H        0.81642046      -0.32057609       1.35310437
H        0.70337221      -0.10389252      -1.78405750
14
Frame=7 idx=003754 GeodesicLength=0.5828410594697088 rxn_smarts="[C:1]([C@@:2]1([H:10])[O:3][C@@:4]2([H:11])[C:5]([H:12])([H:13])[C@@:6]12[H:14])([H:7])([H:8])[H:9]>>[C:1]([C@@:2]([O:3][H:13])([C:6]1([H:14])[C:4]([H:11])=[C:5]1[H:12])[H:10])([H:7])([H:8])[H:9]"
C       -1.71474159      -0.75410089       0.01020305
C       -0.74254246       0.40659567      -0.05545536
O       -0.30632094       0.83912498       1.19023883
C        1.49114084       1.02778986      -0.01574800
C        1.61724971      -0.30820186       0.36431870
C        0.62207401       0.10744368      -0.72975987
H       -2.59734486      -0.45569151       0.57754910
H       -1.25962186      -1.60921852       0.51505898
H       -2.02323865      -1.06682740      -0.99040453
H       -1.17973088       1.22942192      -0.63750853
H        2.08193919       1.92366684      -0.11597987
H        2.50680541      -0.91828414       0.31055821
H        0.79850395      -0.31555165       1.36493749
H        0.70582813      -0.10616698      -1.78800822
14
Frame=8 idx=003754 GeodesicLength=0.6660941010928231 rxn_smarts="[C:1]([C@@:2]1([H:10])[O:3][C@@:4]2([H:11])[C:5]([H:12])([H:13])[C@@:6]12[H:14])([H:7])([H:8])[H:9]>>[C:1]([C@@:2]([O:3][H:13])([C:6]1([H:14])[C:4]([H:11])=[C:5]1[H:12])[H:10])([H:7])([H:8])[H:9]"
C       -1.71024343      -0.75350840       0.01166310
C       -0.74077251       0.40832907      -0.06431492
O       -0.29382245       0.84466732       1.18268849
C        1.48554043       1.02770457      -0.00861882
C        1.61716224      -0.31142378       0.35777721
C        0.62266486       0.10329732      -0.73356348
H       -2.59059045      -0.45505773       0.58249991
H       -1.25154600      -1.60692141       0.51614943
H       -2.02257748      -1.06947952      -0.98668280
H       -1.18402795       1.23094503      -0.64069901
H        2.07579423       1.92452060      -0.10147301
H        2.50409725      -0.92433928       0.29933709
H        0.78012368      -0.31031236       1.37713015
H        0.70819755      -0.10842144      -1.79189335
14
Frame=9 idx=003754 GeodesicLength=0.7493223082263323 rxn_smarts="[C:1]([C@@:2]1([H:10])[O:3][C@@:4]2([H:11])[C:5]([H:12])([H:13])[C@@:6]12[H:14])([H:7])([H:8])[H:9]>>[C:1]([C@@:2]([O:3][H:13])([C:6]1([H:14])[C:4]([H:11])=[C:5]1[H:12])[H:10])([H:7])([H:8])[H:9]"
C       -1.70570733      -0.75292500       0.01308266
C       -0.73897218       0.40998872      -0.07311929
O       -0.28154837       0.85022625       1.17520432
C        1.48005627       1.02751020      -0.00152544
C        1.61730959      -0.31459364       0.35104487
C        0.62325821       0.09919870      -0.73730224
H       -2.58381728      -0.45443219       0.58735109
H       -1.24348921      -1.60465482       0.51718041
H       -2.02183665      -1.07210651      -0.98299603
H       -1.18832575       1.23243070      -0.64365611
H        2.06977274       1.92518071      -0.08716496
H        2.50157804      -0.93034249       0.28791785
H        0.76124102      -0.30484018       1.38970406
H        0.71048090      -0.11064045      -1.79572121
14
Frame=10 idx=003754 GeodesicLength=0.8313958215555586 rxn_smarts="[C:1]([C@@:2]1([H:10])[O:3][C@@:4]2([H:11])[C:5]([H:12])([H:13])[C@@:6]12[H:14])([H:7])([H:8])[H:9]>>[C:1]([C@@:2]([O:3][H:13])([C:6]1([H:14])[C:4]([H:11])=[C:5]1[H:12])[H:10])([H:7])([H:8])[H:9]"
C       -1.70113989      -0.75233419       0.01445522
C       -0.73715542       0.41157494      -0.08182289
O       -0.26975370       0.85589103       1.16784498
C        1.47473903       1.02722362       0.00550737
C        1.61771308      -0.31768629       0.34417546
C        0.62384524       0.09518455      -0.74089124
H       -2.57709873      -0.45379520       0.59199259
H       -1.23550910      -1.60238414       0.51820435
H       -2.02093878      -1.07472634      -0.97935276
H       -1.19263265       1.23386009      -0.64629700
H        2.06394353       1.92562133      -0.07318426
H        2.49928400      -0.93624288       0.27629202
H        0.74203394      -0.29933669       1.40246996
H        0.71266946      -0.11284983      -1.79939382
14
Frame=11 idx=003754 GeodesicLength=0.9146913351935718 rxn_smarts="[C:1]([C@@:2]1([H:10])[O:3][C@@:4]2([H:11])[C:5]([H:12])([H:13])[C@@:6]12[H:14])([H:7])([H:8])[H:9]>>[C:1]([C@@:2]([O:3][H:13])([C:6]1([H:14])[C:4]([H:11])=[C:5]1[H:12])[H:10])([H:7])([H:8])[H:9]"
C       -1.69652378      -0.75177914       0.01579285
C       -0.73528668       0.41307713      -0.09052385
O       -0.25788605       0.86145665       1.16050254
C        1.46949431       1.02679443       0.01255707
C        1.61835717      -0.32076869       0.33701608
C        0.62444414       0.09116615      -0.74450957
H       -2.57028488      -0.45319451       0.59664728
H       -1.22748250      -1.60018941       0.51912238
H       -2.02003933      -1.07730998      -0.97573716
H       -1.19691643       1.23526594      -0.64877974
H        2.05818367       1.92590157      -0.05927671
H        2.49716271      -0.94216320       0.26443073
H        0.72200191      -0.29328641       1.41588654
H        0.71477573      -0.11497053      -1.80312842
14
Frame=12 idx=003754 GeodesicLength=0.9980062249806403 rxn_smarts="[C:1]([C@@:2]1([H:10])[O:3][C@@:4]2([H:11])[C:5]([H:12])([H:13])[C@@:6]12[H:14])([H:7])([H:8])[H:9]>>[C:1]([C@@:2]([O:3][H:13])([C:6]1([H:14])[C:4]([H:11])=[C:5]1[H:12])[H:10])([H:7])([H:8])[H:9]"
C       -1.69186400      -0.75124341       0.01708982
C       -0.73338227       0.41450073      -0.09916854
O       -0.24620978       0.86702398       1.15323722
C        1.46437494       1.02623640       0.01959645
C        1.61926124      -0.32381092       0.32962211
C        0.62504598       0.08718788      -0.74807198
H       -2.56344872      -0.45261345       0.60120202
H       -1.21946540      -1.59803365       0.51998893
H       -2.01905447      -1.07987794      -0.97215866
H       -1.20118843       1.23662714      -0.65102292
H        2.05256873       1.92597770      -0.04557876
H        2.49525019      -0.94804539       0.25232639
H        0.70132261      -0.28690588       1.42976287
H        0.71678941      -0.11702319      -1.80682495
14
Frame=13 idx=003754 GeodesicLength=1.0813137028479107 rxn_smarts="[C:1]([C@@:2]1([H:10])[O:3][C@@:4]2([H:11])[C:5]([H:12])([H:13])[C@@:6]12[H:14])([H:7])([H:8])[H:9]>>[C:1]([C@@:2]([O:3][H:13])([C:6]1([H:14])[C:4]([H:11])=[C:5]1[H:12])[H:10])([H:7])([H:8])[H:9]"
C       -1.68715673      -0.75073086       0.01834855
C       -0.73144089       0.41584613      -0.10775841
O       -0.23471580       0.87259754       1.14604373
C        1.45938478       1.02554146       0.02663657
C        1.62043145      -0.32681954       0.32198072
C        0.62565133       0.08324935      -0.75158230
H       -2.55658646      -0.45205712       0.60566091
H       -1.21144951      -1.59591611       0.52081036
H       -2.01798036      -1.08243818      -0.96861404
H       -1.20544625       1.23793825      -0.65302976
H        2.04710376       1.92584479      -0.03207996
H        2.49354735      -0.95390086       0.23995687
H        0.67994712      -0.28016164       1.44411722
H        0.71871020      -0.11899321      -1.81049043
14
Frame=14 idx=003754 GeodesicLength=1.1646131511461508 rxn_smarts="[C:1]([C@@:2]1([H:10])[O:3][C@@:4]2([H:11])[C:5]([H:12])([H:13])[C@@:6]12[H:14])([H:7])([H:8])[H:9]>>[C:1]([C@@:2]([O:3][H:13])([C:6]1([H:14])[C:4]([H:11])=[C:5]1[H:12])[H:10])([H:7])([H:8])[H:9]"
C       -1.68239763      -0.75024662       0.01956981
C       -0.72946027       0.41711270      -0.11629342
O       -0.22339245       0.87817370       1.13892647
C        1.45453018       1.02469918       0.03368535
C        1.62187493      -0.32980132       0.31407583
C        0.62626123       0.07934914      -0.75504504
H       -2.54969472      -0.45153337       0.61002679
H       -1.20342615      -1.59383787       0.52159083
H       -2.01681230      -1.08499786      -0.96510258
H       -1.20968595       1.23919627      -0.65479840
H        2.04179576       1.92549669      -0.01877342
H        2.49205604      -0.95974217       0.22729973
H        0.65781515      -0.27300190       1.45897058
H        0.72053620      -0.12086658      -1.81413254
14
Frame=15 idx=003754 GeodesicLength=1.2479021531650896 rxn_smarts="[C:1]([C@@:2]1([H:10])[O:3][C@@:4]2([H:11])[C:5]([H:12])([H:13])[C@@:6]12[H:14])([H:7])([H:8])[H:9]>>[C:1]([C@@:2]([O:3][H:13])([C:6]1([H:14])[C:4]([H:11])=[C:5]1[H:12])[H:10])([H:7])([H:8])[H:9]"
C       -1.67758122      -0.74979590       0.02075564
C       -0.72743836       0.41829990      -0.12477418
O       -0.21222940       0.88375152       1.13188484
C        1.44981645       1.02369734       0.04075359
C        1.62359895      -0.33276365       0.30588963
C        0.62687660       0.07548704      -0.75846562
H       -2.54276786      -0.45104950       0.61430392
H       -1.19538382      -1.59179906       0.52233657
H       -2.01554433      -1.08756593      -0.96162160
H       -1.21390427       1.24039640      -0.65632907
H        2.03665315       1.92492397      -0.00564727
H        2.49077706      -0.96558195       0.21432792
H        0.63486132      -0.26537375       1.47434592
H        0.72226572      -0.12262641      -1.81776030
14
Frame=16 idx=003754 GeodesicLength=1.3311571854007918 rxn_smarts="[C:1]([C@@:2]1([H:10])[O:3][C@@:4]2([H:11])[C:5]([H:12])([H:13])[C@@:6]12[H:14])([H:7])([H:8])[H:9]>>[C:1]([C@@:2]([O:3][H:13])([C:6]1([H:14])[C:4]([H:11])=[C:5]1[H:12])[H:10])([H:7])([H:8])[H:9]"
C       -1.67270234      -0.74938422       0.02190758
C       -0.72537303       0.41940710      -0.13320010
O       -0.20121540       0.88932770       1.12492114
C        1.44525004       1.02252277       0.04785241
C        1.62561010      -0.33571368       0.29740617
C        0.62749846       0.07166232      -0.76184825
H       -2.53580177      -0.45061368       0.61849561
H       -1.18731169      -1.58979960       0.52305406
H       -2.01416995      -1.09015147      -0.95816938
H       -1.21809724       1.24153448      -0.65762036
H        2.03168371       1.92411697       0.00730862
H        2.48971089      -0.97143221       0.20101468
H        0.61102124      -0.25722028       1.49025912
H        0.72389696      -0.12425619      -1.82138131
