11
Frame=0 idx=001768 GeodesicLength=0.0 rxn_smarts="[N:1]([c:2]1[c:3]([H:9])[n:4]([H:10])[n:5][c:6]1[H:11])([H:7])[H:8]>>[N:1](=[C:2]1[C+:3]([H:9])[N:4]([H:10])[N-:5][C:6]1([H:7])[H:11])[H:8]"
N       -2.01762473      -0.30855274      -0.35420265
C       -0.67065986      -0.03689770      -0.12730280
C        0.53027446      -0.83358275      -0.10104108
N        1.56530374       0.01043124       0.00104903
N        1.20273508       1.30698378       0.04332691
C       -0.09392488       1.31443039      -0.05505281
H       -0.90451628      -0.24455202       0.98106874
H       -2.13534491      -1.31739905      -0.41815428
H        0.64916319      -1.90525769      -0.09606004
H        2.52721589      -0.22307371       0.17095894
H       -0.65262167       2.23747022      -0.04458993
11
Frame=1 idx=001768 GeodesicLength=0.11576752845652603 rxn_smarts="[N:1]([c:2]1[c:3]([H:9])[n:4]([H:10])[n:5][c:6]1[H:11])([H:7])[H:8]>>[N:1](=[C:2]1[C+:3]([H:9])[N:4]([H:10])[N-:5][C:6]1([H:7])[H:11])[H:8]"
N       -2.01135500      -0.31133800      -0.35086718
C       -0.66349656      -0.04413442      -0.14899102
C        0.53492881      -0.83835280      -0.09930780
N        1.56746140       0.01024106      -0.00244854
N        1.20440171       1.30323100       0.05722671
C       -0.09881084       1.30757099      -0.02190093
H       -0.93316864      -0.20648039       0.98948551
H       -2.13381805      -1.31950839      -0.41699391
H        0.65671936      -1.90961752      -0.10193679
H        2.53195105      -0.22326113       0.15373235
H       -0.65481324       2.23164960      -0.05799841
11
Frame=2 idx=001768 GeodesicLength=0.2315458687116398 rxn_smarts="[N:1]([c:2]1[c:3]([H:9])[n:4]([H:10])[n:5][c:6]1[H:11])([H:7])[H:8]>>[N:1](=[C:2]1[C+:3]([H:9])[N:4]([H:10])[N-:5][C:6]1([H:7])[H:11])[H:8]"
N       -2.00451308      -0.31438306      -0.34682290
C       -0.65626807      -0.05086522      -0.16919835
C        0.53941583      -0.84291766      -0.09897392
N        1.56934946       0.01016244      -0.00535900
N        1.20550624       1.29920775       0.07302761
C       -0.10387142       1.30015490       0.00732621
H       -0.96263016      -0.16692860       0.99790591
H       -2.13177845      -1.32192965      -0.41364737
H        0.66444554      -1.91365727      -0.11137218
H        2.53602765      -0.22320996       0.13853059
H       -0.65568353       2.22436633      -0.07141660
11
Frame=3 idx=001768 GeodesicLength=0.34733407611288897 rxn_smarts="[N:1]([c:2]1[c:3]([H:9])[n:4]([H:10])[n:5][c:6]1[H:11])([H:7])[H:8]>>[N:1](=[C:2]1[C+:3]([H:9])[N:4]([H:10])[N-:5][C:6]1([H:7])[H:11])[H:8]"
N       -1.99720445      -0.31786480      -0.34210807
C       -0.64900194      -0.05734199      -0.18845873
C        0.54384823      -0.84739700      -0.10017057
N        1.57103806       0.01009407      -0.00752024
N        1.20619700       1.29478165       0.09068811
C       -0.10905352       1.29230694       0.03215774
H       -0.99303650      -0.12537055       1.00595912
H       -2.12929765      -1.32486980      -0.40782869
H        0.67245347      -1.91744475      -0.12410293
H        2.53959529      -0.22303367       0.12534206
H       -0.65553800       2.21613992      -0.08395780
11
Frame=4 idx=001768 GeodesicLength=0.4631253338081556 rxn_smarts="[N:1]([c:2]1[c:3]([H:9])[n:4]([H:10])[n:5][c:6]1[H:11])([H:7])[H:8]>>[N:1](=[C:2]1[C+:3]([H:9])[N:4]([H:10])[N-:5][C:6]1([H:7])[H:11])[H:8]"
N       -1.98952118      -0.32184719      -0.33649658
C       -0.64174312      -0.06370757      -0.20695357
C        0.54831526      -0.85184179      -0.10316959
N        1.57257402       0.00997249      -0.00877742
N        1.20655674       1.28986131       0.11007731
C       -0.11436728       1.28411224       0.05328527
H       -1.02449835      -0.08174651       1.01350949
H       -2.12640164      -1.32839052      -0.39943162
H        0.68084345      -1.92097457      -0.14027194
H        2.54275053      -0.22280535       0.11427581
H       -0.65450843       2.20736746      -0.09604715
11
Frame=5 idx=001768 GeodesicLength=0.5789181325579259 rxn_smarts="[N:1]([c:2]1[c:3]([H:9])[n:4]([H:10])[n:5][c:6]1[H:11])([H:7])[H:8]>>[N:1](=[C:2]1[C+:3]([H:9])[N:4]([H:10])[N-:5][C:6]1([H:7])[H:11])[H:8]"
N       -1.98150259      -0.32636632      -0.32979592
C       -0.63452917      -0.07002876      -0.22480488
C        0.55287707      -0.85626352      -0.10823586
N        1.57398209       0.00975392      -0.00900670
N        1.20659952       1.28435604       0.13122693
C       -0.11984034       1.27561377       0.07155615
H       -1.05720474      -0.03603577       1.02043715
H       -2.12303631      -1.33251656      -0.38844100
H        0.68966065      -1.92420638      -0.15985048
H        2.54559277      -0.22255321       0.10516913
H       -0.65259893       2.19824678      -0.10825451
11
Frame=6 idx=001768 GeodesicLength=0.6947020394318664 rxn_smarts="[N:1]([c:2]1[c:3]([H:9])[n:4]([H:10])[n:5][c:6]1[H:11])([H:7])[H:8]>>[N:1](=[C:2]1[C+:3]([H:9])[N:4]([H:10])[N-:5][C:6]1([H:7])[H:11])[H:8]"
N       -1.97317453      -0.33148255      -0.32181034
C       -0.62739941      -0.07633962      -0.24218881
C        0.55760378      -0.86065502      -0.11566139
N        1.57527194       0.00939948      -0.00819113
N        1.20628525       1.27816659       0.15413256
C       -0.12549607       1.26682517       0.08756386
H       -1.09136481       0.01192052       1.02655512
H       -2.11913151      -1.33730445      -0.37468849
H        0.69897750      -1.92708817      -0.18291447
H        2.54815573      -0.22230623       0.09809593
H       -0.64972787       2.18886429      -0.12089283
11
Frame=7 idx=001768 GeodesicLength=0.8104723112623511 rxn_smarts="[N:1]([c:2]1[c:3]([H:9])[n:4]([H:10])[n:5][c:6]1[H:11])([H:7])[H:8]>>[N:1](=[C:2]1[C+:3]([H:9])[N:4]([H:10])[N-:5][C:6]1([H:7])[H:11])[H:8]"
N       -1.96451605      -0.33727369      -0.31237283
C       -0.62038349      -0.08265191      -0.25931297
C        0.56255522      -0.86498409      -0.12573169
N        1.57643794       0.00886226      -0.00631968
N        1.20553665       1.27115346       0.17895470
C       -0.13136057       1.25773212       0.10177838
H       -1.12725953       0.06238259       1.03159154
H       -2.11454292      -1.34283143      -0.35795486
H        0.70883789      -1.92955464      -0.20945363
H        2.55047318      -0.22208909       0.09297794
H       -0.64577833       2.17925442      -0.13415690
11
Frame=8 idx=001768 GeodesicLength=0.9262243551168192 rxn_smarts="[N:1]([c:2]1[c:3]([H:9])[n:4]([H:10])[n:5][c:6]1[H:11])([H:7])[H:8]>>[N:1](=[C:2]1[C+:3]([H:9])[N:4]([H:10])[N-:5][C:6]1([H:7])[H:11])[H:8]"
N       -1.95546767      -0.34384043      -0.30131883
C       -0.61350613      -0.08896135      -0.27642066
C        0.56779231      -0.86919037      -0.13875339
N        1.57745537       0.00808433      -0.00338206
N        1.20423956       1.26312349       0.20597927
C       -0.13746731       1.24829462       0.11457301
H       -1.16525327       0.11572220       1.03515496
H       -2.10905238      -1.34919817      -0.33795533
H        0.71927604      -1.93154068      -0.23938576
H        2.55256936      -0.22191728       0.08961981
H       -0.64058588       2.16942364      -0.14811102
11
Frame=9 idx=001768 GeodesicLength=1.0419489545864575 rxn_smarts="[N:1]([c:2]1[c:3]([H:9])[n:4]([H:10])[n:5][c:6]1[H:11])([H:7])[H:8]>>[N:1](=[C:2]1[C+:3]([H:9])[N:4]([H:10])[N-:5][C:6]1([H:7])[H:11])[H:8]"
N       -1.94592961      -0.35131541      -0.28841444
C       -0.60679817      -0.09524717      -0.29380319
C        0.57337042      -0.87315592      -0.15519368
N        1.57828701       0.00698683       0.00062701
N        1.20224102       1.25382570       0.23554327
C       -0.14385884       1.23845001       0.12626059
H       -1.20575181       0.17241248       1.03671571
H       -2.10234173      -1.35653531      -0.31428103
H        0.73028909      -1.93296252      -0.27262895
H        2.55444682      -0.22181932       0.08789490
H       -0.63395421       2.15936065      -0.16272018
11
Frame=10 idx=001768 GeodesicLength=1.1576375754176713 rxn_smarts="[N:1]([c:2]1[c:3]([H:9])[n:4]([H:10])[n:5][c:6]1[H:11])([H:7])[H:8]>>[N:1](=[C:2]1[C+:3]([H:9])[N:4]([H:10])[N-:5][C:6]1([H:7])[H:11])[H:8]"
N       -1.93574434      -0.35987270      -0.27332641
C       -0.60029907      -0.10146172      -0.31181431
C        0.57937215      -0.87671775      -0.17559950
N        1.57884245       0.00547752       0.00570005
N        1.19931784       1.24290826       0.26811180
C       -0.15059945       1.22810919       0.13709318
H       -1.24927551       0.23308338       1.03552048
H       -2.09396730      -1.36501194      -0.28627386
H        0.74191314      -1.93373953      -0.30927333
H        2.55603354      -0.22184376       0.08775662
H       -0.62559344       2.14906904      -0.17789473
11
Frame=11 idx=001768 GeodesicLength=1.2732784411490694 rxn_smarts="[N:1]([c:2]1[c:3]([H:9])[n:4]([H:10])[n:5][c:6]1[H:11])([H:7])[H:8]>>[N:1](=[C:2]1[C+:3]([H:9])[N:4]([H:10])[N-:5][C:6]1([H:7])[H:11])[H:8]"
N       -1.92466927      -0.36974289      -0.25555723
C       -0.59408250      -0.10751874      -0.33090316
C        0.58587827      -0.87958781      -0.20083879
N        1.57899694       0.00341373       0.01184698
N        1.19515990       1.22987020       0.30425597
C       -0.15778428       1.21714825       0.14732062
H       -1.29643748       0.29851964       1.03051988
H       -2.08325893      -1.37484718      -0.25300495
H        0.75412724      -1.93372690      -0.34945125
H        2.55721682      -0.22208577       0.08927833
H       -0.61514671       2.13855749      -0.19346639
11
Frame=12 idx=001768 GeodesicLength=1.3888463698844862 rxn_smarts="[N:1]([c:2]1[c:3]([H:9])[n:4]([H:10])[n:5][c:6]1[H:11])([H:7])[H:8]>>[N:1](=[C:2]1[C+:3]([H:9])[N:4]([H:10])[N-:5][C:6]1([H:7])[H:11])[H:8]"
N       -1.91232881      -0.38123912      -0.23440024
C       -0.58826822      -0.11329110      -0.35160887
C        0.59299485      -0.88132929      -0.23209507
N        1.57855409       0.00058726       0.01913217
N        1.18932213       1.21400274       0.34479513
C       -0.16556103       1.20540748       0.15723057
H       -1.34809887       0.36977762       1.02015000
H       -2.06920243      -1.38631962      -0.21314876
H        0.76687195      -1.93276931      -0.39339370
H        2.55782849      -0.22268434       0.09250753
H       -0.60211216       2.12785769      -0.20916877
11
Frame=13 idx=001768 GeodesicLength=1.5042876865483232 rxn_smarts="[N:1]([c:2]1[c:3]([H:9])[n:4]([H:10])[n:5][c:6]1[H:11])([H:7])[H:8]>>[N:1](=[C:2]1[C+:3]([H:9])[N:4]([H:10])[N-:5][C:6]1([H:7])[H:11])[H:8]"
N       -1.89811224      -0.39479843      -0.20871932
C       -0.58304260      -0.11861624      -0.37458166
C        0.60084348      -0.88123366      -0.27103200
N        1.57720581      -0.00334391       0.02763712
N        1.18116753       1.19423262       0.39064572
C       -0.17413541       1.19261546       0.16719583
H       -1.40542211       0.44823595       1.00203252
H       -2.05021071      -1.39980219      -0.16480987
H        0.77991813      -1.93029830      -0.44153687
H        2.55756016      -0.22393221       0.09772767
H       -0.58577204       2.11694091      -0.22455914
11
Frame=14 idx=001768 GeodesicLength=1.6195277544941988 rxn_smarts="[N:1]([c:2]1[c:3]([H:9])[n:4]([H:10])[n:5][c:6]1[H:11])([H:7])[H:8]>>[N:1](=[C:2]1[C+:3]([H:9])[N:4]([H:10])[N-:5][C:6]1([H:7])[H:11])[H:8]"
N       -1.88104551      -0.41102552      -0.17666468
C       -0.57873117      -0.12342432      -0.40034643
C        0.60953880      -0.87846821      -0.31886056
N        1.57436777      -0.00904217       0.03800188
N        1.16963276       1.16890751       0.44351219
C       -0.18391477       1.17845109       0.17762654
H       -1.47042786       0.53627981       0.97192529
H       -2.02377807      -1.41566723      -0.10442101
H        0.79338883      -1.92558123      -0.49656362
H        2.55593027      -0.22623275       0.10525048
H       -0.56496106       2.10580301      -0.23946008
11
Frame=15 idx=001768 GeodesicLength=1.7342461873903212 rxn_smarts="[N:1]([c:2]1[c:3]([H:9])[n:4]([H:10])[n:5][c:6]1[H:11])([H:7])[H:8]>>[N:1](=[C:2]1[C+:3]([H:9])[N:4]([H:10])[N-:5][C:6]1([H:7])[H:11])[H:8]"
N       -1.85958779      -0.43031750      -0.13496436
C       -0.57583259      -0.12781357      -0.42919958
C        0.61902353      -0.87189376      -0.37602555
N        1.56922726      -0.01736645       0.05047652
N        1.15326814       1.13576768       0.50454611
C       -0.19554322       1.16226038       0.18936085
H       -1.54547805       0.63636850       0.92285193
H       -1.98632636      -1.43384490      -0.02754612
H        0.80736591      -1.91672950      -0.56248785
H        2.55209809      -0.23037001       0.11606786
H       -0.53821491       2.09393913      -0.25307983
11
Frame=16 idx=001768 GeodesicLength=1.8477830325217375 rxn_smarts="[N:1]([c:2]1[c:3]([H:9])[n:4]([H:10])[n:5][c:6]1[H:11])([H:7])[H:8]>>[N:1](=[C:2]1[C+:3]([H:9])[N:4]([H:10])[N-:5][C:6]1([H:7])[H:11])[H:8]"
N       -1.83145370      -0.45142795      -0.07945625
C       -0.57493173      -0.13210948      -0.46086964
C        0.62873551      -0.86058972      -0.44072628
N        1.56079341      -0.02859048       0.06408230
N        1.13043540       1.09257139       0.57351828
C       -0.21008179       1.14300225       0.20421347
H       -1.63119841       0.74780631       0.84507950
H       -1.93429548      -1.45237677       0.06826999
H        0.82152254      -1.90201070      -0.64108577
H        2.54488052      -0.23665386       0.12977018
H       -0.50440629       2.08037900      -0.26279579
