17
Frame=0 idx=007088 GeodesicLength=0.0 rxn_smarts="[C:1]([C@@:2]([O:3][H:12])([C:4]([C:5]([C:6](=[O:7])[H:17])([H:15])[H:16])([H:13])[H:14])[H:11])([H:8])([H:9])[H:10]>>[C:1]([C@@:2]1([H:11])[O:3][C:4]1([H:13])[H:14])([H:8])([H:9])[H:10].[C:5](=[C:6]([O:7][H:12])[H:17])([H:15])[H:16]"
C       -2.18816375       0.16977937      -0.08743961
C       -1.09845282      -0.83577393      -0.38991587
O       -0.15208595      -0.41575260      -1.33798375
C       -0.03658368      -0.99181657       0.60819608
C        2.16409524       0.01211388       0.23844538
C        1.65468017       1.28125404       0.14075902
O        0.81503251       1.68838998      -0.74655331
H       -2.85002557      -0.19543644       0.70169550
H       -1.76038542       1.12526942       0.22204256
H       -2.78360240       0.33719143      -0.98576762
H       -1.53435342      -1.79519060      -0.69154268
H        0.31470436       0.74270197      -1.14388500
H        0.01864242      -0.36188657       1.48242970
H        0.52829881      -1.91152864       0.63169879
H        2.16126260      -0.65786814      -0.60751427
H        2.83137296      -0.21148606       1.06145125
H        1.91556389       2.02003945       0.90388379
17
Frame=1 idx=007088 GeodesicLength=0.07154797277690761 rxn_smarts="[C:1]([C@@:2]([O:3][H:12])([C:4]([C:5]([C:6](=[O:7])[H:17])([H:15])[H:16])([H:13])[H:14])[H:11])([H:8])([H:9])[H:10]>>[C:1]([C@@:2]1([H:11])[O:3][C:4]1([H:13])[H:14])([H:8])([H:9])[H:10].[C:5](=[C:6]([O:7][H:12])[H:17])([H:15])[H:16]"
C       -2.20690716       0.15331089      -0.08948795
C       -1.10512723      -0.83764323      -0.39359505
O       -0.15912526      -0.39885863      -1.33347681
C       -0.03426438      -0.97784157       0.59867349
C        2.15981354       0.00378381       0.24864064
C        1.68186294       1.28708653       0.14237712
O        0.82524092       1.70465306      -0.72227107
H       -2.86413744      -0.22322164       0.69814259
H       -1.79096945       1.11316280       0.22285097
H       -2.80407760       0.31634174      -0.98749528
H       -1.52348267      -1.80179293      -0.70322684
H        0.30700694       0.76038705      -1.13471502
H        0.00542173      -0.34280420       1.47089309
H        0.50471475      -1.91241856       0.64834314
H        2.16843321      -0.65748889      -0.60481057
H        2.83215926      -0.22270070       1.06704377
H        2.00343789       2.03604447       0.87211377
17
Frame=2 idx=007088 GeodesicLength=0.14188292068585956 rxn_smarts="[C:1]([C@@:2]([O:3][H:12])([C:4]([C:5]([C:6](=[O:7])[H:17])([H:15])[H:16])([H:13])[H:14])[H:11])([H:8])([H:9])[H:10]>>[C:1]([C@@:2]1([H:11])[O:3][C:4]1([H:13])[H:14])([H:8])([H:9])[H:10].[C:5](=[C:6]([O:7][H:12])[H:17])([H:15])[H:16]"
C       -2.22527327       0.13662600      -0.09138213
C       -1.11142895      -0.83928351      -0.39740259
O       -0.16620822      -0.38127642      -1.32886409
C       -0.03196508      -0.96390196       0.58913109
C        2.15538708      -0.00392678       0.25891596
C        1.70894986       1.29262386       0.14385204
O        0.83576968       1.72108905      -0.69728513
H       -2.87770235      -0.25157304       0.69451659
H       -1.82139114       1.10059623       0.22428252
H       -2.82407926       0.29556062      -0.98905046
H       -1.51205125      -1.80769373      -0.71549606
H        0.29906042       0.77881407      -1.12523107
H       -0.00768758      -0.32366633       1.45899098
H        0.48055426      -1.91196219       0.66580384
H        2.17569285      -0.65707202      -0.60130706
H        2.83241208      -0.23331200       1.07298571
H        2.08996087       2.04835815       0.83753986
17
Frame=3 idx=007088 GeodesicLength=0.21100545501344714 rxn_smarts="[C:1]([C@@:2]([O:3][H:12])([C:4]([C:5]([C:6](=[O:7])[H:17])([H:15])[H:16])([H:13])[H:14])[H:11])([H:8])([H:9])[H:10]>>[C:1]([C@@:2]1([H:11])[O:3][C:4]1([H:13])[H:14])([H:8])([H:9])[H:10].[C:5](=[C:6]([O:7][H:12])[H:17])([H:15])[H:16]"
C       -2.24313845       0.11982805      -0.09309056
C       -1.11733991      -0.84069183      -0.40131409
O       -0.17333595      -0.36312368      -1.32416839
C       -0.02961805      -0.95005633       0.57956014
C        2.15087021      -0.01102354       0.26919750
C        1.73588254       1.29784403       0.14506799
O        0.84673485       1.73759806      -0.67188476
H       -2.89059087      -0.28030351       0.69087771
H       -1.85143450       1.08763962       0.22634295
H       -2.84350214       0.27499553      -0.99039041
H       -1.50013882      -1.81286487      -0.72825248
H        0.29089837       0.79786931      -1.11554467
H       -0.02056923      -0.30453401       1.44672233
H        0.45590116      -1.91016619       0.68396740
H        2.18307441      -0.65669878      -0.59704677
H        2.83219217      -0.24322912       1.07923848
H        2.17411422       2.05691728       0.80071762
17
Frame=4 idx=007088 GeodesicLength=0.2791429672911597 rxn_smarts="[C:1]([C@@:2]([O:3][H:12])([C:4]([C:5]([C:6](=[O:7])[H:17])([H:15])[H:16])([H:13])[H:14])[H:11])([H:8])([H:9])[H:10]>>[C:1]([C@@:2]1([H:11])[O:3][C:4]1([H:13])[H:14])([H:8])([H:9])[H:10].[C:5](=[C:6]([O:7][H:12])[H:17])([H:15])[H:16]"
C       -2.26051527       0.10288889      -0.09462524
C       -1.12289698      -0.84191755      -0.40539540
O       -0.18052129      -0.34438997      -1.31938269
C       -0.02726040      -0.93649374       0.56994646
C        2.14617899      -0.01746548       0.27969217
C        1.76235859       1.30280592       0.14640994
O        0.85810468       1.75422322      -0.64599402
H       -2.90284129      -0.30949557       0.68715910
H       -1.88108969       1.07423023       0.22915122
H       -2.86233669       0.25474069      -0.99155426
H       -1.48780726      -1.81732679      -0.74166226
H        0.28247028       0.81758048      -1.10553278
H       -0.03332212      -0.28571167       1.43419327
H        0.43076475      -1.90719947       0.70260936
H        2.19056480      -0.65628322      -0.59190331
H        2.83139533      -0.25238985       1.08607670
H        2.25675356       2.06220387       0.76081174
17
Frame=5 idx=007088 GeodesicLength=0.3458919944780932 rxn_smarts="[C:1]([C@@:2]([O:3][H:12])([C:4]([C:5]([C:6](=[O:7])[H:17])([H:15])[H:16])([H:13])[H:14])[H:11])([H:8])([H:9])[H:10]>>[C:1]([C@@:2]1([H:11])[O:3][C:4]1([H:13])[H:14])([H:8])([H:9])[H:10].[C:5](=[C:6]([O:7][H:12])[H:17])([H:15])[H:16]"
C       -2.27704922       0.08618639      -0.09586827
C       -1.12800380      -0.84289052      -0.40942809
O       -0.18774603      -0.32555010      -1.31461839
C       -0.02461940      -0.92302127       0.56027418
C        2.14164436      -0.02341263       0.28971338
C        1.78879242       1.30729099       0.14672043
O        0.87025134       1.77053704      -0.62077647
H       -2.91404556      -0.33836234       0.68370140
H       -1.90975632       1.06072753       0.23244709
H       -2.88033784       0.23504009      -0.99232833
H       -1.47521851      -1.82102307      -0.75504033
H        0.27397856       0.83744257      -1.09584192
H       -0.04541092      -0.26675692       1.42116226
H        0.40541031      -1.90277615       0.72179588
H        2.19829511      -0.65626521      -0.58633810
H        2.83044581      -0.26073519       1.09274639
H        2.33336971       2.06356880       0.72167890
17
Frame=6 idx=007088 GeodesicLength=0.4117920038998995 rxn_smarts="[C:1]([C@@:2]([O:3][H:12])([C:4]([C:5]([C:6](=[O:7])[H:17])([H:15])[H:16])([H:13])[H:14])[H:11])([H:8])([H:9])[H:10]>>[C:1]([C@@:2]1([H:11])[O:3][C:4]1([H:13])[H:14])([H:8])([H:9])[H:10].[C:5](=[C:6]([O:7][H:12])[H:17])([H:15])[H:16]"
C       -2.29310414       0.06931025      -0.09695370
C       -1.13277677      -0.84367251      -0.41365176
O       -0.19500079      -0.30612691      -1.30967097
C       -0.02200609      -0.90991792       0.55054035
C        2.13689627      -0.02873801       0.30004571
C        1.81457545       1.31148712       0.14744179
O        0.88290904       1.78687410      -0.59513132
H       -2.92464192      -0.36772425       0.68008256
H       -1.93802696       1.04667160       0.23650849
H       -2.89774809       0.21565219      -0.99290630
H       -1.46224292      -1.82393629      -0.76912059
H        0.26523091       0.85789722      -1.08563522
H       -0.05746139      -0.24828324       1.40787845
H        0.37958699      -1.89717589       0.74114280
H        2.20612196      -0.65616961      -0.57982455
H        2.82885492      -0.26832412       1.10010745
H        2.40883354       2.06217628       0.67914682
17
Frame=7 idx=007088 GeodesicLength=0.4766985256307812 rxn_smarts="[C:1]([C@@:2]([O:3][H:12])([C:4]([C:5]([C:6](=[O:7])[H:17])([H:15])[H:16])([H:13])[H:14])[H:11])([H:8])([H:9])[H:10]>>[C:1]([C@@:2]1([H:11])[O:3][C:4]1([H:13])[H:14])([H:8])([H:9])[H:10].[C:5](=[C:6]([O:7][H:12])[H:17])([H:15])[H:16]"
C       -2.30838485       0.05263161      -0.09777400
C       -1.13718586      -0.84427690      -0.41788686
O       -0.20233463      -0.28664324      -1.30473480
C       -0.01916666      -0.89710422       0.54074152
C        2.13224392      -0.03358267       0.31008895
C        1.84005244       1.31527241       0.14751566
O        0.89635384       1.80293502      -0.57023235
H       -2.93428512      -0.39684172       0.67665443
H       -1.96533421       1.03246753       0.24112481
H       -2.91440019       0.19687097      -0.99314203
H       -1.44914131      -1.82616208      -0.78328894
H        0.25636474       0.87846978      -1.07561853
H       -0.06893681      -0.22995657       1.39419298
H        0.35361482      -1.89028878       0.76067707
H        2.21416340      -0.65642230      -0.57280964
H        2.82703692      -0.27510232       1.10755365
H        2.47933954       2.05773348       0.63693808
17
Frame=8 idx=007088 GeodesicLength=0.5408650271101589 rxn_smarts="[C:1]([C@@:2]([O:3][H:12])([C:4]([C:5]([C:6](=[O:7])[H:17])([H:15])[H:16])([H:13])[H:14])[H:11])([H:8])([H:9])[H:10]>>[C:1]([C@@:2]1([H:11])[O:3][C:4]1([H:13])[H:14])([H:8])([H:9])[H:10].[C:5](=[C:6]([O:7][H:12])[H:17])([H:15])[H:16]"
C       -2.32304689       0.03599350      -0.09838776
C       -1.14126498      -0.84470611      -0.42218857
O       -0.20976083      -0.26693505      -1.29973174
C       -0.01619036      -0.88456839       0.53090194
C        2.12761725      -0.03799398       0.31996782
C        1.86517636       1.31865832       0.14723935
O        0.91058497       1.81881020      -0.54583414
H       -2.94312122      -0.42598935       0.67329179
H       -1.99194285       1.01797416       0.24629422
H       -2.93044495       0.17848714      -0.99310166
H       -1.43582530      -1.82770435      -0.79771257
H        0.24731816       0.89929927      -1.06551418
H       -0.08001057      -0.21177739       1.38013746
H        0.32737813      -1.88210119       0.78035609
H        2.22234060      -0.65697571      -0.56524599
H        2.82491539      -0.28120261       1.11519928
H        2.54627709       2.05073153       0.59432866
17
Frame=9 idx=007088 GeodesicLength=0.6044640705043322 rxn_smarts="[C:1]([C@@:2]([O:3][H:12])([C:4]([C:5]([C:6](=[O:7])[H:17])([H:15])[H:16])([H:13])[H:14])[H:11])([H:8])([H:9])[H:10]>>[C:1]([C@@:2]1([H:11])[O:3][C:4]1([H:13])[H:14])([H:8])([H:9])[H:10].[C:5](=[C:6]([O:7][H:12])[H:17])([H:15])[H:16]"
C       -2.33718732       0.01930331      -0.09883765
C       -1.14503342      -0.84494251      -0.42658420
O       -0.21729651      -0.24688703      -1.29460561
C       -0.01312466      -0.87225502       0.52105156
C        2.12301826      -0.04202538       0.32972927
C        1.89006449       1.32163676       0.14663917
O        0.92560704       1.83454992      -0.52175185
H       -2.95123294      -0.45534104       0.66990567
H       -2.01802601       1.00310997       0.25201074
H       -2.94597909       0.16037098      -0.99283681
H       -1.42222930      -1.82855354      -0.81246432
H        0.23805302       0.92048422      -1.05514448
H       -0.09073823      -0.19365887       1.36572047
H        0.30086107      -1.87253168       0.80015305
H        2.23060892      -0.65787038      -0.55710832
H        2.82248138      -0.28670324       1.12309783
H        2.61015331       2.04131353       0.55102546
17
Frame=10 idx=007088 GeodesicLength=0.6674295277508582 rxn_smarts="[C:1]([C@@:2]([O:3][H:12])([C:4]([C:5]([C:6](=[O:7])[H:17])([H:15])[H:16])([H:13])[H:14])[H:11])([H:8])([H:9])[H:10]>>[C:1]([C@@:2]1([H:11])[O:3][C:4]1([H:13])[H:14])([H:8])([H:9])[H:10].[C:5](=[C:6]([O:7][H:12])[H:17])([H:15])[H:16]"
C       -2.35068660       0.00271640      -0.09906944
C       -1.14851430      -0.84503281      -0.43099909
O       -0.22495663      -0.22679853      -1.28942770
C       -0.00989716      -0.86022495       0.51116547
C        2.11849487      -0.04571368       0.33917925
C        1.91463787       1.32416977       0.14549347
O        0.94150500       1.84999380      -0.49858367
H       -2.95851187      -0.48455670       0.66664096
H       -2.04331370       0.98801876       0.25820728
H       -2.96092334       0.14267747      -0.99226219
H       -1.40854238      -1.82877606      -0.82729042
H        0.22863951       0.94173032      -1.04480825
H       -0.10097511      -0.17561752       1.35088872
H        0.27421841      -1.86162811       0.81990623
H        2.23900875      -0.65917747      -0.54857070
H        2.81983350      -0.29157637       1.13103114
H        2.66998319       2.02979568       0.50849893
17
Frame=11 idx=007088 GeodesicLength=0.7299890053039927 rxn_smarts="[C:1]([C@@:2]([O:3][H:12])([C:4]([C:5]([C:6](=[O:7])[H:17])([H:15])[H:16])([H:13])[H:14])[H:11])([H:8])([H:9])[H:10]>>[C:1]([C@@:2]1([H:11])[O:3][C:4]1([H:13])[H:14])([H:8])([H:9])[H:10].[C:5](=[C:6]([O:7][H:12])[H:17])([H:15])[H:16]"
C       -2.36368707      -0.01390986      -0.09914986
C       -1.15173645      -0.84496944      -0.43550113
O       -0.23274839      -0.20647140      -1.28412432
C       -0.00660538      -0.84845772       0.50129077
C        2.11399046      -0.04908868       0.34849846
C        1.93895777       1.32629254       0.14402715
O        0.95821014       1.86527578      -0.47590341
H       -2.96510405      -0.51393495       0.66334404
H       -2.06806425       0.97256921       0.26493775
H       -2.97538282       0.12527614      -0.99148345
H       -1.39466237      -1.82837174      -0.84238646
H        0.21901516       0.96323175      -1.03421200
H       -0.11087279      -0.15764986       1.33572618
H        0.24740264      -1.84938319       0.83957099
H        2.24747657      -0.66088292      -0.53951131
H        2.81688900      -0.29589835       1.13920643
H        2.72692183       2.01637270       0.46567019
17
Frame=12 idx=007088 GeodesicLength=0.7920563284261314 rxn_smarts="[C:1]([C@@:2]([O:3][H:12])([C:4]([C:5]([C:6](=[O:7])[H:17])([H:15])[H:16])([H:13])[H:14])[H:11])([H:8])([H:9])[H:10]>>[C:1]([C@@:2]1([H:11])[O:3][C:4]1([H:13])[H:14])([H:8])([H:9])[H:10].[C:5](=[C:6]([O:7][H:12])[H:17])([H:15])[H:16]"
C       -2.37621375      -0.03059750      -0.09908909
C       -1.15468548      -0.84469653      -0.44004969
O       -0.24068201      -0.18590450      -1.27860948
C       -0.00322949      -0.83683766       0.49142882
C        2.10952148      -0.05217529       0.35760625
C        1.96304483       1.32794045       0.14216823
O        0.97576070       1.88028755      -0.45384444
H       -2.97099504      -0.54345841       0.65997952
H       -2.09234146       0.95670635       0.27211452
H       -2.98941742       0.10804744      -0.99045342
H       -1.38053727      -1.82724877      -0.85764894
H        0.20916968       0.98491943      -1.02330140
H       -0.12042018      -0.13962498       1.32014046
H        0.22048061      -1.83564038       0.85905476
H        2.25600271      -0.66298027      -0.52996399
H        2.81367687      -0.29969279       1.14749272
H        2.78086522       2.00095587       0.42297519
17
Frame=13 idx=007088 GeodesicLength=0.8539021342012763 rxn_smarts="[C:1]([C@@:2]([O:3][H:12])([C:4]([C:5]([C:6](=[O:7])[H:17])([H:15])[H:16])([H:13])[H:14])[H:11])([H:8])([H:9])[H:10]>>[C:1]([C@@:2]1([H:11])[O:3][C:4]1([H:13])[H:14])([H:8])([H:9])[H:10].[C:5](=[C:6]([O:7][H:12])[H:17])([H:15])[H:16]"
C       -2.38829866      -0.04735634      -0.09890414
C       -1.15742256      -0.84428142      -0.44468703
O       -0.24877695      -0.16511209      -1.27294570
C        0.00017139      -0.82545492       0.48163049
C        2.10506318      -0.05499291       0.36660275
C        1.98691417       1.32921094       0.14003024
O        0.99414505       1.89516683      -0.43232535
H       -2.97625041      -0.57319488       0.65654840
H       -2.11614310       0.94046786       0.27980073
H       -3.00304219       0.09104012      -0.98926225
H       -1.36626424      -1.82553654      -0.87316633
H        0.19912085       1.00685352      -1.01207786
H       -0.12965887      -0.12162565       1.30428408
H        0.19347337      -1.82059322       0.87826939
H        2.26455159      -0.66550551      -0.51991616
H        2.81017753      -0.30298304       1.15605035
H        2.83223985       1.98389725       0.38006838
17
Frame=14 idx=007088 GeodesicLength=0.9154035626189769 rxn_smarts="[C:1]([C@@:2]([O:3][H:12])([C:4]([C:5]([C:6](=[O:7])[H:17])([H:15])[H:16])([H:13])[H:14])[H:11])([H:8])([H:9])[H:10]>>[C:1]([C@@:2]1([H:11])[O:3][C:4]1([H:13])[H:14])([H:8])([H:9])[H:10].[C:5](=[C:6]([O:7][H:12])[H:17])([H:15])[H:16]"
C       -2.39995243      -0.06420017      -0.09863239
C       -1.15992455      -0.84367102      -0.44940609
O       -0.25700896      -0.14405961      -1.26701462
C        0.00358921      -0.81425623       0.47188888
C        2.10057918      -0.05754271       0.37556324
C        2.01051103       1.33003973       0.13769997
O        1.01323506       1.90982007      -0.41115490
H       -2.98089034      -0.60316642       0.65290784
H       -2.13953394       0.92375837       0.28800116
H       -3.01623368       0.07427781      -0.98790841
H       -1.35176243      -1.82311741      -0.88892864
H        0.18883921       1.02899440      -1.00038565
H       -0.13864377      -0.10367325       1.28812797
H        0.16649236      -1.80417176       0.89706192
H        2.27312112      -0.66841479      -0.50924070
H        2.80635805      -0.30573372       1.16491230
H        2.88122490       1.96511670       0.33650812
17
Frame=15 idx=007088 GeodesicLength=0.9766244244457725 rxn_smarts="[C:1]([C@@:2]([O:3][H:12])([C:4]([C:5]([C:6](=[O:7])[H:17])([H:15])[H:16])([H:13])[H:14])[H:11])([H:8])([H:9])[H:10]>>[C:1]([C@@:2]1([H:11])[O:3][C:4]1([H:13])[H:14])([H:8])([H:9])[H:10].[C:5](=[C:6]([O:7][H:12])[H:17])([H:15])[H:16]"
C       -2.41116939      -0.08109196      -0.09824127
C       -1.16222111      -0.84287857      -0.45416548
O       -0.26541229      -0.12286541      -1.26086536
C        0.00704172      -0.80319756       0.46221562
C        2.09610819      -0.05986158       0.38433950
C        2.03388945       1.33041916       0.13498556
O        1.03313475       1.92420093      -0.39068973
H       -2.98487755      -0.63325655       0.64917172
H       -2.16245389       0.90664976       0.29663370
H       -3.02904927       0.05769439      -0.98634251
H       -1.33712897      -1.82004202      -0.90480027
H        0.17836367       1.05123604      -0.98839184
H       -0.14730992      -0.08566903       1.27165529
H        0.13961507      -1.78640227       0.91534485
H        2.28170525      -0.67177021      -0.49808431
H        2.80226460      -0.30797677       1.17393697
H        2.92749970       1.94481163       0.29329753
17
Frame=16 idx=007088 GeodesicLength=1.0376627750770788 rxn_smarts="[C:1]([C@@:2]([O:3][H:12])([C:4]([C:5]([C:6](=[O:7])[H:17])([H:15])[H:16])([H:13])[H:14])[H:11])([H:8])([H:9])[H:10]>>[C:1]([C@@:2]1([H:11])[O:3][C:4]1([H:13])[H:14])([H:8])([H:9])[H:10].[C:5](=[C:6]([O:7][H:12])[H:17])([H:15])[H:16]"
C       -2.42196628      -0.09803077      -0.09774889
C       -1.16434421      -0.84192338      -0.45898112
O       -0.27399824      -0.10154136      -1.25450941
C        0.01049923      -0.79229125       0.45262809
C        2.09163803      -0.06196623       0.39298297
C        2.05707458       1.33035815       0.13187821
O        1.05378801       1.93833699      -0.37082621
H       -2.98824959      -0.66349243       0.64530101
H       -2.18490453       0.88914017       0.30573073
H       -3.04149190       0.04133532      -0.98460655
H       -1.32240921      -1.81634777      -0.92080927
H        0.16769605       1.07358789      -0.97608835
H       -0.15567847      -0.06764973       1.25493532
H        0.11290843      -1.76737844       0.93304550
H        2.29027991      -0.67561231      -0.48640022
H        2.79788687      -0.30969711       1.18320299
H        2.97127132       1.92317226       0.25026520
