10
Frame=0 idx=004474 GeodesicLength=0.0 rxn_smarts="[O:1]([C:2]([C:3](=[O:4])[C:5](=[O:6])[H:10])([H:8])[H:9])[H:7]>>[O:1]([C:2]([C-:3]=[O+:4][C:5](=[O:6])[H:10])([H:8])[H:9])[H:7]"
O        1.90649435       0.69690600      -0.24117798
C        1.35623698      -0.36153868       0.49457937
C       -0.11467714      -0.53979397       0.57088207
O       -0.67905277       0.32089269      -0.25128409
C       -2.07729159       0.22253611      -0.37177620
O       -2.59754498      -0.62097336      -1.00183545
H        1.34737655       0.86909424      -1.00249908
H        1.69682258      -1.34987192       0.13308948
H        1.72211836      -0.29665374       1.52404023
H       -2.56048234       1.05940263       0.14598163
10
Frame=1 idx=004474 GeodesicLength=0.07945020585650117 rxn_smarts="[O:1]([C:2]([C:3](=[O:4])[C:5](=[O:6])[H:10])([H:8])[H:9])[H:7]>>[O:1]([C:2]([C-:3]=[O+:4][C:5](=[O:6])[H:10])([H:8])[H:9])[H:7]"
O        1.93269651       0.67607318      -0.24710437
C        1.34990164      -0.36423805       0.48898649
C       -0.12637714      -0.47373203       0.58383086
O       -0.66692101       0.39008497      -0.24503057
C       -2.07535296       0.20381671      -0.35977805
O       -2.56155794      -0.65639359      -0.99590182
H        1.36735236       0.87858895      -0.99651390
H        1.64756599      -1.36253816       0.11806691
H        1.72867446      -0.32243917       1.51521518
H       -2.59598191       1.03077718       0.13822927
10
Frame=2 idx=004474 GeodesicLength=0.1589695184484735 rxn_smarts="[O:1]([C:2]([C:3](=[O:4])[C:5](=[O:6])[H:10])([H:8])[H:9])[H:7]>>[O:1]([C:2]([C-:3]=[O+:4][C:5](=[O:6])[H:10])([H:8])[H:9])[H:7]"
O        1.95551040       0.65633447      -0.25167516
C        1.34189489      -0.36689677       0.48299749
C       -0.13661367      -0.41035184       0.59460421
O       -0.65526369       0.45509224      -0.24066855
C       -2.07017725       0.18599263      -0.34892923
O       -2.52625171      -0.69278173      -0.98342998
H        1.38571652       0.88994454      -0.98893004
H        1.59855221      -1.37239003       0.10186125
H        1.73097423      -0.34929729       1.50643159
H       -2.62434193       1.00435378       0.12773843
10
Frame=3 idx=004474 GeodesicLength=0.23938824725989954 rxn_smarts="[O:1]([C:2]([C:3](=[O:4])[C:5](=[O:6])[H:10])([H:8])[H:9])[H:7]>>[O:1]([C:2]([C-:3]=[O+:4][C:5](=[O:6])[H:10])([H:8])[H:9])[H:7]"
O        1.97449075       0.63449537      -0.25866351
C        1.33160212      -0.36956953       0.47653583
C       -0.14532372      -0.34549899       0.60768239
O       -0.64400334       0.52193083      -0.23178467
C       -2.06056728       0.16922093      -0.33932617
O       -2.48342355      -0.72857070      -0.97168274
H        1.40044475       0.90042372      -0.98155987
H        1.54536818      -1.38097346       0.08574590
H        1.73147291      -0.37642632       1.49587094
H       -2.65006083       0.97496816       0.11718190
10
Frame=4 idx=004474 GeodesicLength=0.32021623876228766 rxn_smarts="[O:1]([C:2]([C:3](=[O:4])[C:5](=[O:6])[H:10])([H:8])[H:9])[H:7]>>[O:1]([C:2]([C-:3]=[O+:4][C:5](=[O:6])[H:10])([H:8])[H:9])[H:7]"
O        1.99159470       0.61648410      -0.26082454
C        1.32056714      -0.37204581       0.46959282
C       -0.15280024      -0.28719913       0.61336512
O       -0.63241710       0.57980728      -0.23187508
C       -2.05036336       0.15284810      -0.32962778
O       -2.44946880      -0.76646092      -0.94836351
H        1.41703899       0.91486986      -0.97077306
H        1.49734501      -1.38592335       0.06787773
H        1.72513849      -0.40443528       1.48675650
H       -2.66663483       0.95205515       0.10387180
10
Frame=5 idx=004474 GeodesicLength=0.4009060601868483 rxn_smarts="[O:1]([C:2]([C:3](=[O:4])[C:5](=[O:6])[H:10])([H:8])[H:9])[H:7]>>[O:1]([C:2]([C-:3]=[O+:4][C:5](=[O:6])[H:10])([H:8])[H:9])[H:7]"
O        2.00650610       0.59916750      -0.26223625
C        1.30843068      -0.37438516       0.46232679
C       -0.15949477      -0.23175803       0.61651570
O       -0.62119343       0.63489248      -0.23348033
C       -2.03845559       0.13730799      -0.32022919
O       -2.41548541      -0.80357693      -0.92167876
H        1.43331966       0.92932404      -0.95945012
H        1.45072720      -1.38898836       0.04967228
H        1.71491596      -0.43188199       1.47786317
H       -2.67927040       0.92989848       0.09069671
10
Frame=6 idx=004474 GeodesicLength=0.4820752584024348 rxn_smarts="[O:1]([C:2]([C:3](=[O:4])[C:5](=[O:6])[H:10])([H:8])[H:9])[H:7]>>[O:1]([C:2]([C-:3]=[O+:4][C:5](=[O:6])[H:10])([H:8])[H:9])[H:7]"
O        2.01931698       0.58232422      -0.26329239
C        1.29525312      -0.37658109       0.45469344
C       -0.16520364      -0.17892551       0.61773156
O       -0.60981270       0.68739682      -0.23602725
C       -2.02504395       0.12235396      -0.31099646
O       -2.38162391      -0.83989022      -0.89220035
H        1.44907884       0.94410742      -0.94723354
H        1.40498974      -1.39041169       0.03135116
H        1.70136401      -0.45870360       1.46874316
H       -2.68831849       0.90832969       0.07723067
10
Frame=7 idx=004474 GeodesicLength=0.5633537537456198 rxn_smarts="[O:1]([C:2]([C:3](=[O:4])[C:5](=[O:6])[H:10])([H:8])[H:9])[H:7]>>[O:1]([C:2]([C-:3]=[O+:4][C:5](=[O:6])[H:10])([H:8])[H:9])[H:7]"
O        2.03092846       0.56666413      -0.26270412
C        1.28148894      -0.37867293       0.44659303
C       -0.17038287      -0.12918355       0.61578631
O       -0.59852799       0.73640492      -0.24154178
C       -2.01105372       0.10789649      -0.30177494
O       -2.34973844      -0.87607980      -0.85793193
H        1.46553357       0.95984453      -0.93342067
H        1.36158781      -1.39012802       0.01198111
H        1.68422233      -0.48531269       1.45982140
H       -2.69405809       0.88856690       0.06319159
10
Frame=8 idx=004474 GeodesicLength=0.6454108385326833 rxn_smarts="[O:1]([C:2]([C:3](=[O:4])[C:5](=[O:6])[H:10])([H:8])[H:9])[H:7]>>[O:1]([C:2]([C-:3]=[O+:4][C:5](=[O:6])[H:10])([H:8])[H:9])[H:7]"
O        2.04188579       0.55204350      -0.26053852
C        1.26724149      -0.38065687       0.43795063
C       -0.17504316      -0.08181798       0.61112959
O       -0.58703773       0.78242830      -0.25000435
C       -1.99682974       0.09371647      -0.29255927
O       -2.31997208      -0.91263096      -0.81887836
H        1.48316779       0.97680434      -0.91770468
H        1.32003225      -1.38834730      -0.00875090
H        1.66381574      -0.51195103       1.45089393
H       -2.69726034       0.87041152       0.04846193
10
Frame=9 idx=004474 GeodesicLength=0.7277481350447776 rxn_smarts="[O:1]([C:2]([C:3](=[O:4])[C:5](=[O:6])[H:10])([H:8])[H:9])[H:7]>>[O:1]([C:2]([C-:3]=[O+:4][C:5](=[O:6])[H:10])([H:8])[H:9])[H:7]"
O        2.05209352       0.53873477      -0.25625038
C        1.25271062      -0.38258455       0.42858014
C       -0.17903362      -0.03722782       0.60316412
O       -0.57529737       0.82470227      -0.26233501
C       -1.98264481       0.07955601      -0.28273822
O       -2.29309178      -0.94928059      -0.77374367
H        1.50187370       0.99556188      -0.89916886
H        1.28115176      -1.38495182      -0.03109883
H        1.64009415      -0.53898901       1.44160485
H       -2.69785616       0.85447887       0.03198586
10
Frame=10 idx=004474 GeodesicLength=0.8106703216863749 rxn_smarts="[O:1]([C:2]([C:3](=[O:4])[C:5](=[O:6])[H:10])([H:8])[H:9])[H:7]>>[O:1]([C:2]([C-:3]=[O+:4][C:5](=[O:6])[H:10])([H:8])[H:9])[H:7]"
O        2.06164857       0.52606062      -0.25098041
C        1.23767445      -0.38443553       0.41866064
C       -0.18288910       0.00535198       0.59307027
O       -0.56347165       0.86508733      -0.27640645
C       -1.96811412       0.06578095      -0.27320183
O       -2.26679018      -0.98526887      -0.72487479
H        1.52142129       1.01464250      -0.87909563
H        1.24382988      -1.38061294      -0.05458826
H        1.61351174      -0.56551968       1.43204400
H       -2.69682088       0.83891364       0.01537246
10
Frame=11 idx=004474 GeodesicLength=0.8934307263403919 rxn_smarts="[O:1]([C:2]([C:3](=[O:4])[C:5](=[O:6])[H:10])([H:8])[H:9])[H:7]>>[O:1]([C:2]([C-:3]=[O+:4][C:5](=[O:6])[H:10])([H:8])[H:9])[H:7]"
O        2.07053627       0.51458966      -0.24386369
C        1.22279202      -0.38620317       0.40811714
C       -0.18635385       0.04473844       0.57992128
O       -0.55152110       0.90224697      -0.29315225
C       -1.95406410       0.05211687      -0.26311286
O       -2.24319321      -1.01982255      -0.67159379
H        1.54152808       1.03419633      -0.85673349
H        1.20999512      -1.37500770      -0.07928610
H        1.58452929      -0.59160857       1.42208540
H       -2.69424852       0.82475372      -0.00238163
10
Frame=12 idx=004474 GeodesicLength=0.9768099508825705 rxn_smarts="[O:1]([C:2]([C:3](=[O:4])[C:5](=[O:6])[H:10])([H:8])[H:9])[H:7]>>[O:1]([C:2]([C-:3]=[O+:4][C:5](=[O:6])[H:10])([H:8])[H:9])[H:7]"
O        2.07899099       0.50359574      -0.23593830
C        1.20767818      -0.38793748       0.39695094
C       -0.18975760       0.08217400       0.56488447
O       -0.53936280       0.93782293      -0.31125458
C       -1.94003292       0.03863923      -0.25317685
O       -2.22036114      -1.05323551      -0.61467098
H        1.56231000       1.05403021      -0.83246603
H        1.17801495      -1.36872378      -0.10510329
H        1.55327189      -0.61711636       1.41155159
H       -2.69075155       0.81075100      -0.02077698
10
Frame=13 idx=004474 GeodesicLength=1.0601666861536325 rxn_smarts="[O:1]([C:2]([C:3](=[O:4])[C:5](=[O:6])[H:10])([H:8])[H:9])[H:7]>>[O:1]([C:2]([C-:3]=[O+:4][C:5](=[O:6])[H:10])([H:8])[H:9])[H:7]"
O        2.08702179       0.49395048      -0.22602596
C        1.19273548      -0.38967304       0.38494780
C       -0.19293630       0.11692994       0.54713401
O       -0.52699878       0.97058380      -0.33201098
C       -1.92649376       0.02512005      -0.24263617
O       -2.19992327      -1.08515187      -0.55214218
H        1.58373585       1.07462791      -0.80539619
H        1.14928023      -1.36139715      -0.13279301
H        1.51971701      -0.64277292       1.40012263
H       -2.68613823       0.79778281      -0.04119995
10
Frame=14 idx=004474 GeodesicLength=1.1436447773657339 rxn_smarts="[O:1]([C:2]([C:3](=[O:4])[C:5](=[O:6])[H:10])([H:8])[H:9])[H:7]>>[O:1]([C:2]([C-:3]=[O+:4][C:5](=[O:6])[H:10])([H:8])[H:9])[H:7]"
O        2.09444181       0.48508442      -0.21497674
C        1.17787612      -0.39140991       0.37229082
C       -0.19616747       0.14916132       0.52723131
O       -0.51438178       1.00162286      -0.35401038
C       -1.91321691       0.01177715      -0.23226172
O       -2.18072131      -1.11483124      -0.48589704
H        1.60519459       1.09505629      -0.77632537
H        1.12341310      -1.35351215      -0.16152211
H        1.48430940      -0.66775431       1.38790700
H       -2.68074756       0.78480557      -0.06243578
10
Frame=15 idx=004474 GeodesicLength=1.2271044626888639 rxn_smarts="[O:1]([C:2]([C:3](=[O:4])[C:5](=[O:6])[H:10])([H:8])[H:9])[H:7]>>[O:1]([C:2]([C-:3]=[O+:4][C:5](=[O:6])[H:10])([H:8])[H:9])[H:7]"
O        2.10109118       0.47704605      -0.20258971
C        1.16311578      -0.39318890       0.35883459
C       -0.19937770       0.17893475       0.50522636
O       -0.50151754       1.03084306      -0.37730468
C       -1.90010445      -0.00151783      -0.22187096
O       -2.16269099      -1.14190152      -0.41496796
H        1.62635164       1.11545038      -0.74477335
H        1.10040211      -1.34489901      -0.19166334
H        1.44719962      -0.69247827       1.37453791
H       -2.67446965       0.77171129      -0.08542887
10
Frame=16 idx=004474 GeodesicLength=1.3104818370639808 rxn_smarts="[O:1]([C:2]([C:3](=[O:4])[C:5](=[O:6])[H:10])([H:8])[H:9])[H:7]>>[O:1]([C:2]([C-:3]=[O+:4][C:5](=[O:6])[H:10])([H:8])[H:9])[H:7]"
O        2.10718627       0.47002615      -0.18884008
C        1.14871014      -0.39503971       0.34465206
C       -0.20270749       0.20609974       0.48125260
O       -0.48840053       1.05860698      -0.40135240
C       -1.88745766      -0.01482932      -0.21143741
O       -2.14616031      -1.16593097      -0.33992743
H        1.64712268       1.13544157      -0.71120111
H        1.08070091      -1.33586737      -0.22302517
H        1.40876978      -0.71682547       1.36000024
H       -2.66776379       0.75831838      -0.11012129
