15
Frame=0 idx=010269 GeodesicLength=0.0 rxn_smarts="[C:1]([C:2]([C:3]([H:12])([H:13])[H:14])([C:4]#[C:5][C:6](=[O:7])[H:15])[H:11])([H:8])([H:9])[H:10]>>[C:1]([C@@:2]1([H:11])[C:3]([H:12])([H:14])[C@:5]([C:6](=[O:7])[H:15])([H:13])[C:4]1)([H:8])([H:9])[H:10]"
C       -1.52272736      -0.86801181      -1.30287372
C       -0.71990636       0.25853278      -0.67566877
C       -0.50966737       0.14737644       0.83652770
C        0.76243789       0.28234200      -1.02490782
C        1.17962130       0.58370555       0.24003279
C        2.40170972       0.34424722       0.99853434
O        2.45881427       0.25568289       2.19966362
H       -2.54960909      -0.88598843      -0.93109463
H       -1.54352156      -0.73943077      -2.38483387
H       -1.06255261      -1.83590410      -1.09456155
H       -1.16535401       1.22263554      -0.93910028
H       -0.31404850      -0.85239742       1.20805850
H        0.42070103       1.15097025       0.96987112
H       -1.12537606       0.70156118       1.55285443
H        3.28947871       0.23467873       0.34749820
15
Frame=1 idx=010269 GeodesicLength=0.08549866353657605 rxn_smarts="[C:1]([C:2]([C:3]([H:12])([H:13])[H:14])([C:4]#[C:5][C:6](=[O:7])[H:15])[H:11])([H:8])([H:9])[H:10]>>[C:1]([C@@:2]1([H:11])[C:3]([H:12])([H:14])[C@:5]([C:6](=[O:7])[H:15])([H:13])[C:4]1)([H:8])([H:9])[H:10]"
C       -1.52082170      -0.87258500      -1.30058248
C       -0.72121122       0.25643368      -0.67392054
C       -0.52031584       0.15878979       0.84110658
C        0.76035655       0.27932360      -1.01567159
C        1.18824075       0.58358006       0.24345636
C        2.41711901       0.34032690       0.99158119
O        2.47484784       0.17968888       2.18486217
H       -2.55066780      -0.88393884      -0.93696006
H       -1.53180493      -0.75278155      -2.38375467
H       -1.06570455      -1.84018752      -1.08037482
H       -1.16141039       1.22046967      -0.94701567
H       -0.33402218      -0.83996377       1.22112279
H        0.41218968       1.16731713       0.97756251
H       -1.15595945       0.71223970       1.53966731
H        3.30916423       0.29128726       0.33892091
15
Frame=2 idx=010269 GeodesicLength=0.17106685973534974 rxn_smarts="[C:1]([C:2]([C:3]([H:12])([H:13])[H:14])([C:4]#[C:5][C:6](=[O:7])[H:15])[H:11])([H:8])([H:9])[H:10]>>[C:1]([C@@:2]1([H:11])[C:3]([H:12])([H:14])[C@:5]([C:6](=[O:7])[H:15])([H:13])[C:4]1)([H:8])([H:9])[H:10]"
C       -1.51867388      -0.87698510      -1.29844582
C       -0.72258101       0.25448058      -0.67190985
C       -0.53128476       0.17004965       0.84579401
C        0.75821046       0.27686618      -1.00598722
C        1.19684984       0.58321204       0.24737072
C        2.43260458       0.33607483       0.98471709
O        2.49375371       0.10779065       2.16642983
H       -2.55145235      -0.88205106      -0.94323950
H       -1.51968196      -0.76569689      -2.38263692
H       -1.06859587      -1.84416902      -1.06656383
H       -1.15759638       1.21837224      -0.95441070
H       -0.35428178      -0.82769267       1.23387608
H        0.40303327       1.18378449       0.98582224
H       -1.18697382       0.72179510       1.52625094
H        3.32666993       0.34416898       0.33293292
15
Frame=3 idx=010269 GeodesicLength=0.2568350674631848 rxn_smarts="[C:1]([C:2]([C:3]([H:12])([H:13])[H:14])([C:4]#[C:5][C:6](=[O:7])[H:15])[H:11])([H:8])([H:9])[H:10]>>[C:1]([C@@:2]1([H:11])[C:3]([H:12])([H:14])[C@:5]([C:6](=[O:7])[H:15])([H:13])[C:4]1)([H:8])([H:9])[H:10]"
C       -1.51627739      -0.88130994      -1.29638842
C       -0.72402235       0.25268537      -0.66967517
C       -0.54258971       0.18134813       0.85060186
C        0.75601091       0.27499861      -0.99590444
C        1.20548055       0.58271439       0.25173598
C        2.44822824       0.33172493       0.97792566
O        2.51503354       0.03859025       2.14467440
H       -2.55197538      -0.88040642      -0.94986186
H       -1.50712697      -0.77840282      -2.38144476
H       -1.07120670      -1.84792113      -1.05292680
H       -1.15393707       1.21632517      -0.96144158
H       -0.37484244      -0.81536385       1.24645454
H        0.39322019       1.20061271       0.99454554
H       -1.21842583       0.73047903       1.51255163
H        3.34243041       0.39392559       0.32915342
15
Frame=4 idx=010269 GeodesicLength=0.3426029550459161 rxn_smarts="[C:1]([C:2]([C:3]([H:12])([H:13])[H:14])([C:4]#[C:5][C:6](=[O:7])[H:15])[H:11])([H:8])([H:9])[H:10]>>[C:1]([C@@:2]1([H:11])[C:3]([H:12])([H:14])[C@:5]([C:6](=[O:7])[H:15])([H:13])[C:4]1)([H:8])([H:9])[H:10]"
C       -1.51358395      -0.88555259      -1.29426432
C       -0.72548395       0.25102240      -0.66721358
C       -0.55422692       0.19279905       0.85545524
C        0.75376751       0.27352739      -0.98538291
C        1.21412996       0.58191662       0.25651131
C        2.46388508       0.32693486       0.97114912
O        2.53817460      -0.02873642       2.11948816
H       -2.55214408      -0.87891606      -0.95666023
H       -1.49411907      -0.79096035      -2.37997613
H       -1.07351007      -1.85143143      -1.03927907
H       -1.15033093       1.21429570      -0.96818074
H       -0.39576087      -0.80283097       1.25884706
H        0.38273520       1.21784122       1.00353046
H       -1.25022457       0.73849110       1.49842459
H        3.35669205       0.44159947       0.32755104
15
Frame=5 idx=010269 GeodesicLength=0.4285953483465115 rxn_smarts="[C:1]([C:2]([C:3]([H:12])([H:13])[H:14])([C:4]#[C:5][C:6](=[O:7])[H:15])[H:11])([H:8])([H:9])[H:10]>>[C:1]([C@@:2]1([H:11])[C:3]([H:12])([H:14])[C@:5]([C:6](=[O:7])[H:15])([H:13])[C:4]1)([H:8])([H:9])[H:10]"
C       -1.51067819      -0.88974823      -1.29215761
C       -0.72700511       0.24949305      -0.66455056
C       -0.56625154       0.20440065       0.86041254
C        0.75148326       0.27249481      -0.97444254
C        1.22282239       0.58081054       0.26176482
C        2.47970968       0.32183291       0.96439511
O        2.56335687      -0.09400990       2.09132327
H       -2.55208487      -0.87761134      -0.96375433
H       -1.48068686      -0.80341287      -2.37837135
H       -1.07563726      -1.85475201      -1.02566468
H       -1.14678717       1.21230162      -0.97467479
H       -0.41711293      -0.79011768       1.27113304
H        0.37156147       1.23553876       1.01283232
H       -1.28241173       0.74580762       1.48393840
H        3.36972201       0.48697207       0.32781636
15
Frame=6 idx=010269 GeodesicLength=0.5147556307871338 rxn_smarts="[C:1]([C:2]([C:3]([H:12])([H:13])[H:14])([C:4]#[C:5][C:6](=[O:7])[H:15])[H:11])([H:8])([H:9])[H:10]>>[C:1]([C@@:2]1([H:11])[C:3]([H:12])([H:14])[C@:5]([C:6](=[O:7])[H:15])([H:13])[C:4]1)([H:8])([H:9])[H:10]"
C       -1.50752080      -0.89390167      -1.29001039
C       -0.72857807       0.24810405      -0.66167818
C       -0.57867025       0.21620716       0.86545026
C        0.74915348       0.27189599      -0.96306657
C        1.23155704       0.57935828       0.26749161
C        2.49567848       0.31631271       0.95761331
O        2.59031662      -0.15745413       2.06020554
H       -2.55174238      -0.87651078      -0.97106749
H       -1.46681060      -0.81577112      -2.37655045
H       -1.07752109      -1.85787707      -1.01202657
H       -1.14330902       1.21034037      -0.98093653
H       -0.43889934      -0.77716202       1.28330519
H        0.35964512       1.25377986       1.02235700
H       -1.31494739       0.75248745       1.46905468
H        3.38164820       0.53019091       0.32985858
15
Frame=7 idx=010269 GeodesicLength=0.6010549923957355 rxn_smarts="[C:1]([C:2]([C:3]([H:12])([H:13])[H:14])([C:4]#[C:5][C:6](=[O:7])[H:15])[H:11])([H:8])([H:9])[H:10]>>[C:1]([C@@:2]1([H:11])[C:3]([H:12])([H:14])[C@:5]([C:6](=[O:7])[H:15])([H:13])[C:4]1)([H:8])([H:9])[H:10]"
C       -1.50408922      -0.89803571      -1.28778122
C       -0.73019703       0.24686043      -0.65859647
C       -0.59149171       0.22828481       0.87055917
C        0.74677409       0.27173759      -0.95124741
C        1.24033703       0.57753964       0.27370036
C        2.51177676       0.31031530       0.95078079
O        2.61885342      -0.21938444       2.02608996
H       -2.55108405      -0.87564570      -0.97855000
H       -1.45247370      -0.82808348      -2.37446707
H       -1.07913015      -1.86081634      -0.99830281
H       -1.13989112       1.20840379      -0.98699627
H       -0.46113101      -0.76388704       1.29538111
H        0.34694712       1.27265949       1.03203385
H       -1.34779464       0.75859970       1.45375070
H        3.39259421       0.57145197       0.33364530
15
Frame=8 idx=010269 GeodesicLength=0.6875130315989321 rxn_smarts="[C:1]([C:2]([C:3]([H:12])([H:13])[H:14])([C:4]#[C:5][C:6](=[O:7])[H:15])[H:11])([H:8])([H:9])[H:10]>>[C:1]([C@@:2]1([H:11])[C:3]([H:12])([H:14])[C@:5]([C:6](=[O:7])[H:15])([H:13])[C:4]1)([H:8])([H:9])[H:10]"
C       -1.50037984      -0.90216073      -1.28545119
C       -0.73186398       0.24576117      -0.65530340
C       -0.60474576       0.24066597       0.87573694
C        0.74434800       0.27201093      -0.93895895
C        1.24916168       0.57530499       0.28042516
C        2.52802873       0.30382859       0.94388020
O        2.64891862      -0.27992881       1.98896312
H       -2.55011269      -0.87501161      -0.98620608
H       -1.43764604      -0.84038155      -2.37209889
H       -1.08047695      -1.86357795      -0.98444401
H       -1.13652307       1.20648735      -0.99287964
H       -0.48383786      -0.75025472       1.30738012
H        0.33341374       1.29223979       1.04181969
H       -1.38094841       0.76417756       1.43800669
H        3.40266383       0.61083902       0.33913024
15
Frame=9 idx=010269 GeodesicLength=0.7741169729443085 rxn_smarts="[C:1]([C:2]([C:3]([H:12])([H:13])[H:14])([C:4]#[C:5][C:6](=[O:7])[H:15])[H:11])([H:8])([H:9])[H:10]>>[C:1]([C@@:2]1([H:11])[C:3]([H:12])([H:14])[C@:5]([C:6](=[O:7])[H:15])([H:13])[C:4]1)([H:8])([H:9])[H:10]"
C       -1.49639841      -0.90628160      -1.28299755
C       -0.73357400       0.24480012      -0.65179947
C       -0.61845913       0.25338522       0.88097576
C        0.74187870       0.27266873      -0.92617564
C        1.25802670       0.57255034       0.28770740
C        2.54444295       0.29673179       0.93687679
O        2.68046595      -0.33919726       1.94877244
H       -2.54883236      -0.87458196      -0.99403411
H       -1.42230699      -0.85269647      -2.36941728
H       -1.08160196      -1.86616960      -0.97039344
H       -1.13316652       1.20458779      -0.99861963
H       -0.50706673      -0.73622742       1.31931802
H        0.31900646       1.31256820       1.05165282
H       -1.41438541       0.76925784       1.42180348
H        3.41197076       0.64860427       0.34633040
15
Frame=10 idx=010269 GeodesicLength=0.8608681245753809 rxn_smarts="[C:1]([C:2]([C:3]([H:12])([H:13])[H:14])([C:4]#[C:5][C:6](=[O:7])[H:15])[H:11])([H:8])([H:9])[H:10]>>[C:1]([C@@:2]1([H:11])[C:3]([H:12])([H:14])[C@:5]([C:6](=[O:7])[H:15])([H:13])[C:4]1)([H:8])([H:9])[H:10]"
C       -1.49211541      -0.91040384      -1.28040126
C       -0.73533095       0.24398692      -0.64807114
C       -0.63265516       0.26646147       0.88627242
C        0.73936345       0.27375445      -0.91286563
C        1.26692816       0.56925697       0.29557910
C        2.56103515       0.28903801       0.92974042
O        2.71341215      -0.39714290       1.90548132
H       -2.54721462      -0.87438712      -1.00202261
H       -1.40641863      -0.86502617      -2.36639176
H       -1.08245836      -1.86858652      -0.95613496
H       -1.12983944       1.20270428      -1.00420653
H       -0.53081463      -0.72178201       1.33119218
H        0.30364420       1.33371668       1.06149465
H       -1.44809432       0.77384679       1.40513601
H        3.42055843       0.68456298       0.35519778
15
Frame=11 idx=010269 GeodesicLength=0.9477087717412576 rxn_smarts="[C:1]([C:2]([C:3]([H:12])([H:13])[H:14])([C:4]#[C:5][C:6](=[O:7])[H:15])[H:11])([H:8])([H:9])[H:10]>>[C:1]([C@@:2]1([H:11])[C:3]([H:12])([H:14])[C@:5]([C:6](=[O:7])[H:15])([H:13])[C:4]1)([H:8])([H:9])[H:10]"
C       -1.48751408      -0.91454432      -1.27763552
C       -0.73713070       0.24332840      -0.64411540
C       -0.64732749       0.27993522       0.89161743
C        0.73678803       0.27529490      -0.89902620
C        1.27587043       0.56537539       0.30405266
C        2.57778738       0.28060700       0.92239606
O        2.74758573      -0.45380495       1.85899544
H       -2.54522516      -0.87447033      -1.01012581
H       -1.38998264      -0.87739051      -2.36299068
H       -1.08301817      -1.87083304      -0.94164363
H       -1.12653814       1.20083219      -1.00964664
H       -0.55507235      -0.70687311       1.34300127
H        0.28729514       1.35576445       1.07128017
H       -1.48200382       0.77798036       1.38800694
H        3.42848583       0.71879834       0.36583392
15
Frame=12 idx=010269 GeodesicLength=1.03465533254749 rxn_smarts="[C:1]([C:2]([C:3]([H:12])([H:13])[H:14])([C:4]#[C:5][C:6](=[O:7])[H:15])[H:11])([H:8])([H:9])[H:10]>>[C:1]([C@@:2]1([H:11])[C:3]([H:12])([H:14])[C@:5]([C:6](=[O:7])[H:15])([H:13])[C:4]1)([H:8])([H:9])[H:10]"
C       -1.48258478      -0.91869658      -1.27467696
C       -0.73897355       0.24281864      -0.63991947
C       -0.66252964       0.29381934       0.89699968
C        0.73416532       0.27726189      -0.88458884
C        1.28483711       0.56080066       0.31320059
C        2.59473638       0.27146343       0.91483813
O        2.78304915      -0.50917631       1.80916710
H       -2.54286858      -0.87478950      -1.01838181
H       -1.37292797      -0.88980868      -2.35917038
H       -1.08331015      -1.87289917      -0.92685211
H       -1.12323813       1.19896079      -1.01495830
H       -0.57989003      -0.69147672       1.35475515
H        0.26986674       1.37874790       1.08096164
H       -1.51613435       0.78167424       1.37037953
H        3.43580250       0.75130008       0.37824604
15
Frame=13 idx=010269 GeodesicLength=1.1216846645366159 rxn_smarts="[C:1]([C:2]([C:3]([H:12])([H:13])[H:14])([C:4]#[C:5][C:6](=[O:7])[H:15])[H:11])([H:8])([H:9])[H:10]>>[C:1]([C@@:2]1([H:11])[C:3]([H:12])([H:14])[C@:5]([C:6](=[O:7])[H:15])([H:13])[C:4]1)([H:8])([H:9])[H:10]"
C       -1.47730595      -0.92288243      -1.27149905
C       -0.74085278       0.24246824      -0.63548102
C       -0.67826153       0.30815612       0.90241543
C        0.73148877       0.27968386      -0.86955532
C        1.29383120       0.55546295       0.32303601
C        2.61186983       0.26146257       0.90696502
O        2.81964004      -0.56327096       1.75585789
H       -2.54010969      -0.87538839      -1.02674442
H       -1.35524049      -0.90230641      -2.35490404
H       -1.08330642      -1.87480322      -0.91173151
H       -1.11993015       1.19709891      -1.02015073
H       -0.60526409      -0.67555508       1.36646220
H        0.25131537       1.40275970       1.09047183
H       -1.55042447       0.78497283       1.35227360
H        3.44255037       0.78214131       0.39258411
15
Frame=14 idx=010269 GeodesicLength=1.2087816586404283 rxn_smarts="[C:1]([C:2]([C:3]([H:12])([H:13])[H:14])([C:4]#[C:5][C:6](=[O:7])[H:15])[H:11])([H:8])([H:9])[H:10]>>[C:1]([C@@:2]1([H:11])[C:3]([H:12])([H:14])[C@:5]([C:6](=[O:7])[H:15])([H:13])[C:4]1)([H:8])([H:9])[H:10]"
C       -1.47167283      -0.92710121      -1.26807358
C       -0.74276241       0.24226648      -0.63078938
C       -0.69455779       0.32296263       0.90784548
C        0.72876580       0.28252735      -0.85385963
C        1.30284119       0.54922738       0.33362618
C        2.62921321       0.25060602       0.89875059
O        2.85740890      -0.61604468       1.69881176
H       -2.53694570      -0.87623410      -1.03523794
H       -1.33687054      -0.91491206      -2.35013988
H       -1.08304498      -1.87653521      -0.89621558
H       -1.11657495       1.19522525      -1.02524397
H       -0.63123646      -0.65907328       1.37812674
H        0.23156763       1.42783648       1.09974853
H       -1.58485380       0.78791772       1.33364839
H        3.44872272       0.81133124       0.40900229
15
Frame=15 idx=010269 GeodesicLength=1.2959330429935567 rxn_smarts="[C:1]([C:2]([C:3]([H:12])([H:13])[H:14])([C:4]#[C:5][C:6](=[O:7])[H:15])[H:11])([H:8])([H:9])[H:10]>>[C:1]([C@@:2]1([H:11])[C:3]([H:12])([H:14])[C@:5]([C:6](=[O:7])[H:15])([H:13])[C:4]1)([H:8])([H:9])[H:10]"
C       -1.46566484      -0.93136607      -1.26436950
C       -0.74469440       0.24221719      -0.62583738
C       -0.71143301       0.33827210       0.91327772
C        0.72599782       0.28580160      -0.83747261
C        1.31186086       0.54197698       0.34500672
C        2.64676679       0.23881085       0.89010850
O        2.89628194      -0.66742365       1.63779131
H       -2.53334801      -0.87734445      -1.04383916
H       -1.31778191      -0.92765081      -2.34483451
H       -1.08251711      -1.87810114      -0.88025783
H       -1.11314964       1.19333763      -1.03025030
H       -0.65782185      -0.64199392       1.38975400
H        0.21055733       1.45405520       1.10871509
H       -1.61938033       0.79055267       1.31450330
H        3.45432634       0.83885581       0.42770466
15
Frame=16 idx=010269 GeodesicLength=1.3831396098745654 rxn_smarts="[C:1]([C:2]([C:3]([H:12])([H:13])[H:14])([C:4]#[C:5][C:6](=[O:7])[H:15])[H:11])([H:8])([H:9])[H:10]>>[C:1]([C@@:2]1([H:11])[C:3]([H:12])([H:14])[C@:5]([C:6](=[O:7])[H:15])([H:13])[C:4]1)([H:8])([H:9])[H:10]"
C       -1.45929119      -0.93568234      -1.26035228
C       -0.74663304       0.24230194      -0.62061853
C       -0.72891877       0.35411170       0.91868707
C        0.72320040       0.28943221      -0.82032676
C        1.32087832       0.53349078       0.35725011
C        2.66455815       0.22604680       0.88098409
O        2.93637179      -0.71731058       1.57238928
H       -2.52932247      -0.87866804      -1.05256866
H       -1.29793216      -0.94057288      -2.33892756
H       -1.08180277      -1.87950360      -0.86377678
H       -1.10957593       1.19141456      -1.03520384
H       -0.68508901      -0.62427198       1.40135325
H        0.18822926       1.48145227       1.11728448
H       -1.65397029       0.79295925       1.29479319
H        3.45929770       0.86479989       0.44903293
