13
Frame=0 idx=005992 GeodesicLength=0.0 rxn_smarts="[C:1]([C@@:2]1([C:5]#[C:6][H:13])[C:3]([H:10])([H:11])[N:4]1[H:12])([H:7])([H:8])[H:9]>>[C:1]([C:2]1=[C:5]=[C:6]([H:13])[N:4]([H:12])[C:3]1([H:10])[H:11])([H:7])([H:8])[H:9]"
C       -0.00654651       1.40226764      -0.76615153
C        0.28583536       0.34395855       0.24825721
C       -0.86225717      -0.24546575       0.95441633
N       -0.73118924      -1.19944843      -0.13853195
C        1.68328552      -0.02445930       0.49456719
C        1.31583981      -1.08913355      -0.12236938
H        0.78820721       1.48393057      -1.50320115
H       -0.07006028       2.34861531      -0.22057868
H       -0.96112613       1.21964238      -1.25783585
H       -0.66854660      -0.61121253       1.96141527
H       -1.77044187       0.35124897       0.89650462
H       -0.50445413      -2.09786891       0.27502964
H        1.50145397      -1.88207498      -0.82152168
13
Frame=1 idx=005992 GeodesicLength=0.07341781473624373 rxn_smarts="[C:1]([C@@:2]1([C:5]#[C:6][H:13])[C:3]([H:10])([H:11])[N:4]1[H:12])([H:7])([H:8])[H:9]>>[C:1]([C:2]1=[C:5]=[C:6]([H:13])[N:4]([H:12])[C:3]1([H:10])[H:11])([H:7])([H:8])[H:9]"
C       -0.01109873       1.41787359      -0.76410689
C        0.28032790       0.34564757       0.23567856
C       -0.86251639      -0.24416420       0.95160722
N       -0.71854483      -1.20518874      -0.13239645
C        1.67242078      -0.03090691       0.47710735
C        1.32419116      -1.11061805      -0.12680167
H        0.77892592       1.50093706      -1.50627662
H       -0.06497044       2.35986366      -0.21014418
H       -0.96936588       1.24625653      -1.25294818
H       -0.66677295      -0.59605342       1.96297625
H       -1.77899709       0.33909510       0.88775605
H       -0.51563710      -2.10746010       0.28363712
H        1.53203765      -1.91528208      -0.80608857
13
Frame=2 idx=005992 GeodesicLength=0.1467227809731051 rxn_smarts="[C:1]([C@@:2]1([C:5]#[C:6][H:13])[C:3]([H:10])([H:11])[N:4]1[H:12])([H:7])([H:8])[H:9]>>[C:1]([C:2]1=[C:5]=[C:6]([H:13])[N:4]([H:12])[C:3]1([H:10])[H:11])([H:7])([H:8])[H:9]"
C       -0.01584479       1.43371049      -0.76193256
C        0.27460917       0.34734044       0.22258715
C       -0.86271262      -0.24291670       0.94852239
N       -0.70577760      -1.21097679      -0.12626876
C        1.66140399      -0.03758581       0.45835066
C        1.33270729      -1.13269498      -0.13080448
H        0.76899177       1.51811632      -1.50963885
H       -0.05936266       2.37106484      -0.19939391
H       -0.97807347       1.27372800      -1.24729586
H       -0.66476271      -0.58067445       1.96410502
H       -1.78740127       0.32655733       0.87890639
H       -0.52731574      -2.11686231       0.29161194
H        1.56353863      -1.94880639      -0.78874914
13
Frame=3 idx=005992 GeodesicLength=0.2199379586790116 rxn_smarts="[C:1]([C@@:2]1([C:5]#[C:6][H:13])[C:3]([H:10])([H:11])[N:4]1[H:12])([H:7])([H:8])[H:9]>>[C:1]([C:2]1=[C:5]=[C:6]([H:13])[N:4]([H:12])[C:3]1([H:10])[H:11])([H:7])([H:8])[H:9]"
C       -0.02080578       1.44981875      -0.75961877
C        0.26866528       0.34903368       0.20891040
C       -0.86282239      -0.24173750       0.94513829
N       -0.69289407      -1.21681238      -0.12019507
C        1.65022423      -0.04450390       0.43813184
C        1.34139274      -1.15536921      -0.13438334
H        0.75832792       1.53554722      -1.51332095
H       -0.05319510       2.38221961      -0.18829213
H       -0.98728267       1.30212727      -1.24079068
H       -0.66245821      -0.56510384       1.96476150
H       -1.79562637       0.31362129       0.86998365
H       -0.53952468      -2.12607475       0.29883662
H        1.59599909      -1.98276624      -0.76916136
13
Frame=4 idx=005992 GeodesicLength=0.2930525199875673 rxn_smarts="[C:1]([C@@:2]1([C:5]#[C:6][H:13])[C:3]([H:10])([H:11])[N:4]1[H:12])([H:7])([H:8])[H:9]>>[C:1]([C:2]1=[C:5]=[C:6]([H:13])[N:4]([H:12])[C:3]1([H:10])[H:11])([H:7])([H:8])[H:9]"
C       -0.02598470       1.46619265      -0.75715843
C        0.26247615       0.35070442       0.19459214
C       -0.86283267      -0.24063818       0.94143858
N       -0.67990671      -1.22270184      -0.11419186
C        1.63885380      -0.05170418       0.41632379
C        1.35024768      -1.17867065      -0.13747742
H        0.74687462       1.55323677      -1.51734908
H       -0.04640018       2.39328501      -0.17683363
H       -0.99700489       1.33148684      -1.23334211
H       -0.65981810      -0.54934014       1.96491569
H       -1.80364661       0.30028983       0.86101151
H       -0.55230323      -2.13509404       0.30521683
H        1.62944484      -2.01704649      -0.74714599
13
Frame=5 idx=005992 GeodesicLength=0.36605971135595183 rxn_smarts="[C:1]([C@@:2]1([C:5]#[C:6][H:13])[C:3]([H:10])([H:11])[N:4]1[H:12])([H:7])([H:8])[H:9]>>[C:1]([C:2]1=[C:5]=[C:6]([H:13])[N:4]([H:12])[C:3]1([H:10])[H:11])([H:7])([H:8])[H:9]"
C       -0.03139279       1.48284257      -0.75453913
C        0.25602004       0.35233345       0.17955863
C       -0.86271899      -0.23963249       0.93739958
N       -0.66682886      -1.22864718      -0.10829428
C        1.62726229      -0.05922849       0.39275313
C        1.35927057      -1.20261249      -0.14005231
H        0.73455350       1.57122764      -1.52174666
H       -0.03891339       2.40422192      -0.16500002
H       -1.00725633       1.36185411      -1.22484517
H       -0.65677806      -0.53339831       1.96452426
H       -1.81142852       0.28656014       0.85201918
H       -0.56568817      -2.14391136       0.31063089
H        1.66389872      -2.05160950      -0.72240810
13
Frame=6 idx=005992 GeodesicLength=0.4389474560614413 rxn_smarts="[C:1]([C@@:2]1([C:5]#[C:6][H:13])[C:3]([H:10])([H:11])[N:4]1[H:12])([H:7])([H:8])[H:9]>>[C:1]([C:2]1=[C:5]=[C:6]([H:13])[N:4]([H:12])[C:3]1([H:10])[H:11])([H:7])([H:8])[H:9]"
C       -0.03703065       1.49976268      -0.75175037
C        0.24927031       0.35389255       0.16373814
C       -0.86246135      -0.23873605       0.93300271
N       -0.65367935      -1.23466020      -0.10252784
C        1.61540771      -0.06713692       0.36724459
C        1.36845893      -1.22721530      -0.14204501
H        0.72129392       1.58954235      -1.52653711
H       -0.03065301       2.41497431      -0.15278612
H       -1.01803777       1.39326212      -1.21518979
H       -0.65327811      -0.51728512       1.96355061
H       -1.81894156       0.27243434       0.84304026
H       -0.57971983      -2.15252285       0.31496171
H        1.69937076      -2.08631192      -0.69470177
13
Frame=7 idx=005992 GeodesicLength=0.5117046077601328 rxn_smarts="[C:1]([C@@:2]1([C:5]#[C:6][H:13])[C:3]([H:10])([H:11])[N:4]1[H:12])([H:7])([H:8])[H:9]>>[C:1]([C:2]1=[C:5]=[C:6]([H:13])[N:4]([H:12])[C:3]1([H:10])[H:11])([H:7])([H:8])[H:9]"
C       -0.04289049       1.51693778      -0.74878166
C        0.24219485       0.35534648       0.14705659
C       -0.86204344      -0.23796627       0.92823250
N       -0.64048265      -1.24076304      -0.09691282
C        1.60323668      -0.07550495       0.33960892
C        1.37781058      -1.25249996      -0.14337180
H        0.70702944       1.60819519      -1.53174300
H       -0.02152080       2.42547369      -0.14019419
H       -1.02933659       1.42573631      -1.20425708
H       -0.64926023      -0.50100102       1.96196171
H       -1.82615997       0.25791640       0.83411230
H       -0.59444116      -2.16092944       0.31809440
H        1.73586379      -2.12094118      -0.66380589
13
Frame=8 idx=005992 GeodesicLength=0.5843064339573297 rxn_smarts="[C:1]([C@@:2]1([C:5]#[C:6][H:13])[C:3]([H:10])([H:11])[N:4]1[H:12])([H:7])([H:8])[H:9]>>[C:1]([C:2]1=[C:5]=[C:6]([H:13])[N:4]([H:12])[C:3]1([H:10])[H:11])([H:7])([H:8])[H:9]"
C       -0.04898130       1.53437234      -0.74560903
C        0.23475770       0.35666476       0.12941049
C       -0.86142264      -0.23734346       0.92305463
N       -0.62726193      -1.24696029      -0.09150368
C        1.59068256      -0.08441169       0.30958202
C        1.38731668      -1.27844551      -0.14400249
H        0.69165729       1.62725561      -1.53736876
H       -0.01143110       2.43564234      -0.12720174
H       -1.04114809       1.45932122      -1.19190476
H       -0.64461600      -0.48457073       1.95969400
H       -1.83303412       0.24300111       0.82527572
H       -0.60987729      -2.16910930       0.31986811
H        1.77335825      -2.15541640      -0.62929453
13
Frame=9 idx=005992 GeodesicLength=0.6567415405791477 rxn_smarts="[C:1]([C@@:2]1([C:5]#[C:6][H:13])[C:3]([H:10])([H:11])[N:4]1[H:12])([H:7])([H:8])[H:9]>>[C:1]([C:2]1=[C:5]=[C:6]([H:13])[N:4]([H:12])[C:3]1([H:10])[H:11])([H:7])([H:8])[H:9]"
C       -0.05527333       1.55202822      -0.74222203
C        0.22691031       0.35779383       0.11071799
C       -0.86059151      -0.23689318       0.91745825
N       -0.61405667      -1.25329800      -0.08631362
C        1.57765449      -0.09397278       0.27693718
C        1.39697485      -1.30506387      -0.14380204
H        0.67511338       1.64671104      -1.54344244
H       -0.00022887       2.44537873      -0.11383089
H       -1.05342932       1.49403495      -1.17798112
H       -0.63929126      -0.46798769       1.95671902
H       -1.83954690       0.22769474       0.81657895
H       -0.62607261      -2.17707631       0.32016692
H        1.81183743      -2.18934968      -0.59098618
13
Frame=10 idx=005992 GeodesicLength=0.7289827433306686 rxn_smarts="[C:1]([C@@:2]1([C:5]#[C:6][H:13])[C:3]([H:10])([H:11])[N:4]1[H:12])([H:7])([H:8])[H:9]>>[C:1]([C:2]1=[C:5]=[C:6]([H:13])[N:4]([H:12])[C:3]1([H:10])[H:11])([H:7])([H:8])[H:9]"
C       -0.06172918       1.56985075      -0.73860309
C        0.21859357       0.35866712       0.09089173
C       -0.85954187      -0.23664099       0.91142536
N       -0.60091306      -1.25982337      -0.08135107
C        1.56403497      -0.10433718       0.24142265
C        1.40678183      -1.33234517      -0.14260799
H        0.65732850       1.66653667      -1.54997406
H        0.01226315       2.45454694      -0.10011124
H       -1.06611849       1.52989113      -1.16231320
H       -0.63322374      -0.45124002       1.95299228
H       -1.84568126       0.21200783       0.80806323
H       -0.64306224      -2.18483318       0.31887795
H        1.85126780      -2.22228052      -0.54871255
13
Frame=11 idx=005992 GeodesicLength=0.8010551318814702 rxn_smarts="[C:1]([C@@:2]1([C:5]#[C:6][H:13])[C:3]([H:10])([H:11])[N:4]1[H:12])([H:7])([H:8])[H:9]>>[C:1]([C:2]1=[C:5]=[C:6]([H:13])[N:4]([H:12])[C:3]1([H:10])[H:11])([H:7])([H:8])[H:9]"
C       -0.06833693       1.58786940      -0.73471849
C        0.20973468       0.35924593       0.06977009
C       -0.85823192      -0.23662804       0.90492850
N       -0.58788892      -1.26658854      -0.07670693
C        1.54967112      -0.11563181       0.20259986
C        1.41671443      -1.36018904      -0.14047474
H        0.63818733       1.68688005      -1.55697997
H        0.02619171       2.46306174      -0.08600206
H       -1.07915659       1.56695651      -1.14470305
H       -0.62627876      -0.43436757       1.94846173
H       -1.85139340       0.19591180       0.79982516
H       -0.66084423      -2.19240212       0.31581135
H        1.89163150      -2.25411831      -0.50181146
13
Frame=12 idx=005992 GeodesicLength=0.8729071345427394 rxn_smarts="[C:1]([C@@:2]1([C:5]#[C:6][H:13])[C:3]([H:10])([H:11])[N:4]1[H:12])([H:7])([H:8])[H:9]>>[C:1]([C:2]1=[C:5]=[C:6]([H:13])[N:4]([H:12])[C:3]1([H:10])[H:11])([H:7])([H:8])[H:9]"
C       -0.07492884       1.60588465      -0.73058243
C        0.20024350       0.35940091       0.04738579
C       -0.85677968      -0.23686379       0.89801874
N       -0.57505549      -1.27374128      -0.07219278
C        1.53436752      -0.12811759       0.16047500
C        1.42681838      -1.38859091      -0.13685476
H        0.61784136       1.70749205      -1.56442415
H        0.04182283       2.47069610      -0.07167462
H       -1.09229218       1.60507937      -1.12507725
H       -0.61861971      -0.41722521       1.94318216
H       -1.85678984       0.17945226       0.79184968
H       -0.67943116      -2.19985458       0.31112693
H        1.93280333      -2.28361196      -0.45123232
13
Frame=13 idx=005992 GeodesicLength=0.9442730835868813 rxn_smarts="[C:1]([C@@:2]1([C:5]#[C:6][H:13])[C:3]([H:10])([H:11])[N:4]1[H:12])([H:7])([H:8])[H:9]>>[C:1]([C:2]1=[C:5]=[C:6]([H:13])[N:4]([H:12])[C:3]1([H:10])[H:11])([H:7])([H:8])[H:9]"
C       -0.08141776       1.62358204      -0.72611698
C        0.18997613       0.35891208       0.02368913
C       -0.85517359      -0.23734563       0.89056656
N       -0.56249721      -1.28122736      -0.06771441
C        1.51778544      -0.14220815       0.11493012
C        1.43700306      -1.41740956      -0.13116388
H        0.59608619       1.72795697      -1.57218106
H        0.05964839       2.47686488      -0.05723991
H       -1.10538314       1.64426942      -1.10306584
H       -0.61015408      -0.39971160       1.93691460
H       -1.86180426       0.16271667       0.78395108
H       -0.69885125      -2.20696248       0.30478792
H        1.97478208      -2.30943727      -0.39735734
13
Frame=14 idx=005992 GeodesicLength=1.0153185862247656 rxn_smarts="[C:1]([C@@:2]1([C:5]#[C:6][H:13])[C:3]([H:10])([H:11])[N:4]1[H:12])([H:7])([H:8])[H:9]>>[C:1]([C:2]1=[C:5]=[C:6]([H:13])[N:4]([H:12])[C:3]1([H:10])[H:11])([H:7])([H:8])[H:9]"
C       -0.08758394       1.64099149      -0.72136468
C        0.17881701       0.35777824      -0.00134395
C       -0.85361127      -0.23809842       0.88275954
N       -0.55028678      -1.28932898      -0.06311930
C        1.49964458      -0.15798064       0.06579894
C        1.44735272      -1.44627027      -0.12332344
H        0.57338531       1.74853603      -1.58021117
H        0.07957362       2.48166220      -0.04273566
H       -1.11794011       1.68426684      -1.07891188
H       -0.60122451      -0.38169367       1.92995504
H       -1.86663631       0.14561590       0.77632277
H       -0.71886024      -2.21402801       0.29712346
H        2.01736992      -2.33145070      -0.34094967
13
Frame=15 idx=005992 GeodesicLength=1.086130157626459 rxn_smarts="[C:1]([C@@:2]1([C:5]#[C:6][H:13])[C:3]([H:10])([H:11])[N:4]1[H:12])([H:7])([H:8])[H:9]>>[C:1]([C:2]1=[C:5]=[C:6]([H:13])[N:4]([H:12])[C:3]1([H:10])[H:11])([H:7])([H:8])[H:9]"
C       -0.09351061       1.65823152      -0.71618545
C        0.16654328       0.35587198      -0.02820347
C       -0.85192817      -0.23927357       0.87435145
N       -0.53870544      -1.29805873      -0.05884440
C        1.47954283      -0.17587569       0.01186378
C        1.45772315      -1.47482126      -0.11428542
H        0.54904045       1.76948066      -1.58863267
H        0.10234190       2.48475986      -0.02804707
H       -1.13015477       1.72572315      -1.05162759
H       -0.59120032      -0.36346387       1.92184823
H       -1.87115982       0.12816411       0.76916824
H       -0.73953856      -2.22107672       0.28749383
H        2.06100609      -2.34966142      -0.27889945
13
Frame=16 idx=005992 GeodesicLength=1.1565439023546016 rxn_smarts="[C:1]([C@@:2]1([C:5]#[C:6][H:13])[C:3]([H:10])([H:11])[N:4]1[H:12])([H:7])([H:8])[H:9]>>[C:1]([C:2]1=[C:5]=[C:6]([H:13])[N:4]([H:12])[C:3]1([H:10])[H:11])([H:7])([H:8])[H:9]"
C       -0.09881040       1.67490093      -0.71054591
C        0.15290116       0.35292145      -0.05683998
C       -0.85039879      -0.24086119       0.86538676
N       -0.52793930      -1.30763454      -0.05451753
C        1.45689172      -0.19635954      -0.04658027
C        1.46807162      -1.50258849      -0.10368373
H        0.52351101       1.79039616      -1.59718106
H        0.12836154       2.48556990      -0.01335540
H       -1.14130655       1.76832085      -1.02125150
H       -0.58049868      -0.34474275       1.91263529
H       -1.87559615       0.11038797       0.76232070
H       -0.76065578      -2.22821382       0.27658748
H        2.10546859      -2.36209693      -0.21297484
