19
Frame=0 idx=007421 GeodesicLength=0.0 rxn_smarts="[C:1]([C@:2]1([H:11])[C:3]([H:12])([H:13])[C@@:4]([C:5]([H:15])([H:16])[H:17])([H:14])[C:6]([H:18])=[C:7]1[H:19])([H:8])([H:9])[H:10]>>[C:1]([C@@:2]1([H:11])[C:3]([H:12])([H:13])[C@:4]([C:5]([H:15])([H:16])[H:17])([H:14])[C:6]([H:18])([H:19])[C:7]1)([H:8])([H:9])[H:10]"
C       -2.55674814      -0.30064886      -0.01537669
C       -1.25809320       0.48912897       0.00462887
C       -0.13668138      -0.13855812       0.85759443
C        1.16175597       0.39269394       0.24317510
C        2.36761196      -0.52806691       0.35286985
C        0.70621941       0.68912062      -1.17402221
C       -0.67234296       0.80746155      -1.36132267
H       -2.39576676      -1.29436738      -0.44218784
H       -2.96013553      -0.43096528       0.99187712
H       -3.30512490       0.20471251      -0.62617879
H       -1.47252376       1.49660917       0.39253013
H       -0.22915704       0.07812640       1.92325654
H       -0.16681611      -1.22965200       0.74519613
H        1.41326078       1.36325172       0.69111141
H        2.16320038      -1.49182876      -0.12112719
H        2.62114365      -0.71904341       1.39728064
H        3.24729300      -0.09580266      -0.12876140
H        1.42184685       0.93394731      -1.95847291
H        0.05105780      -0.22611889      -1.77207060
19
Frame=1 idx=007421 GeodesicLength=0.03765177840790391 rxn_smarts="[C:1]([C@:2]1([H:11])[C:3]([H:12])([H:13])[C@@:4]([C:5]([H:15])([H:16])[H:17])([H:14])[C:6]([H:18])=[C:7]1[H:19])([H:8])([H:9])[H:10]>>[C:1]([C@@:2]1([H:11])[C:3]([H:12])([H:13])[C@:4]([C:5]([H:15])([H:16])[H:17])([H:14])[C:6]([H:18])([H:19])[C:7]1)([H:8])([H:9])[H:10]"
C       -2.55759476      -0.30093348      -0.01388490
C       -1.25801171       0.48722647       0.00541050
C       -0.13606500      -0.13900265       0.85822852
C        1.16203063       0.39186866       0.24242704
C        2.36766769      -0.52889895       0.35428301
C        0.70807837       0.68547884      -1.17601845
C       -0.67073649       0.80588145      -1.35748029
H       -2.39688378      -1.29632020      -0.43677711
H       -2.96243870      -0.42685804       0.99329532
H       -3.30448943       0.20269984      -0.62801584
H       -1.47097231       1.49634406       0.39114071
H       -0.22841447       0.07912189       1.92362179
H       -0.16625311      -1.23018568       0.74740531
H        1.41341055       1.36224695       0.69082960
H        2.16343272      -1.49334886      -0.11838287
H        2.62071499      -0.71826051       1.39916919
H        3.24776620      -0.09731046      -0.12721770
H        1.42300259       0.94727611      -1.95529058
H        0.04575601      -0.22702543      -1.79274327
19
Frame=2 idx=007421 GeodesicLength=0.07529376428469414 rxn_smarts="[C:1]([C@:2]1([H:11])[C:3]([H:12])([H:13])[C@@:4]([C:5]([H:15])([H:16])[H:17])([H:14])[C:6]([H:18])=[C:7]1[H:19])([H:8])([H:9])[H:10]>>[C:1]([C@@:2]1([H:11])[C:3]([H:12])([H:13])[C@:4]([C:5]([H:15])([H:16])[H:17])([H:14])[C:6]([H:18])([H:19])[C:7]1)([H:8])([H:9])[H:10]"
C       -2.55840774      -0.30125138      -0.01238689
C       -1.25790649       0.48530375       0.00618434
C       -0.13543265      -0.13941711       0.85890210
C        1.16232411       0.39102914       0.24168855
C        2.36772050      -0.52976996       0.35571622
C        0.70997714       0.68176327      -1.17803553
C       -0.66908083       0.80414557      -1.35367158
H       -2.39795367      -1.29831595      -0.43129048
H       -2.96472410      -0.42272232       0.99469961
H       -3.30380831       0.20059263      -0.62988507
H       -1.46940310       1.49607786       0.38966400
H       -0.22766153       0.08021048       1.92401035
H       -0.16567553      -1.23069270       0.74970685
H        1.41359545       1.36123980       0.69052032
H        2.16363250      -1.49490145      -0.11561478
H        2.62028405      -0.71750690       1.40107625
H        3.24824522      -0.09888281      -0.12566012
H        1.42402867       0.96062735      -1.95186856
H        0.04024630      -0.22752929      -1.81375557
19
Frame=3 idx=007421 GeodesicLength=0.11293074613887784 rxn_smarts="[C:1]([C@:2]1([H:11])[C:3]([H:12])([H:13])[C@@:4]([C:5]([H:15])([H:16])[H:17])([H:14])[C:6]([H:18])=[C:7]1[H:19])([H:8])([H:9])[H:10]>>[C:1]([C@@:2]1([H:11])[C:3]([H:12])([H:13])[C@:4]([C:5]([H:15])([H:16])[H:17])([H:14])[C:6]([H:18])([H:19])[C:7]1)([H:8])([H:9])[H:10]"
C       -2.55918580      -0.30160372      -0.01088371
C       -1.25777695       0.48336069       0.00695063
C       -0.13478370      -0.13980060       0.85961586
C        1.16263680       0.39017510       0.24095906
C        2.36777098      -0.53067959       0.35717107
C        0.71191635       0.67797279      -1.18007466
C       -0.66737555       0.80225486      -1.34989574
H       -2.39897435      -1.30035386      -0.42573069
H       -2.96699023      -0.41856180       0.99608779
H       -3.30308065       0.19838932      -0.63178580
H       -1.46781627       1.49580975       0.38810009
H       -0.22689746       0.08139449       1.92442235
H       -0.16508278      -1.23117208       0.75210312
H        1.41381595       1.36023042       0.69018220
H        2.16380050      -1.49648696      -0.11281983
H        2.61985150      -0.71678009       1.40300371
H        3.24873038      -0.10052015      -0.12408792
H        1.42491981       0.97398037      -1.94820557
H        0.03452148      -0.22760891      -1.83511196
19
Frame=4 idx=007421 GeodesicLength=0.15056341505480814 rxn_smarts="[C:1]([C@:2]1([H:11])[C:3]([H:12])([H:13])[C@@:4]([C:5]([H:15])([H:16])[H:17])([H:14])[C:6]([H:18])=[C:7]1[H:19])([H:8])([H:9])[H:10]>>[C:1]([C@@:2]1([H:11])[C:3]([H:12])([H:13])[C@:4]([C:5]([H:15])([H:16])[H:17])([H:14])[C:6]([H:18])([H:19])[C:7]1)([H:8])([H:9])[H:10]"
C       -2.55992777      -0.30199214      -0.00937617
C       -1.25762251       0.48139676       0.00770951
C       -0.13411755      -0.14015227       0.86037064
C        1.16296908       0.38930609       0.24023810
C        2.36781969      -0.53162768       0.35864938
C        0.71389662       0.67410628      -1.18213669
C       -0.66562031       0.80020878      -1.34615236
H       -2.39994394      -1.30243371      -0.42009963
H       -2.96923571      -0.41437977       0.99745793
H       -3.30230567       0.19608794      -0.63371736
H       -1.46621205       1.49553873       0.38644842
H       -0.22612163       0.08267648       1.92485795
H       -0.16447421      -1.23162288       0.75459691
H        1.41407252       1.35921888       0.68981394
H        2.16393749      -1.49810592      -0.10999482
H        2.61941790      -0.71607780       1.40495368
H        3.24922214      -0.10222307      -0.12250002
H        1.42567219       0.98731360      -1.94430190
H        0.02857375      -0.22723830      -1.85681749
19
Frame=5 idx=007421 GeodesicLength=0.1881955562624531 rxn_smarts="[C:1]([C@:2]1([H:11])[C:3]([H:12])([H:13])[C@@:4]([C:5]([H:15])([H:16])[H:17])([H:14])[C:6]([H:18])=[C:7]1[H:19])([H:8])([H:9])[H:10]>>[C:1]([C@@:2]1([H:11])[C:3]([H:12])([H:13])[C@:4]([C:5]([H:15])([H:16])[H:17])([H:14])[C:6]([H:18])([H:19])[C:7]1)([H:8])([H:9])[H:10]"
C       -2.56063261      -0.30241817      -0.00786469
C       -1.25744257       0.47941120       0.00846084
C       -0.13343356      -0.14047131       0.86116709
C        1.16332144       0.38842172       0.23952536
C        2.36786727      -0.53261406       0.36015289
C        0.71591899       0.67016358      -1.18422222
C       -0.66381464       0.79800556      -1.34244207
H       -2.40086073      -1.30455592      -0.41439866
H       -2.97145937      -0.41017902       0.99880879
H       -3.30148265       0.19368630      -0.63567927
H       -1.46459027       1.49526398       0.38470675
H       -0.22533356       0.08405900       1.92531710
H       -0.16384909      -1.23204421       0.75719085
H        1.41436564       1.35820506       0.68941484
H        2.16404427      -1.49975866      -0.10713710
H        2.61898366      -0.71539828       1.40692813
H        3.24972107      -0.10399199      -0.12089500
H        1.42628301       1.00060674      -1.94015813
H        0.02239367      -0.22639152      -1.87887550
19
Frame=6 idx=007421 GeodesicLength=0.22583184569390202 rxn_smarts="[C:1]([C@:2]1([H:11])[C:3]([H:12])([H:13])[C@@:4]([C:5]([H:15])([H:16])[H:17])([H:14])[C:6]([H:18])=[C:7]1[H:19])([H:8])([H:9])[H:10]>>[C:1]([C@@:2]1([H:11])[C:3]([H:12])([H:13])[C@:4]([C:5]([H:15])([H:16])[H:17])([H:14])[C:6]([H:18])([H:19])[C:7]1)([H:8])([H:9])[H:10]"
C       -2.56129922      -0.30288360      -0.00634991
C       -1.25723668       0.47740341       0.00920488
C       -0.13273124      -0.14075693       0.86200611
C        1.16369427       0.38752195       0.23882115
C        2.36791430      -0.53363819       0.36168372
C        0.71798412       0.66614560      -1.18633064
C       -0.66195855       0.79564489      -1.33876443
H       -2.40172279      -1.30672062      -0.40862945
H       -2.97366004      -0.40596301       1.00013854
H       -3.30061088       0.19118187      -0.63767072
H       -1.46295144       1.49498437       0.38287462
H       -0.22453303       0.08554404       1.92580007
H       -0.16320660      -1.23243508       0.75988737
H        1.41469565       1.35718912       0.68898507
H        2.16412178      -1.50144491      -0.10424410
H        2.61854905      -0.71473981       1.40892938
H        3.25022781      -0.10582667      -0.11927075
H        1.42675085       1.01383291      -1.93578087
H        0.01597264      -0.22503937      -1.90129003
19
Frame=7 idx=007421 GeodesicLength=0.26347349234731104 rxn_smarts="[C:1]([C@:2]1([H:11])[C:3]([H:12])([H:13])[C@@:4]([C:5]([H:15])([H:16])[H:17])([H:14])[C:6]([H:18])=[C:7]1[H:19])([H:8])([H:9])[H:10]>>[C:1]([C@@:2]1([H:11])[C:3]([H:12])([H:13])[C@:4]([C:5]([H:15])([H:16])[H:17])([H:14])[C:6]([H:18])([H:19])[C:7]1)([H:8])([H:9])[H:10]"
C       -2.56192670      -0.30339040      -0.00483210
C       -1.25700445       0.47537240       0.00994146
C       -0.13201014      -0.14100827       0.86288843
C        1.16408795       0.38660621       0.23812519
C        2.36796129      -0.53470002       0.36324378
C        0.72009254       0.66205184      -1.18846222
C       -0.66005180       0.79312461      -1.33511986
H       -2.40252854      -1.30892863      -0.40279243
H       -2.97583672      -0.40173431       1.00144604
H       -3.29968966       0.18857157      -0.63969141
H       -1.46129578       1.49469874       0.38094988
H       -0.22371975       0.08713435       1.92630677
H       -0.16254614      -1.23279461       0.76268944
H        1.41506296       1.35617089       0.68852365
H        2.16417076      -1.50316518      -0.10131273
H        2.61811429      -0.71410057       1.41095966
H        3.25074291      -0.10772771      -0.11762564
H        1.42707537       1.02697054      -1.93117424
H        0.00930161      -0.22315144      -1.92406365
19
Frame=8 idx=007421 GeodesicLength=0.3011253638832466 rxn_smarts="[C:1]([C@:2]1([H:11])[C:3]([H:12])([H:13])[C@@:4]([C:5]([H:15])([H:16])[H:17])([H:14])[C:6]([H:18])=[C:7]1[H:19])([H:8])([H:9])[H:10]>>[C:1]([C@@:2]1([H:11])[C:3]([H:12])([H:13])[C@:4]([C:5]([H:15])([H:16])[H:17])([H:14])[C:6]([H:18])([H:19])[C:7]1)([H:8])([H:9])[H:10]"
C       -2.56251412      -0.30394044      -0.00331183
C       -1.25674549       0.47331737       0.01067075
C       -0.13126973      -0.14122474       0.86381460
C        1.16450281       0.38567431       0.23743733
C        2.36800886      -0.53579888       0.36483514
C        0.72224473       0.65788308      -1.19061695
C       -0.65809461       0.79044403      -1.33150821
H       -2.40327620      -1.31118060      -0.39688879
H       -2.97798863      -0.39749570       1.00272985
H       -3.29871840       0.18585299      -0.64174076
H       -1.45962363       1.49440593       0.37893148
H       -0.22289336       0.08883190       1.92683713
H       -0.16186690      -1.23312198       0.76559921
H        1.41546766       1.35515047       0.68803026
H        2.16419246      -1.50491917      -0.09834033
H        2.61767956      -0.71347855       1.41302107
H        3.25126688      -0.10969468      -0.11595752
H        1.42725465       1.03999164      -1.92634382
H        0.00237346      -0.22069697      -1.94719860
19
Frame=9 idx=007421 GeodesicLength=0.3387880118320353 rxn_smarts="[C:1]([C@:2]1([H:11])[C:3]([H:12])([H:13])[C@@:4]([C:5]([H:15])([H:16])[H:17])([H:14])[C:6]([H:18])=[C:7]1[H:19])([H:8])([H:9])[H:10]>>[C:1]([C@@:2]1([H:11])[C:3]([H:12])([H:13])[C@:4]([C:5]([H:15])([H:16])[H:17])([H:14])[C:6]([H:18])([H:19])[C:7]1)([H:8])([H:9])[H:10]"
C       -2.56306058      -0.30453599      -0.00178958
C       -1.25645965       0.47123739       0.01139318
C       -0.13050974      -0.14140531       0.86478594
C        1.16493906       0.38472604       0.23675809
C        2.36805737      -0.53693441       0.36646020
C        0.72444038       0.65363967      -1.19279361
C       -0.65608680       0.78760238      -1.32792879
H       -2.40396346      -1.31347793      -0.39092019
H       -2.98011504      -0.39325140       1.00398861
H       -3.29769648       0.18302313      -0.64381837
H       -1.45793589       1.49410451       0.37681868
H       -0.22205385       0.09063931       1.92739161
H       -0.16116827      -1.23341602       0.76862003
H        1.41591014       1.35412800       0.68750455
H        2.16418754      -1.50670694      -0.09532369
H        2.61724496      -0.71287191       1.41511640
H        3.25180035      -0.11172766      -0.11426424
H        1.42729032       1.05286701      -1.92130225
H       -0.00482035      -0.21763989      -1.97069657
19
Frame=10 idx=007421 GeodesicLength=0.37645696674944934 rxn_smarts="[C:1]([C@:2]1([H:11])[C:3]([H:12])([H:13])[C@@:4]([C:5]([H:15])([H:16])[H:17])([H:14])[C:6]([H:18])=[C:7]1[H:19])([H:8])([H:9])[H:10]>>[C:1]([C@@:2]1([H:11])[C:3]([H:12])([H:13])[C@:4]([C:5]([H:15])([H:16])[H:17])([H:14])[C:6]([H:18])([H:19])[C:7]1)([H:8])([H:9])[H:10]"
C       -2.56356551      -0.30517991      -0.00026452
C       -1.25614631       0.46912992       0.01210729
C       -0.12972971      -0.14154953       0.86580280
C        1.16539727       0.38376022       0.23608725
C        2.36810750      -0.53810706       0.36812141
C        0.72668125       0.64932073      -1.19499238
C       -0.65402843       0.78459113      -1.32438499
H       -2.40459008      -1.31582311      -0.38488246
H       -2.98221531      -0.38900103       1.00522237
H       -3.29662336       0.18007650      -0.64592371
H       -1.45623199       1.49379288       0.37460466
H       -0.22120143       0.09256007       1.92796943
H       -0.16044935      -1.23367618       0.77175554
H        1.41639058       1.35310287       0.68694565
H        2.16415713      -1.50852929      -0.09225961
H        2.61681023      -0.71227975       1.41724837
H        3.25234434      -0.11382757      -0.11254272
H        1.42718505       1.06557701      -1.91605415
H       -0.01229185      -0.21393789      -1.99456023
19
Frame=11 idx=007421 GeodesicLength=0.41414611056916983 rxn_smarts="[C:1]([C@:2]1([H:11])[C:3]([H:12])([H:13])[C@@:4]([C:5]([H:15])([H:16])[H:17])([H:14])[C:6]([H:18])=[C:7]1[H:19])([H:8])([H:9])[H:10]>>[C:1]([C@@:2]1([H:11])[C:3]([H:12])([H:13])[C@:4]([C:5]([H:15])([H:16])[H:17])([H:14])[C:6]([H:18])([H:19])[C:7]1)([H:8])([H:9])[H:10]"
C       -2.56402801      -0.30587410       0.00126262
C       -1.25580546       0.46699448       0.01281340
C       -0.12892943      -0.14165643       0.86686589
C        1.16587754       0.38277670       0.23542464
C        2.36815955      -0.53931606       0.36982071
C        0.72896654       0.64492671      -1.19721261
C       -0.65191979       0.78141221      -1.32087515
H       -2.40515383      -1.31821684      -0.37877756
H       -2.98428873      -0.38474858       1.00642909
H       -3.29549836       0.17701017      -0.64805687
H       -1.45451316       1.49346947       0.37229020
H       -0.22033591       0.09459641       1.92857055
H       -0.15970971      -1.23390124       0.77500819
H        1.41690918       1.35207524       0.68635290
H        2.16410208      -1.51038601      -0.08914520
H        2.61637524      -0.71169987       1.41941913
H        3.25289912      -0.11599394      -0.11079101
H        1.42694117       1.07809348      -1.91061192
H       -0.02004805      -0.20956181      -2.01878701
19
Frame=12 idx=007421 GeodesicLength=0.4518360179750614 rxn_smarts="[C:1]([C@:2]1([H:11])[C:3]([H:12])([H:13])[C@@:4]([C:5]([H:15])([H:16])[H:17])([H:14])[C:6]([H:18])=[C:7]1[H:19])([H:8])([H:9])[H:10]>>[C:1]([C@@:2]1([H:11])[C:3]([H:12])([H:13])[C@:4]([C:5]([H:15])([H:16])[H:17])([H:14])[C:6]([H:18])([H:19])[C:7]1)([H:8])([H:9])[H:10]"
C       -2.56444760      -0.30662249       0.00279322
C       -1.25543655       0.46482744       0.01350988
C       -0.12810855      -0.14172536       0.86797623
C        1.16638052       0.38177386       0.23477060
C        2.36821409      -0.54056247       0.37156150
C        0.73129800       0.64045536      -1.19945372
C       -0.64976064       0.77805347      -1.31740373
H       -2.40565411      -1.32066373      -0.37259997
H       -2.98633499      -0.38049384       1.00760959
H       -3.29432113       0.17381717      -0.65021728
H       -1.45277873       1.49313235       0.36986590
H       -0.21945790       0.09675312       1.92919444
H       -0.15894839      -1.23409049       0.77838340
H        1.41746626       1.35104438       0.68572493
H        2.16402326      -1.51227861      -0.08597605
H        2.61593957      -0.71113156       1.42163249
H        3.25346587      -0.11822862      -0.10900532
H        1.42656308       1.09039331      -1.90498664
H       -0.02810208      -0.20445329      -2.04337946
19
Frame=13 idx=007421 GeodesicLength=0.48953158593149576 rxn_smarts="[C:1]([C@:2]1([H:11])[C:3]([H:12])([H:13])[C@@:4]([C:5]([H:15])([H:16])[H:17])([H:14])[C:6]([H:18])=[C:7]1[H:19])([H:8])([H:9])[H:10]>>[C:1]([C@@:2]1([H:11])[C:3]([H:12])([H:13])[C@:4]([C:5]([H:15])([H:16])[H:17])([H:14])[C:6]([H:18])([H:19])[C:7]1)([H:8])([H:9])[H:10]"
C       -2.56482355      -0.30742801       0.00432725
C       -1.25503940       0.46262693       0.01419606
C       -0.12726686      -0.14175547       0.86913450
C        1.16690651       0.38075090       0.23412517
C        2.36827154      -0.54184624       0.37334632
C        0.73367570       0.63590598      -1.20171501
C       -0.64755098       0.77451118      -1.31397162
H       -2.40608933      -1.32316635      -0.36634834
H       -2.98835364      -0.37623872       1.00876289
H       -3.29309109       0.17049249      -0.65240513
H       -1.45102929       1.49277951       0.36732824
H       -0.21856763       0.09903357       1.92984067
H       -0.15816476      -1.23424287       0.78188483
H        1.41806204       1.35001013       0.68506059
H        2.16392151      -1.51420759      -0.08274858
H        2.61550289      -0.71057325       1.42389128
H        3.25404521      -0.12053201      -0.10718285
H        1.42605507       1.10245051      -1.89919218
H       -0.03646394      -0.19857071      -2.06833407
19
Frame=14 idx=007421 GeodesicLength=0.5272253001678608 rxn_smarts="[C:1]([C@:2]1([H:11])[C:3]([H:12])([H:13])[C@@:4]([C:5]([H:15])([H:16])[H:17])([H:14])[C:6]([H:18])=[C:7]1[H:19])([H:8])([H:9])[H:10]>>[C:1]([C@@:2]1([H:11])[C:3]([H:12])([H:13])[C@:4]([C:5]([H:15])([H:16])[H:17])([H:14])[C:6]([H:18])([H:19])[C:7]1)([H:8])([H:9])[H:10]"
C       -2.56515538      -0.30829428       0.00586583
C       -1.25461346       0.46038936       0.01486983
C       -0.12640404      -0.14174597       0.87034128
C        1.16745606       0.37970594       0.23348780
C        2.36833239      -0.54316842       0.37517810
C        0.73610084       0.63127543      -1.20399686
C       -0.64529046       0.77077430      -1.31058273
H       -2.40645895      -1.32572914      -0.36001651
H       -2.99034458      -0.37198232       1.00988926
H       -3.29180734       0.16702832      -0.65462126
H       -1.44926431       1.49240865       0.36466830
H       -0.21766552       0.10144297       1.93050807
H       -0.15735807      -1.23435746       0.78551785
H        1.41869684       1.34897168       0.68435734
H        2.16379774      -1.51617478      -0.07945817
H        2.61506474      -0.71002368       1.42619886
H        3.25463812      -0.12290612      -0.10532052
H        1.42542233       1.11424505      -1.89323775
H       -0.04514694      -0.19185953      -2.09364872
19
Frame=15 idx=007421 GeodesicLength=0.5649119402702251 rxn_smarts="[C:1]([C@:2]1([H:11])[C:3]([H:12])([H:13])[C@@:4]([C:5]([H:15])([H:16])[H:17])([H:14])[C:6]([H:18])=[C:7]1[H:19])([H:8])([H:9])[H:10]>>[C:1]([C@@:2]1([H:11])[C:3]([H:12])([H:13])[C@:4]([C:5]([H:15])([H:16])[H:17])([H:14])[C:6]([H:18])([H:19])[C:7]1)([H:8])([H:9])[H:10]"
C       -2.56544252      -0.30922524       0.00740969
C       -1.25415840       0.45811142       0.01552953
C       -0.12551988      -0.14169603       0.87159728
C        1.16802962       0.37863724       0.23285823
C        2.36839707      -0.54452983       0.37706008
C        0.73857410       0.62656041      -1.20629907
C       -0.64297882       0.76683370      -1.30724010
H       -2.40676176      -1.32835667      -0.35359962
H       -2.99230776      -0.36772475       1.01098844
H       -3.29046926       0.16341717      -0.65686608
H       -1.44748373       1.49201724       0.36187842
H       -0.21675205       0.10398634       1.93119575
H       -0.15652763      -1.23443322       0.78928777
H        1.41937094       1.34792841       0.68361264
H        2.16365277      -1.51818189      -0.07609971
H        2.61462460      -0.70948122       1.42855890
H        3.25524544      -0.12535269      -0.10341494
H        1.42467049       1.12575309      -1.88713812
H       -0.05416322      -0.18426348      -2.11931910
19
Frame=16 idx=007421 GeodesicLength=0.6025856639730001 rxn_smarts="[C:1]([C@:2]1([H:11])[C:3]([H:12])([H:13])[C@@:4]([C:5]([H:15])([H:16])[H:17])([H:14])[C:6]([H:18])=[C:7]1[H:19])([H:8])([H:9])[H:10]>>[C:1]([C@@:2]1([H:11])[C:3]([H:12])([H:13])[C@:4]([C:5]([H:15])([H:16])[H:17])([H:14])[C:6]([H:18])([H:19])[C:7]1)([H:8])([H:9])[H:10]"
C       -2.56568450      -0.31022511       0.00896000
C       -1.25367377       0.45578907       0.01617284
C       -0.12461416      -0.14160483       0.87290301
C        1.16862775       0.37754266       0.23223591
C        2.36846611      -0.54593161       0.37899572
C        0.74109671       0.62175637      -1.20862186
C       -0.64061590       0.76267784      -1.30394810
H       -2.40699711      -1.33105405      -0.34709115
H       -2.99424308      -0.36346519       1.01206068
H       -3.28907616       0.15965029      -0.65914037
H       -1.44568709       1.49160247       0.35894865
H       -0.21582778       0.10666935       1.93190228
H       -0.15567272      -1.23446912       0.79320038
H        1.42008462       1.34687956       0.68282325
H        2.16348757      -1.52023111      -0.07266746
H        2.61418189      -0.70894421       1.43097541
H        3.25586826      -0.12787405      -0.10146251
H        1.42380623       1.13695302      -1.88090728
H       -0.06352687      -0.17572138      -2.14533942
