16
Frame=0 idx=005021 GeodesicLength=0.0 rxn_smarts="[C:1]([O:2][C:3]([C@@:4]([C:5]([H:13])([H:14])[H:15])([O:6][H:16])[H:12])([H:10])[H:11])([H:7])([H:8])[H:9]>>[C:1]([O:2][C:3]([C:4](=[C:5]([H:13])[H:14])[O:6][H:16])([H:10])[H:11])([H:7])([H:8])[H:9].[H:12][H:15]"
C        2.42253654      -0.54664099      -0.43922830
O        1.25156649      -0.34410143       0.31367631
C        0.12837252      -0.05193822      -0.46539649
C       -1.06789406       0.04589443       0.44377863
C       -2.32239106       0.42734398      -0.09941742
O       -1.01659477      -0.67052300       1.55245988
H        2.30713172      -1.38678974      -1.13463688
H        2.68584514       0.35235488      -1.00764497
H        3.22230469      -0.77043343       0.26384780
H       -0.08409524      -0.87596957      -1.16617865
H        0.24255082       0.87616439      -1.03217772
H       -0.54570662       1.56445690       1.11519855
H       -3.19874646       0.24268237       0.50353933
H       -2.41499431       0.46974471      -1.17586442
H       -1.52738198       1.41675649       0.52283155
H       -0.08250336      -0.74900177       1.80521282
16
Frame=1 idx=005021 GeodesicLength=0.08427134221556182 rxn_smarts="[C:1]([O:2][C:3]([C@@:4]([C:5]([H:13])([H:14])[H:15])([O:6][H:16])[H:12])([H:10])[H:11])([H:7])([H:8])[H:9]>>[C:1]([O:2][C:3]([C:4](=[C:5]([H:13])[H:14])[O:6][H:16])([H:10])[H:11])([H:7])([H:8])[H:9].[H:12][H:15]"
C        2.42372075      -0.54193121      -0.43813523
O        1.25302854      -0.33847001       0.31472535
C        0.12727435      -0.05747593      -0.46610674
C       -1.06576475       0.05147685       0.44652621
C       -2.31968510       0.43719040      -0.09548424
O       -1.02308502      -0.68785217       1.54486201
H        2.31063505      -1.38655676      -1.12849936
H        2.68287084       0.35508576      -1.01175192
H        3.22530584      -0.75827321       0.26527490
H       -0.08174516      -0.88916195      -1.15846914
H        0.23939310       0.86476301      -1.04333431
H       -0.53794714       1.56658035       1.11319515
H       -3.19700437       0.24523713       0.50459097
H       -2.41729509       0.46122435      -1.17225876
H       -1.52901590       1.45520826       0.52642369
H       -0.09068593      -0.77704485       1.79844141
16
Frame=2 idx=005021 GeodesicLength=0.16839449660731082 rxn_smarts="[C:1]([O:2][C:3]([C@@:4]([C:5]([H:13])([H:14])[H:15])([O:6][H:16])[H:12])([H:10])[H:11])([H:7])([H:8])[H:9]>>[C:1]([O:2][C:3]([C:4](=[C:5]([H:13])[H:14])[O:6][H:16])([H:10])[H:11])([H:7])([H:8])[H:9].[H:12][H:15]"
C        2.42492969      -0.53717145      -0.43696828
O        1.25442571      -0.33307246       0.31579082
C        0.12619746      -0.06326331      -0.46678211
C       -1.06354971       0.05633263       0.44934097
C       -2.31676773       0.44701307      -0.09130729
O       -1.02958060      -0.70558728       1.53696810
H        2.31433921      -1.38612641      -1.12242597
H        2.67985363       0.35796032      -1.01558874
H        3.22827516      -0.74608411       0.26675076
H       -0.07920132      -0.90234345      -1.15088753
H        0.23615613       0.85313828      -1.05417575
H       -0.53101025       1.56877330       1.11042624
H       -3.19498781       0.24842353       0.50611336
H       -2.41967751       0.45273328      -1.16805965
H       -1.53047269       1.49441561       0.52953206
H       -0.09892937      -0.80514156       1.79127301
16
Frame=3 idx=005021 GeodesicLength=0.25242659022973774 rxn_smarts="[C:1]([O:2][C:3]([C@@:4]([C:5]([H:13])([H:14])[H:15])([O:6][H:16])[H:12])([H:10])[H:11])([H:7])([H:8])[H:9]>>[C:1]([O:2][C:3]([C:4](=[C:5]([H:13])[H:14])[O:6][H:16])([H:10])[H:11])([H:7])([H:8])[H:9].[H:12][H:15]"
C        2.42616867      -0.53235838      -0.43572081
O        1.25575917      -0.32791506       0.31687655
C        0.12514790      -0.06931926      -0.46742882
C       -1.06125422       0.06040200       0.45221328
C       -2.31362672       0.45682233      -0.08686119
O       -1.03607978      -0.72377810       1.52877826
H        2.31826037      -1.38550232      -1.11640688
H        2.67679194       0.36098186      -1.01915596
H        3.23121609      -0.73384926       0.26828902
H       -0.07644341      -0.91552874      -1.14346164
H        0.23284014       0.84128721      -1.06469955
H       -0.52495955       1.57104191       1.10683453
H       -3.19268814       0.25224605       0.50814988
H       -2.42215635       0.44433977      -1.16323510
H       -1.53175322       1.53445471       0.53210309
H       -0.10722289      -0.83332471       1.78372533
16
Frame=4 idx=005021 GeodesicLength=0.336426710035841 rxn_smarts="[C:1]([O:2][C:3]([C@@:4]([C:5]([H:13])([H:14])[H:15])([O:6][H:16])[H:12])([H:10])[H:11])([H:7])([H:8])[H:9]>>[C:1]([O:2][C:3]([C:4](=[C:5]([H:13])[H:14])[O:6][H:16])([H:10])[H:11])([H:7])([H:8])[H:9].[H:12][H:15]"
C        2.42744289      -0.52748643      -0.43438315
O        1.25702913      -0.32300091       0.31798717
C        0.12413177      -0.07566423      -0.46805494
C       -1.05888322       0.06362212       0.45513349
C       -2.31024468       0.46663552      -0.08211208
O       -1.04258229      -0.74248341       1.52028649
H        2.32241716      -1.38468985      -1.11042403
H        2.67368192       0.36415276      -1.02245596
H        3.23413078      -0.72154310       0.26990858
H       -0.07345000      -0.92873600      -1.13621893
H        0.22944385       0.82920404      -1.07490748
H       -0.51986618       1.57339578       1.10235127
H       -3.19008844       0.25671319       0.51075291
H       -2.42474968       0.43611423      -1.15774785
H       -1.53285568       1.57541386       0.53407936
H       -0.11555731      -0.86164757       1.77580514
16
Frame=5 idx=005021 GeodesicLength=0.4204258739783512 rxn_smarts="[C:1]([O:2][C:3]([C@@:4]([C:5]([H:13])([H:14])[H:15])([O:6][H:16])[H:12])([H:10])[H:11])([H:7])([H:8])[H:9]>>[C:1]([O:2][C:3]([C:4](=[C:5]([H:13])[H:14])[O:6][H:16])([H:10])[H:11])([H:7])([H:8])[H:9].[H:12][H:15]"
C        2.42875775      -0.52255012      -0.43294699
O        1.25823549      -0.31833496       0.31912697
C        0.12315431      -0.08232030      -0.46866773
C       -1.05644196       0.06593140       0.45809229
C       -2.30660480       0.47646970      -0.07702608
O       -1.04908736      -0.76176020       1.51148770
H        2.32682817      -1.38369083      -1.10446293
H        2.67052089       0.36747612      -1.02548783
H        3.23702322      -0.70914308       0.27162392
H       -0.07020152      -0.94198594      -1.12918497
H        0.22596588       0.81688110      -1.08480071
H       -0.51580098       1.57584197       1.09690528
H       -3.18717587       0.26183231       0.51397011
H       -2.42747061       0.42813295      -1.15156703
H       -1.53378075       1.61737439       0.53541309
H       -0.12392185      -0.89015450       1.76752491
16
Frame=6 idx=005021 GeodesicLength=0.5044671130801783 rxn_smarts="[C:1]([O:2][C:3]([C@@:4]([C:5]([H:13])([H:14])[H:15])([O:6][H:16])[H:12])([H:10])[H:11])([H:7])([H:8])[H:9]>>[C:1]([O:2][C:3]([C:4](=[C:5]([H:13])[H:14])[O:6][H:16])([H:10])[H:11])([H:7])([H:8])[H:9].[H:12][H:15]"
C        2.43011379      -0.51754125      -0.43139813
O        1.25937457      -0.31391554       0.32030230
C        0.12222033      -0.08930815      -0.46927603
C       -1.05393599       0.06727465       0.46108262
C       -2.30268219       0.48633893      -0.07156028
O       -1.05559866      -0.78167313       1.50236687
H        2.33150973      -1.38250953      -1.09849822
H        2.66730060       0.37095444      -1.02825332
H        3.23988893      -0.69661826       0.27346021
H       -0.06667737      -0.95530145      -1.12238164
H        0.22240262       0.80430919      -1.09438740
H       -0.51283561       1.57840253       1.09040564
H       -3.18391902       0.26759833       0.51786056
H       -2.43033587       0.42047516      -1.14465301
H       -1.53451444       1.66043556       0.53605458
H       -0.13231143      -0.91892147       1.75887525
16
Frame=7 idx=005021 GeodesicLength=0.5885420099977593 rxn_smarts="[C:1]([O:2][C:3]([C@@:4]([C:5]([H:13])([H:14])[H:15])([O:6][H:16])[H:12])([H:10])[H:11])([H:7])([H:8])[H:9]>>[C:1]([O:2][C:3]([C:4](=[C:5]([H:13])[H:14])[O:6][H:16])([H:10])[H:11])([H:7])([H:8])[H:9].[H:12][H:15]"
C        2.43151145      -0.51245353      -0.42972679
O        1.26044239      -0.30974394       0.32151917
C        0.12133274      -0.09664467      -0.46988493
C       -1.05136790       0.06761557       0.46410368
C       -2.29846210       0.49624589      -0.06568159
O       -1.06211978      -0.80226906       1.49291231
H        2.33647380      -1.38114652      -1.09251341
H        2.66401570       0.37459049      -1.03075141
H        3.24272499      -0.68394701       0.27543361
H       -0.06286407      -0.96870260      -1.11582335
H        0.21875212       0.79148027      -1.10367428
H       -0.51101969       1.58109628       1.08276930
H       -3.18030107       0.27399609       0.52246844
H       -2.43334778       0.41321423      -1.13698457
H       -1.53504776       1.70467360       0.53598027
H       -0.14072305      -0.94800510       1.74985353
16
Frame=8 idx=005021 GeodesicLength=0.6726581887506087 rxn_smarts="[C:1]([O:2][C:3]([C@@:4]([C:5]([H:13])([H:14])[H:15])([O:6][H:16])[H:12])([H:10])[H:11])([H:7])([H:8])[H:9]>>[C:1]([O:2][C:3]([C:4](=[C:5]([H:13])[H:14])[O:6][H:16])([H:10])[H:11])([H:7])([H:8])[H:9].[H:12][H:15]"
C        2.43294831      -0.50727652      -0.42791675
O        1.26143133      -0.30581819       0.32278588
C        0.12049270      -0.10434901      -0.47050063
C       -1.04874425       0.06691114       0.46715495
C       -2.29391784       0.50620001      -0.05934186
O       -1.06865922      -0.82360990       1.48310295
H        2.34173494      -1.37960315      -1.08648064
H        2.66065526       0.37838921      -1.03298049
H        3.24552357      -0.67109680       0.27757071
H       -0.05874481      -0.98221437      -1.10952528
H        0.21500841       0.77838349      -1.11267206
H       -0.51041899       1.58395297       1.07388144
H       -3.17628386       0.28101164       0.52785525
H       -2.43651478       0.40643201      -1.12852500
H       -1.53535479       1.75017920       0.53515449
H       -0.14915599      -0.97749172       1.74043704
16
Frame=9 idx=005021 GeodesicLength=0.756857816455287 rxn_smarts="[C:1]([O:2][C:3]([C@@:4]([C:5]([H:13])([H:14])[H:15])([O:6][H:16])[H:12])([H:10])[H:11])([H:7])([H:8])[H:9]>>[C:1]([O:2][C:3]([C:4](=[C:5]([H:13])[H:14])[O:6][H:16])([H:10])[H:11])([H:7])([H:8])[H:9].[H:12][H:15]"
C        2.43441617      -0.50201079      -0.42595502
O        1.26233681      -0.30215024       0.32411410
C        0.11970525      -0.11239443      -0.47111464
C       -1.04604266       0.06520647       0.47024128
C       -2.28903685       0.51617848      -0.05251091
O       -1.07521922      -0.84570987       1.47290254
H        2.34727635      -1.37785069      -1.08040642
H        2.65721979       0.38235532      -1.03489922
H        3.24827289      -0.65809425       0.27987944
H       -0.05432384      -0.99579176      -1.10348829
H        0.21118479       0.76503869      -1.12136819
H       -0.51101730       1.58687600       1.06368658
H       -3.17183026       0.28864087       0.53410583
H       -2.43982249       0.40005746      -1.11922905
H       -1.53549472       1.79710375       0.53344765
H       -0.15762474      -1.00745502       1.73059431
16
Frame=10 idx=005021 GeodesicLength=0.8410449020490259 rxn_smarts="[C:1]([O:2][C:3]([C@@:4]([C:5]([H:13])([H:14])[H:15])([O:6][H:16])[H:12])([H:10])[H:11])([H:7])([H:8])[H:9]>>[C:1]([O:2][C:3]([C:4](=[C:5]([H:13])[H:14])[O:6][H:16])([H:10])[H:11])([H:7])([H:8])[H:9].[H:12][H:15]"
C        2.43591279      -0.49664129      -0.42382750
O        1.26314683      -0.29872944       0.32550799
C        0.11896582      -0.12083959      -0.47174256
C       -1.04328783       0.06243045       0.47336519
C       -2.28379336       0.52618131      -0.04514998
O       -1.08181622      -0.86862526       1.46230225
H        2.35312845      -1.37590971      -1.07424971
H        2.65369000       0.38649423      -1.03653316
H        3.25096293      -0.64487505       0.28239277
H       -0.04957974      -1.00952756      -1.09771914
H        0.20726165       0.75139690      -1.12980437
H       -0.51291531       1.59004838       1.05198408
H       -3.16692710       0.29680454       0.54121745
H       -2.44327039       0.39431981      -1.10909904
H       -1.53535209       1.84541693       0.53104118
H       -0.16612642      -1.03794466       1.72031455
16
Frame=11 idx=005021 GeodesicLength=0.9251885796544261 rxn_smarts="[C:1]([O:2][C:3]([C@@:4]([C:5]([H:13])([H:14])[H:15])([O:6][H:16])[H:12])([H:10])[H:11])([H:7])([H:8])[H:9]>>[C:1]([O:2][C:3]([C:4](=[C:5]([H:13])[H:14])[O:6][H:16])([H:10])[H:11])([H:7])([H:8])[H:9].[H:12][H:15]"
C        2.43743089      -0.49116498      -0.42152597
O        1.26385303      -0.29556078       0.32697501
C        0.11827485      -0.12969351      -0.47238325
C       -1.04047315       0.05860125       0.47653618
C       -2.27817672       0.53618247      -0.03723805
O       -1.08846013      -0.89236515       1.45127945
H        2.35928802      -1.37376946      -1.06800788
H        2.65005866       0.39081056      -1.03786733
H        3.25358076      -0.63143828       0.28512071
H       -0.04451204      -1.02343782      -1.09221108
H        0.20323993       0.73744378      -1.13799258
H       -0.51611918       1.59351572       1.03865196
H       -3.16156052       0.30544066       0.54921002
H       -2.44683779       0.38926837      -1.09813700
H       -1.53491238       1.89516218       0.52800572
H       -0.17467424      -1.06899504       1.70958407
16
Frame=12 idx=005021 GeodesicLength=1.0092683284079589 rxn_smarts="[C:1]([O:2][C:3]([C@@:4]([C:5]([H:13])([H:14])[H:15])([O:6][H:16])[H:12])([H:10])[H:11])([H:7])([H:8])[H:9]>>[C:1]([O:2][C:3]([C:4](=[C:5]([H:13])[H:14])[O:6][H:16])([H:10])[H:11])([H:7])([H:8])[H:9].[H:12][H:15]"
C        2.43895774      -0.48557696      -0.41904023
O        1.26444527      -0.29264757       0.32852397
C        0.11762959      -0.13896142      -0.47303254
C       -1.03759538       0.05375372       0.47977036
C       -2.27217311       0.54614375      -0.02875839
O       -1.09516703      -0.91692347       1.43981184
H        2.36574677      -1.37141801      -1.06167663
H        2.64631235       0.39531185      -1.03888701
H        3.25610686      -0.61778179       0.28807699
H       -0.03912339      -1.03753813      -1.08694931
H        0.19911919       0.72316570      -1.14594814
H       -0.52061857       1.59732786       1.02355459
H       -3.15570798       0.31447351       0.55809925
H       -2.45050385       0.38494200      -1.08635014
H       -1.53414297       1.94637776       0.52443007
H       -0.18328551      -1.10064878       1.69837531
16
Frame=13 idx=005021 GeodesicLength=1.093259813017908 rxn_smarts="[C:1]([O:2][C:3]([C@@:4]([C:5]([H:13])([H:14])[H:15])([O:6][H:16])[H:12])([H:10])[H:11])([H:7])([H:8])[H:9]>>[C:1]([O:2][C:3]([C:4](=[C:5]([H:13])[H:14])[O:6][H:16])([H:10])[H:11])([H:7])([H:8])[H:9].[H:12][H:15]"
C        2.44048308      -0.47987578      -0.41636715
O        1.26491556      -0.28999678       0.33016302
C        0.11702666      -0.14864474      -0.47368206
C       -1.03464813       0.04793701       0.48308830
C       -2.26578285       0.55602607      -0.01970856
O       -1.10195387      -0.94227286       1.42788224
H        2.37249324      -1.36884425      -1.05526343
H        2.64244134       0.40000552      -1.03957886
H        3.25852909      -0.60391265       0.29126287
H       -0.03342217      -1.05183991      -1.08191392
H        0.19490065       0.70855170      -1.15368142
H       -0.52638699       1.60152833       1.00656579
H       -3.14936842       0.32382527       0.56787734
H       -2.45423174       0.38135043      -1.07376613
H       -1.53301376       1.99907842       0.52044653
H       -0.19198170      -1.13291579       1.68667543
16
Frame=14 idx=005021 GeodesicLength=1.1771474393106651 rxn_smarts="[C:1]([O:2][C:3]([C@@:4]([C:5]([H:13])([H:14])[H:15])([O:6][H:16])[H:12])([H:10])[H:11])([H:7])([H:8])[H:9]>>[C:1]([O:2][C:3]([C:4](=[C:5]([H:13])[H:14])[O:6][H:16])([H:10])[H:11])([H:7])([H:8])[H:9].[H:12][H:15]"
C        2.44198734      -0.47405687      -0.41350316
O        1.26525214      -0.28761039       0.33190142
C        0.11645885      -0.15873639      -0.47431973
C       -1.03162697       0.04123180       0.48651602
C       -2.25901452       0.56576332      -0.01010449
O       -1.10884587      -0.96836218       1.41547090
H        2.37950529      -1.36603276      -1.04877716
H        2.63842843       0.40490324      -1.03993209
H        3.26082305      -0.58983899       0.29468137
H       -0.02742280      -1.06635010      -1.07707357
H        0.19058417       0.69359217      -1.16120828
H       -0.53336526       1.60616554       0.98757042
H       -3.14254146       0.33339267       0.57852345
H       -2.45799056       0.37846933      -1.06042906
H       -1.53143688       2.05326356       0.51621867
H       -0.20079494      -1.16579393       1.67446530
16
Frame=15 idx=005021 GeodesicLength=1.2609291079928493 rxn_smarts="[C:1]([O:2][C:3]([C@@:4]([C:5]([H:13])([H:14])[H:15])([O:6][H:16])[H:12])([H:10])[H:11])([H:7])([H:8])[H:9]>>[C:1]([O:2][C:3]([C:4](=[C:5]([H:13])[H:14])[O:6][H:16])([H:10])[H:11])([H:7])([H:8])[H:9].[H:12][H:15]"
C        2.44345412      -0.46811797      -0.41045064
O        1.26544666      -0.28549340       0.33374643
C        0.11591823      -0.16922698      -0.47493165
C       -1.02852713       0.03372408       0.49007745
C       -2.25188721       0.57529177       0.00002265
O       -1.11586578      -0.99511494       1.40256831
H        2.38675876      -1.36296726      -1.04223512
H        2.63425762       0.41001595      -1.03993575
H        3.26297248      -0.57557389       0.29832544
H       -0.02114298      -1.08107230      -1.07239432
H        0.18617014       0.67827828      -1.16854078
H       -0.54149155       1.61126127       0.96646460
H       -3.13524088       0.34307799       0.58999692
H       -2.46174356       0.37624742      -1.04639854
H       -1.52932193       2.10891899       0.51194405
H       -0.20975698      -1.19924902       1.66174094
16
Frame=16 idx=005021 GeodesicLength=1.3446128579950858 rxn_smarts="[C:1]([O:2][C:3]([C@@:4]([C:5]([H:13])([H:14])[H:15])([O:6][H:16])[H:12])([H:10])[H:11])([H:7])([H:8])[H:9]>>[C:1]([O:2][C:3]([C:4](=[C:5]([H:13])[H:14])[O:6][H:16])([H:10])[H:11])([H:7])([H:8])[H:9].[H:12][H:15]"
C        2.44486478      -0.46205404      -0.40721497
O        1.26549068      -0.28364748       0.33570430
C        0.11539493      -0.18010449      -0.47550286
C       -1.02534511       0.02551588       0.49379704
C       -2.24443079       0.58453845       0.01062296
O       -1.12304222      -1.02243461       1.38916818
H        2.39422689      -1.35963129      -1.03565540
H        2.62990838       0.41535663      -1.03958574
H        3.26495969      -0.56112572       0.30218476
H       -0.01460427      -1.09601044      -1.06783481
H        0.18165763       0.66259870      -1.17569524
H       -0.55069086       1.61683022       0.94315845
H       -3.12748962       0.35277756       0.60224001
H       -2.46545647       0.37459992      -1.03174891
H       -1.52653686       2.16601647       0.50785879
H       -0.21890676      -1.23322577       1.64850344
