13
Frame=0 idx=000291 GeodesicLength=0.0 rxn_smarts="[C:1]([C:2]1([C:3]([H:9])([H:10])[H:11])[C:4]([H:12])([H:13])[O:5]1)([H:6])([H:7])[H:8]>>[C:1](=[C:2]1[C:4]([H:12])([H:13])[O:5]1)([H:6])[H:7].[C:3]([H:8])([H:9])([H:10])[H:11]"
C       -1.51710244      -0.60677341      -0.15157514
C       -0.42438506       0.28051853      -0.14501168
C        1.29322009      -0.83851199      -0.17519186
C       -0.06945098       1.51000050       0.52060585
O        0.03053023       1.32276970      -0.90977744
H       -2.29227299      -0.44737256       0.58474746
H       -1.76213563      -1.10218551      -1.08171335
H       -0.07313266      -0.97964090       0.12865609
H        2.00374890      -0.17106073       0.30106432
H        1.46098044      -0.92257376      -1.24540480
H        1.34419530      -1.82750135       0.29804363
H       -0.86973380       2.17210578       0.83508997
H        0.87553865       1.61022573       1.04046691
13
Frame=1 idx=000291 GeodesicLength=0.09806158811114465 rxn_smarts="[C:1]([C:2]1([C:3]([H:9])([H:10])[H:11])[C:4]([H:12])([H:13])[O:5]1)([H:6])([H:7])[H:8]>>[C:1](=[C:2]1[C:4]([H:12])([H:13])[O:5]1)([H:6])[H:7].[C:3]([H:8])([H:9])([H:10])[H:11]"
C       -1.51797817      -0.60652816      -0.14464984
C       -0.42485900       0.28041233      -0.14114440
C        1.29642127      -0.84556240      -0.16565406
C       -0.07504208       1.52161714       0.50457902
O        0.01473751       1.31724552      -0.92368257
H       -2.28040598      -0.46073027       0.60806120
H       -1.78730381      -1.06950948      -1.08485726
H       -0.07571881      -1.01032377       0.15078875
H        2.00271901      -0.20756075       0.35598093
H        1.49470998      -0.87390700      -1.23387903
H        1.35510426      -1.86215035       0.24290978
H       -0.87621410       2.18411730       0.81613414
H        0.87382991       1.63287988       1.01541334
13
Frame=2 idx=000291 GeodesicLength=0.19600412611858933 rxn_smarts="[C:1]([C:2]1([C:3]([H:9])([H:10])[H:11])[C:4]([H:12])([H:13])[O:5]1)([H:6])([H:7])[H:8]>>[C:1](=[C:2]1[C:4]([H:12])([H:13])[O:5]1)([H:6])[H:7].[C:3]([H:8])([H:9])([H:10])[H:11]"
C       -1.51846031      -0.60658247      -0.13741384
C       -0.42540662       0.28058382      -0.13804239
C        1.29951392      -0.85272401      -0.15612214
C       -0.08033741       1.53298303       0.48778960
O       -0.00148217       1.31171443      -0.93815830
H       -2.26770049      -0.47399203       0.63127250
H       -1.81342227      -1.03653646      -1.08572105
H       -0.07835400      -1.04236991       0.17155628
H        1.99888999      -0.24692106       0.41200924
H        1.53029382      -0.82342163      -1.21809920
H        1.36608035      -1.89308612       0.18483013
H       -0.88220230       2.19576897       0.79708506
H        0.87258749       1.65458345       0.98901410
13
Frame=3 idx=000291 GeodesicLength=0.2938367750354793 rxn_smarts="[C:1]([C:2]1([C:3]([H:9])([H:10])[H:11])[C:4]([H:12])([H:13])[O:5]1)([H:6])([H:7])[H:8]>>[C:1](=[C:2]1[C:4]([H:12])([H:13])[O:5]1)([H:6])[H:7].[C:3]([H:8])([H:9])([H:10])[H:11]"
C       -1.51854596      -0.60690135      -0.12996276
C       -0.42602832       0.28105330      -0.13574391
C        1.30250905      -0.85995953      -0.14666729
C       -0.08532322       1.54409528       0.47026517
O       -0.01802788       1.30619078      -0.95316859
H       -2.25408500      -0.48714933       0.65438360
H       -1.84051328      -1.00323706      -1.08427274
H       -0.08105092      -1.07600410       0.19062227
H        1.99220092      -0.28916569       0.46844717
H        1.56740253      -0.77144669      -1.19768051
H        1.37737994      -1.91977316       0.12437502
H       -0.88768155       2.20709270       0.77794176
H        0.87176368       1.67520487       0.96146081
13
Frame=4 idx=000291 GeodesicLength=0.39160073076783514 rxn_smarts="[C:1]([C:2]1([C:3]([H:9])([H:10])[H:11])[C:4]([H:12])([H:13])[O:5]1)([H:6])([H:7])[H:8]>>[C:1](=[C:2]1[C:4]([H:12])([H:13])[O:5]1)([H:6])[H:7].[C:3]([H:8])([H:9])([H:10])[H:11]"
C       -1.51821511      -0.60746061      -0.12238992
C       -0.42671541       0.28185470      -0.13426235
C        1.30541787      -0.86723361      -0.13733292
C       -0.09001124       1.55499265       0.45204457
O       -0.03474991       1.30069721      -0.96866595
H       -2.23944677      -0.50025026       0.67740804
H       -1.86861065      -0.96948772      -1.08049323
H       -0.08381554      -1.11148806       0.20758698
H        1.98269436      -0.33424560       0.52454814
H        1.60554812      -0.71844025      -1.17230867
H        1.38932105      -1.94180162       0.06220471
H       -0.89268071       2.21816956       0.75865164
H        0.87126394       1.69469360       0.93300895
13
Frame=5 idx=000291 GeodesicLength=0.48922596476377805 rxn_smarts="[C:1]([C:2]1([C:3]([H:9])([H:10])[H:11])[C:4]([H:12])([H:13])[O:5]1)([H:6])([H:7])[H:8]>>[C:1](=[C:2]1[C:4]([H:12])([H:13])[O:5]1)([H:6])[H:7].[C:3]([H:8])([H:9])([H:10])[H:11]"
C       -1.51741160      -0.60820028      -0.11477056
C       -0.42747816       0.28305727      -0.13358117
C        1.30820255      -0.87451889      -0.12811673
C       -0.09442599       1.56575684       0.43317438
O       -0.05150842       1.29529548      -0.98460243
H       -2.22365723      -0.51336044       0.70032148
H       -1.89752421      -0.93531918      -1.07430845
H       -0.08670949      -1.14900200       0.22209702
H        1.97052051      -0.38210414       0.57955620
H        1.64415530      -0.66488927      -1.14172041
H        1.40208140      -1.95890151      -0.00111831
H       -0.89723546       2.22911015       0.73913152
H        0.87099080       1.71307595       0.90393745
13
Frame=6 idx=000291 GeodesicLength=0.5867631954097859 rxn_smarts="[C:1]([C:2]1([C:3]([H:9])([H:10])[H:11])[C:4]([H:12])([H:13])[O:5]1)([H:6])([H:7])[H:8]>>[C:1](=[C:2]1[C:4]([H:12])([H:13])[O:5]1)([H:6])[H:7].[C:3]([H:8])([H:9])([H:10])[H:11]"
C       -1.51610543      -0.60909852      -0.10717952
C       -0.42828320       0.28471220      -0.13366936
C        1.31084769      -0.88179142      -0.11899292
C       -0.09861125       1.57646594       0.41368900
O       -0.06803425       1.28998014      -1.00091783
H       -2.20653508      -0.52660191       0.72319614
H       -1.92737187      -0.90042557      -1.06565051
H       -0.08972994      -1.18888983       0.23355717
H        1.95584592      -0.43252882       0.63280034
H        1.68255905      -0.61140080      -1.10579127
H        1.41608262      -1.97087946      -0.06481337
H       -0.90144991       2.24002703       0.71922492
H        0.87078564       1.73043104       0.87454722
13
Frame=7 idx=000291 GeodesicLength=0.6841728368403358 rxn_smarts="[C:1]([C:2]1([C:3]([H:9])([H:10])[H:11])[C:4]([H:12])([H:13])[O:5]1)([H:6])([H:7])[H:8]>>[C:1](=[C:2]1[C:4]([H:12])([H:13])[O:5]1)([H:6])[H:7].[C:3]([H:8])([H:9])([H:10])[H:11]"
C       -1.51422964      -0.61010872      -0.09965909
C       -0.42911817       0.28690500      -0.13447066
C        1.31328073      -0.88904627      -0.10990418
C       -0.10261027       1.58723385       0.39361630
O       -0.08410831       1.28477464      -1.01757105
H       -2.18789243      -0.54007221       0.74606073
H       -1.95804732      -0.86469909      -1.05435119
H       -0.09292940      -1.23141180       0.24139983
H        1.93886183      -0.48535775       0.68373966
H        1.72010001      -0.55851296      -1.06447684
H        1.43158933      -1.97765909      -0.12824819
H       -0.90541795       2.25104744       0.69877635
H        0.87052159       1.74690697       0.84508833
13
Frame=8 idx=000291 GeodesicLength=0.781484255490066 rxn_smarts="[C:1]([C:2]1([C:3]([H:9])([H:10])[H:11])[C:4]([H:12])([H:13])[O:5]1)([H:6])([H:7])[H:8]>>[C:1](=[C:2]1[C:4]([H:12])([H:13])[O:5]1)([H:6])[H:7].[C:3]([H:8])([H:9])([H:10])[H:11]"
C       -1.51171144      -0.61120855      -0.09223285
C       -0.42997952       0.28974754      -0.13591922
C        1.31541698      -0.89631799      -0.10077934
C       -0.10647033       1.59823424       0.37298023
O       -0.09953165       1.27972795      -1.03454005
H       -2.16753217      -0.55389286       0.76895018
H       -1.98943154      -0.82807125      -1.04019386
H       -0.09637322      -1.27682389       0.24498689
H        1.91976908      -0.54044479       0.73197051
H        1.75614701      -0.50677255      -1.01783789
H        1.44885952      -1.97927752      -0.19080585
H       -0.90925569       2.26235831       0.67764360
H        0.87009296       1.76274135       0.81577766
13
Frame=9 idx=000291 GeodesicLength=0.8786626572155524 rxn_smarts="[C:1]([C:2]1([C:3]([H:9])([H:10])[H:11])[C:4]([H:12])([H:13])[O:5]1)([H:6])([H:7])[H:8]>>[C:1](=[C:2]1[C:4]([H:12])([H:13])[O:5]1)([H:6])[H:7].[C:3]([H:8])([H:9])([H:10])[H:11]"
C       -1.50839495      -0.61228375      -0.08489369
C       -0.43089117       0.29337690      -0.13792013
C        1.31713685      -0.90364627      -0.09152954
C       -0.11026927       1.60958295       0.35177029
O       -0.11425169       1.27488036      -1.05173951
H       -2.14517970      -0.56803803       0.79179280
H       -2.02118298      -0.79057912      -1.02286042
H       -0.10011952      -1.32526920       0.24375735
H        1.89876819      -0.59769333       0.77718431
H        1.79007062      -0.45666831      -0.96592710
H        1.46802047      -1.97579580      -0.25200620
H       -0.91308803       2.27406576       0.65565846
H        0.86938117       1.77806785       0.78671339
13
Frame=10 idx=000291 GeodesicLength=0.9757041578663215 rxn_smarts="[C:1]([C:2]1([C:3]([H:9])([H:10])[H:11])[C:4]([H:12])([H:13])[O:5]1)([H:6])([H:7])[H:8]>>[C:1](=[C:2]1[C:4]([H:12])([H:13])[O:5]1)([H:6])[H:7].[C:3]([H:8])([H:9])([H:10])[H:11]"
C       -1.50418114      -0.61334321      -0.07760446
C       -0.43185573       0.29791919      -0.14041303
C        1.31828812      -0.91108173      -0.08205158
C       -0.11401982       1.62144752       0.32991869
O       -0.12812266       1.27023009      -1.06921446
H       -2.12048675      -0.58271494       0.81474111
H       -2.05327089      -0.75211335      -1.00196206
H       -0.10421006      -1.37693614       0.23680864
H        1.87577920      -0.65705812       0.81929592
H        1.82143503      -0.40854915      -0.90873682
H        1.48928023      -1.96726392      -0.31132342
H       -0.91699467       2.28631500       0.63263578
H        0.86835913       1.79314876       0.75790567
13
Frame=11 idx=000291 GeodesicLength=1.0726473829397412 rxn_smarts="[C:1]([C:2]1([C:3]([H:9])([H:10])[H:11])[C:4]([H:12])([H:13])[O:5]1)([H:6])([H:7])[H:8]>>[C:1](=[C:2]1[C:4]([H:12])([H:13])[O:5]1)([H:6])[H:7].[C:3]([H:8])([H:9])([H:10])[H:11]"
C       -1.49892117      -0.61442841      -0.07031297
C       -0.43290439       0.30354494      -0.14332775
C        1.31867136      -0.91871704      -0.07225203
C       -0.11772050       1.63405879       0.30735656
O       -0.14109942       1.26585132      -1.08702874
H       -2.09309187      -0.59813664       0.83787817
H       -2.08546596      -0.71280484      -0.97708454
H       -0.10867773      -1.43186005       0.22330259
H        1.85069014      -0.71858881       0.85825455
H        1.84977453      -0.36274752      -0.84625645
H        1.51271572      -1.95378088      -0.36828628
H       -0.92101549       2.29931921       0.60844161
H        0.86704477       1.80828994       0.72931529
13
Frame=12 idx=000291 GeodesicLength=1.1695512634535778 rxn_smarts="[C:1]([C:2]1([C:3]([H:9])([H:10])[H:11])[C:4]([H:12])([H:13])[O:5]1)([H:6])([H:7])[H:8]>>[C:1](=[C:2]1[C:4]([H:12])([H:13])[O:5]1)([H:6])[H:7].[C:3]([H:8])([H:9])([H:10])[H:11]"
C       -1.49243367      -0.61559439      -0.06296617
C       -0.43408735       0.31044524      -0.14658560
C        1.31807257      -0.92666215      -0.06207091
C       -0.12136745       1.64764357       0.28400158
O       -0.15319774       1.26182312      -1.10522992
H       -2.06261792      -0.61448712       0.86122130
H       -2.11745465      -0.67289703      -0.94776708
H       -0.11351026      -1.48989501       0.20245914
H        1.82332734      -0.78240293       0.89398803
H        1.87463325      -0.31957650      -0.77844991
H        1.53833808      -1.93544977      -0.42240014
H       -0.92518190       2.31328556       0.58297247
H        0.86547970       1.82376740       0.70082721
13
Frame=13 idx=000291 GeodesicLength=1.2662206734455714 rxn_smarts="[C:1]([C:2]1([C:3]([H:9])([H:10])[H:11])[C:4]([H:12])([H:13])[O:5]1)([H:6])([H:7])[H:8]>>[C:1](=[C:2]1[C:4]([H:12])([H:13])[O:5]1)([H:6])[H:7].[C:3]([H:8])([H:9])([H:10])[H:11]"
C       -1.48448091      -0.61695402      -0.05560241
C       -0.43547313       0.31881584      -0.15005760
C        1.31619098      -0.93502603      -0.05144148
C       -0.12491222       1.66240784       0.25985621
O       -0.16449889       1.25824734      -1.12382305
H       -2.02880297      -0.63203203       0.88459090
H       -2.14859392      -0.63287038      -0.91383018
H       -0.11862436      -1.55045508       0.17407982
H        1.79371772      -0.84838450       0.92621821
H        1.89533776      -0.27954760      -0.70546807
H        1.56580189      -1.91240893      -0.47315537
H       -0.92942830       2.32837409       0.55626957
H        0.86376637       1.83983346       0.67236345
13
Frame=14 idx=000291 GeodesicLength=1.36288973031475 rxn_smarts="[C:1]([C:2]1([C:3]([H:9])([H:10])[H:11])[C:4]([H:12])([H:13])[O:5]1)([H:6])([H:7])[H:8]>>[C:1](=[C:2]1[C:4]([H:12])([H:13])[O:5]1)([H:6])[H:7].[C:3]([H:8])([H:9])([H:10])[H:11]"
C       -1.47487582      -0.61851896      -0.04825725
C       -0.43715580       0.32883480      -0.15362718
C        1.31286312      -0.94389414      -0.04046063
C       -0.12835923       1.67844699       0.23489973
O       -0.17514514       1.25518812      -1.14270330
H       -1.99149576      -0.65064111       0.90767839
H       -2.17832342      -0.59329401      -0.87500319
H       -0.12390896      -1.61297780       0.13817552
H        1.76183091      -0.91660942       0.95465459
H        1.91141509      -0.24293991      -0.62748687
H        1.59493510      -1.88482454      -0.51998871
H       -0.93376225       2.34467246       0.52841243
H        0.86198216       1.85655752       0.64370646
13
Frame=15 idx=000291 GeodesicLength=1.459539754974836 rxn_smarts="[C:1]([C:2]1([C:3]([H:9])([H:10])[H:11])[C:4]([H:12])([H:13])[O:5]1)([H:6])([H:7])[H:8]>>[C:1](=[C:2]1[C:4]([H:12])([H:13])[O:5]1)([H:6])[H:7].[C:3]([H:8])([H:9])([H:10])[H:11]"
C       -1.46347748      -0.62038940      -0.04112311
C       -0.43924124       0.34062810      -0.15711911
C        1.30791990      -0.95333011      -0.02924326
C       -0.13164574       1.69583951       0.20928247
O       -0.18533658       1.25277955      -1.16172911
H       -1.95093099      -0.67026699       0.92994424
H       -2.20579736      -0.55501194      -0.83164371
H       -0.12917250      -1.67650771       0.09586879
H        1.72808477      -0.98679872       0.97879048
H        1.92219623      -0.21022053      -0.54510406
H        1.62514264      -1.85300251      -0.56241926
H       -0.93804576       2.36225824       0.49973543
H        0.86030410       1.87402250       0.61476022
13
Frame=16 idx=000291 GeodesicLength=1.5561986700950485 rxn_smarts="[C:1]([C:2]1([C:3]([H:9])([H:10])[H:11])[C:4]([H:12])([H:13])[O:5]1)([H:6])([H:7])[H:8]>>[C:1](=[C:2]1[C:4]([H:12])([H:13])[O:5]1)([H:6])[H:7].[C:3]([H:8])([H:9])([H:10])[H:11]"
C       -1.45026461      -0.62259669      -0.03445748
C       -0.44184054       0.35423059      -0.16034807
C        1.30132722      -0.96332228      -0.01799237
C       -0.13469993       1.71453884       0.18324757
O       -0.19533331       1.25113966      -1.18067363
H       -1.90769854      -0.69061213       0.95073568
H       -2.23018420      -0.51895324      -0.78452508
H       -0.13421303      -1.74013834       0.04905208
H        1.69318174      -1.05853041       0.99808518
H        1.92712129      -0.18172186      -0.45918319
H        1.65574631      -1.81732170      -0.60011021
H       -0.94208189       2.38112716       0.47071856
H        0.85893951       1.89216039       0.58545096
