16
Frame=0 idx=003238 GeodesicLength=0.0 rxn_smarts="[C:1]([O:2][C@@:3]1([H:10])[C:4]([H:11])([H:12])[C@:5]1([C:6]([H:14])([H:15])[H:16])[H:13])([H:7])([H:8])[H:9]>>[C:1]([O:2][H:15])([H:7])([H:8])[H:9].[C@@:3]12([H:10])[C:4]([H:11])([H:12])[C@:5]1([H:13])[C:6]2([H:14])[H:16]"
C       -2.00980666      -1.11766614       0.47533550
O       -1.03341466      -0.22938643       0.96698085
C       -0.06028045       0.80319431      -0.47179422
C        0.98189659       1.73050296      -0.03882738
C        1.29483009       0.49466287      -0.85630976
C        1.34930807      -0.68062600       0.06960502
H       -2.41684435      -1.72406113       1.28871540
H       -1.59573628      -1.78923490      -0.28800025
H       -2.83375607      -0.54931735       0.03518954
H       -1.00918195       0.95063481      -0.96074132
H        1.30080148       1.78102612       0.99480058
H        0.95096115       2.68688307      -0.55400019
H        1.71634188       0.55798332      -1.85541506
H        1.24218311      -1.62644326      -0.45667398
H       -0.02799268      -0.62486773       0.84381263
H        2.15069075      -0.66328449       0.80732266
16
Frame=1 idx=003238 GeodesicLength=0.06539129094419185 rxn_smarts="[C:1]([O:2][C@@:3]1([H:10])[C:4]([H:11])([H:12])[C@:5]1([C:6]([H:14])([H:15])[H:16])[H:13])([H:7])([H:8])[H:9]>>[C:1]([O:2][H:15])([H:7])([H:8])[H:9].[C@@:3]12([H:10])[C:4]([H:11])([H:12])[C@:5]1([H:13])[C:6]2([H:14])[H:16]"
C       -2.01296868      -1.11405390       0.48310560
O       -1.03697221      -0.22277868       0.97023624
C       -0.05854729       0.79302105      -0.47747366
C        0.97479867       1.72840893      -0.03376757
C        1.30467639       0.50238770      -0.85668112
C        1.34707776      -0.68198806       0.05712601
H       -2.42795218      -1.70516446       1.30340772
H       -1.59447756      -1.79907900      -0.26566155
H       -2.83239818      -0.55133603       0.02711014
H       -0.99444654       0.94249140      -0.99079049
H        1.28476537       1.77280580       1.00307323
H        0.94313428       2.68828882      -0.54186579
H        1.72664350       0.57142661      -1.85457839
H        1.24809796      -1.62325557      -0.47904535
H       -0.01617977      -0.62800074       0.85674939
H        2.14474850      -0.67317387       0.79905559
16
Frame=2 idx=003238 GeodesicLength=0.13076217382091485 rxn_smarts="[C:1]([O:2][C@@:3]1([H:10])[C:4]([H:11])([H:12])[C@:5]1([C:6]([H:14])([H:15])[H:16])[H:13])([H:7])([H:8])[H:9]>>[C:1]([O:2][H:15])([H:7])([H:8])[H:9].[C@@:3]12([H:10])[C:4]([H:11])([H:12])[C@:5]1([H:13])[C:6]2([H:14])[H:16]"
C       -2.01607488      -1.11037256       0.49073312
O       -1.04057463      -0.21615918       0.97361078
C       -0.05694477       0.78282492      -0.48303849
C        0.96756145       1.72618699      -0.02884645
C        1.31417483       0.50998612      -0.85679733
C        1.34474556      -0.68330635       0.04478847
H       -2.43907625      -1.68620756       1.31749619
H       -1.59314174      -1.80845426      -0.24327357
H       -2.83083198      -0.55353436       0.01897384
H       -0.97928634       0.93461649      -1.02021764
H        1.26881191       1.76454698       1.01101692
H        0.93511765       2.68944989      -0.52996676
H        1.73653672       0.58461026      -1.85349603
H        1.25415212      -1.61991818      -0.50117287
H       -0.00408775      -0.63128558       0.86962018
H        2.13891809      -0.68298361       0.79056964
16
Frame=3 idx=003238 GeodesicLength=0.19613774347186633 rxn_smarts="[C:1]([O:2][C@@:3]1([H:10])[C:4]([H:11])([H:12])[C@:5]1([C:6]([H:14])([H:15])[H:16])[H:13])([H:7])([H:8])[H:9]>>[C:1]([O:2][H:15])([H:7])([H:8])[H:9].[C@@:3]12([H:10])[C:4]([H:11])([H:12])[C@:5]1([H:13])[C:6]2([H:14])[H:16]"
C       -2.01912991      -1.10663329       0.49819795
O       -1.04427467      -0.20948863       0.97711444
C       -0.05548932       0.77262388      -0.48848346
C        0.96021094       1.72384313      -0.02408429
C        1.32331299       0.51741934      -0.85667839
C        1.34231724      -0.68458831       0.03263408
H       -2.45009679      -1.66736673       1.33093214
H       -1.59171960      -1.81725035      -0.22100066
H       -2.82915386      -0.55592276       0.01088422
H       -0.96375528       0.92711262      -1.04898791
H        1.25297569       1.75628194       1.01863092
H        0.92697056       2.69036390      -0.51835913
H        1.74599558       0.59745397      -1.85221221
H        1.26034073      -1.61646209      -0.52297873
H        0.00828100      -0.63469282       0.88246442
H        2.13321472      -0.69269379       0.78192661
16
Frame=4 idx=003238 GeodesicLength=0.26142386069061097 rxn_smarts="[C:1]([O:2][C@@:3]1([H:10])[C:4]([H:11])([H:12])[C@:5]1([C:6]([H:14])([H:15])[H:16])[H:13])([H:7])([H:8])[H:9]>>[C:1]([O:2][H:15])([H:7])([H:8])[H:9].[C@@:3]12([H:10])[C:4]([H:11])([H:12])[C@:5]1([H:13])[C:6]2([H:14])[H:16]"
C       -2.02211824      -1.10284385       0.50554197
O       -1.04804085      -0.20276600       0.98069512
C       -0.05415565       0.76241058      -0.49382798
C        0.95274264       1.72136997      -0.01946139
C        1.33209327       0.52472773      -0.85631428
C        1.33975302      -0.68582511       0.02060037
H       -2.46112815      -1.64847293       1.34379840
H       -1.59021574      -1.82562094      -0.19861751
H       -2.82723217      -0.55854679       0.00274772
H       -0.94778035       0.91990231      -1.07714593
H        1.23721829       1.74796802       1.02591128
H        0.91869797       2.69104258      -0.50696676
H        1.75506637       0.61007191      -1.85065715
H        1.26661023      -1.61283957      -0.54454492
H        0.02093042      -0.63826568       0.89518536
H        2.12755893      -0.70231224       0.77305570
16
Frame=5 idx=003238 GeodesicLength=0.3267362484840789 rxn_smarts="[C:1]([O:2][C@@:3]1([H:10])[C:4]([H:11])([H:12])[C@:5]1([C:6]([H:14])([H:15])[H:16])[H:13])([H:7])([H:8])[H:9]>>[C:1]([O:2][H:15])([H:7])([H:8])[H:9].[C@@:3]12([H:10])[C:4]([H:11])([H:12])[C@:5]1([H:13])[C:6]2([H:14])[H:16]"
C       -2.02507060      -1.09900677       0.51276882
O       -1.05192452      -0.19594956       0.98436226
C       -0.05296654       0.75220121      -0.49909338
C        0.94516017       1.71877556      -0.01496379
C        1.34053523       0.53189367      -0.85574192
C        1.33710046      -0.68703858       0.00868862
H       -2.47216713      -1.62954230       1.35614091
H       -1.58862873      -1.83358224      -0.17615822
H       -2.82515541      -0.56142244      -0.00544219
H       -0.93143690       0.91305028      -1.10471983
H        1.22155073       1.73961335       1.03291918
H        0.91029967       2.69150555      -0.49578373
H        1.76378872       0.62244092      -1.84889770
H        1.27300795      -1.60908168      -0.56588473
H        0.03387996      -0.64199701       0.90781194
H        2.12202696      -0.71185999       0.76399376
16
Frame=6 idx=003238 GeodesicLength=0.3920422983969313 rxn_smarts="[C:1]([O:2][C@@:3]1([H:10])[C:4]([H:11])([H:12])[C@:5]1([C:6]([H:14])([H:15])[H:16])[H:13])([H:7])([H:8])[H:9]>>[C:1]([O:2][H:15])([H:7])([H:8])[H:9].[C@@:3]12([H:10])[C:4]([H:11])([H:12])[C@:5]1([H:13])[C:6]2([H:14])[H:16]"
C       -2.02798112      -1.09513130       0.51988608
O       -1.05594200      -0.18901408       0.98808915
C       -0.05191676       0.74200224      -0.50428829
C        0.93747491       1.71605912      -0.01059183
C        1.34863615       0.53891797      -0.85496580
C        1.33434095      -0.68822791      -0.00310997
H       -2.48320638      -1.61057736       1.36797186
H       -1.58695158      -1.84115040      -0.15359132
H       -2.82290981      -0.56458760      -0.01368242
H       -0.91471793       0.90656931      -1.13170842
H        1.20597298       1.73121123       1.03965168
H        0.90180645       2.69175705      -0.48479892
H        1.77217318       0.63457405      -1.84692193
H        1.27949893      -1.60518075      -0.58699745
H        0.04713158      -0.64588733       0.92032513
H        2.11659046      -0.72133424       0.75473247
16
Frame=7 idx=003238 GeodesicLength=0.4573426860439068 rxn_smarts="[C:1]([O:2][C@@:3]1([H:10])[C:4]([H:11])([H:12])[C@:5]1([C:6]([H:14])([H:15])[H:16])[H:13])([H:7])([H:8])[H:9]>>[C:1]([O:2][H:15])([H:7])([H:8])[H:9].[C@@:3]12([H:10])[C:4]([H:11])([H:12])[C@:5]1([H:13])[C:6]2([H:14])[H:16]"
C       -2.03085284      -1.09122462       0.52690165
O       -1.06011749      -0.18192997       0.99185469
C       -0.05100646       0.73182239      -0.50942481
C        0.92969596       1.71322218      -0.00634086
C        1.35640084       0.54579937      -0.85399648
C        1.33147049      -0.68939676      -0.01480445
H       -2.49424670      -1.59157478       1.37931160
H       -1.58517774      -1.84834495      -0.13088881
H       -2.82050107      -0.56807891      -0.02197659
H       -0.89763251       0.90047520      -1.15811826
H        1.19048650       1.72275710       1.04612126
H        0.89324028       2.69180548      -0.47399872
H        1.78023877       0.64647963      -1.84473380
H        1.28606527      -1.60113611      -0.60789056
H        0.06069228      -0.64993634       0.93271435
H        2.11124442      -0.73073889       0.74526981
16
Frame=8 idx=003238 GeodesicLength=0.522639466673081 rxn_smarts="[C:1]([O:2][C@@:3]1([H:10])[C:4]([H:11])([H:12])[C@:5]1([C:6]([H:14])([H:15])[H:16])[H:13])([H:7])([H:8])[H:9]>>[C:1]([O:2][H:15])([H:7])([H:8])[H:9].[C@@:3]12([H:10])[C:4]([H:11])([H:12])[C@:5]1([H:13])[C:6]2([H:14])[H:16]"
C       -2.03368884      -1.08729392       0.53382238
O       -1.06447759      -0.17466597       0.99563624
C       -0.05023571       0.72167133      -0.51451501
C        0.92183301       1.71026680      -0.00220625
C        1.36383511       0.55253634      -0.85284437
C        1.32848493      -0.69054894      -0.02640300
H       -2.50528782      -1.57253327       1.39017836
H       -1.58329831      -1.85518269      -0.10802334
H       -2.81793657      -0.57193549      -0.03032817
H       -0.88019151       0.89478438      -1.18395371
H        1.17509335       1.71424670       1.05234059
H        0.88462385       2.69165956      -0.46337008
H        1.78800386       0.65816398      -1.84233853
H        1.29268770      -1.59694792      -0.62857070
H        0.07456966      -0.65414191       0.94497178
H        2.10598489      -0.74007897       0.73560381
16
Frame=9 idx=003238 GeodesicLength=0.5879426268779547 rxn_smarts="[C:1]([O:2][C@@:3]1([H:10])[C:4]([H:11])([H:12])[C@:5]1([C:6]([H:14])([H:15])[H:16])[H:13])([H:7])([H:8])[H:9]>>[C:1]([O:2][H:15])([H:7])([H:8])[H:9].[C@@:3]12([H:10])[C:4]([H:11])([H:12])[C@:5]1([H:13])[C:6]2([H:14])[H:16]"
C       -2.03649407      -1.08334478       0.54065518
O       -1.06905162      -0.16718829       0.99941181
C       -0.04960565       0.71155995      -0.51957257
C        0.91389428       1.70719660       0.00181808
C        1.37094776       0.55912655      -0.85152073
C        1.32538359      -0.69169052      -0.03791384
H       -2.51633029      -1.55345099       1.40059206
H       -1.58130240      -1.86167790      -0.08496948
H       -2.81522969      -0.57619503      -0.03874042
H       -0.86240963       0.88951115      -1.20922201
H        1.15979401       1.70567702       1.05832716
H        0.87597542       2.69133071      -0.45289931
H        1.79548990       0.66963165      -1.83974506
H        1.29935141      -1.59262014      -0.64904782
H        0.08877376      -0.65850219       0.95709253
H        2.10081321      -0.74936378       0.72573441
16
Frame=10 idx=003238 GeodesicLength=0.6532326174609475 rxn_smarts="[C:1]([O:2][C@@:3]1([H:10])[C:4]([H:11])([H:12])[C@:5]1([C:6]([H:14])([H:15])[H:16])[H:13])([H:7])([H:8])[H:9]>>[C:1]([O:2][H:15])([H:7])([H:8])[H:9].[C@@:3]12([H:10])[C:4]([H:11])([H:12])[C@:5]1([H:13])[C:6]2([H:14])[H:16]"
C       -2.03926703      -1.07938797       0.54740202
O       -1.07386814      -0.15946462       1.00314514
C       -0.04911018       0.70149497      -0.52460645
C        0.90589694       1.70400971       0.00573128
C        1.37774156       0.56557007      -0.85003004
C        1.32215010      -0.69281709      -0.04934122
H       -2.52735953      -1.53434248       1.41055404
H       -1.57918304      -1.86783112      -0.06170353
H       -2.81238153      -0.58091153      -0.04720162
H       -0.84429193       0.88467066      -1.23391105
H        1.14459498       1.69704189       1.06407689
H        0.86733345       2.69081779      -0.44257698
H        1.80270904       0.68088669      -1.83694556
H        1.30601610      -1.58814295      -0.66931454
H        0.10330832      -0.66300652       0.96906801
H        2.09571091      -0.75858751       0.71565360
16
Frame=11 idx=003238 GeodesicLength=0.7185258897275988 rxn_smarts="[C:1]([O:2][C@@:3]1([H:10])[C:4]([H:11])([H:12])[C@:5]1([C:6]([H:14])([H:15])[H:16])[H:13])([H:7])([H:8])[H:9]>>[C:1]([O:2][H:15])([H:7])([H:8])[H:9].[C@@:3]12([H:10])[C:4]([H:11])([H:12])[C@:5]1([H:13])[C:6]2([H:14])[H:16]"
C       -2.04201874      -1.07542595       0.55404796
O       -1.07898519      -0.15144262       1.00681143
C       -0.04875320       0.69149358      -0.52963072
C        0.89785855       1.70071717       0.00952186
C        1.38422753       0.57184042      -0.84838796
C        1.31879063      -0.69394057      -0.06065416
H       -2.53825835      -1.51536057       1.42005896
H       -1.57693280      -1.87354734      -0.03837482
H       -2.80950990      -0.58609045      -0.05560019
H       -0.82587932       0.88031529      -1.25801049
H        1.12950214       1.68836484       1.06960114
H        0.85874286       2.69013389      -0.43243506
H        1.80967183       0.69186893      -1.83397383
H        1.31268077      -1.58355130      -0.68931920
H        0.11817545      -0.66762669       0.98093138
H        2.09068775      -0.76774864       0.70541370
16
Frame=12 idx=003238 GeodesicLength=0.7837761722258604 rxn_smarts="[C:1]([O:2][C@@:3]1([H:10])[C:4]([H:11])([H:12])[C@:5]1([C:6]([H:14])([H:15])[H:16])[H:13])([H:7])([H:8])[H:9]>>[C:1]([O:2][H:15])([H:7])([H:8])[H:9].[C@@:3]12([H:10])[C:4]([H:11])([H:12])[C@:5]1([H:13])[C:6]2([H:14])[H:16]"
C       -2.04473638      -1.07146754       0.56062274
O       -1.08439542      -0.14311164       1.01036968
C       -0.04852199       0.68155878      -0.53464885
C        0.88978323       1.69731211       0.01321019
C        1.39040919       0.57796903      -0.84658545
C        1.31527251      -0.69504765      -0.07190343
H       -2.54915310      -1.49634059       1.42914009
H       -1.57452755      -1.87894497      -0.01475330
H       -2.80648789      -0.59181019      -0.06405357
H       -0.80713072       0.87637790      -1.28152795
H        1.11450962       1.67960802       1.07489918
H        0.85020809       2.68928173      -0.42241062
H        1.81639993       0.70266259      -1.83078265
H        1.31928373      -1.57879924      -0.70912953
H        0.13338717      -0.67239378       0.99261514
H        2.08569957      -0.77685457       0.69493832
16
Frame=13 idx=003238 GeodesicLength=0.8490606236712607 rxn_smarts="[C:1]([O:2][C@@:3]1([H:10])[C:4]([H:11])([H:12])[C@:5]1([C:6]([H:14])([H:15])[H:16])[H:13])([H:7])([H:8])[H:9]>>[C:1]([O:2][H:15])([H:7])([H:8])[H:9].[C@@:3]12([H:10])[C:4]([H:11])([H:12])[C@:5]1([H:13])[C:6]2([H:14])[H:16]"
C       -2.04744143      -1.06751756       0.56712845
O       -1.09015744      -0.13442028       1.01380222
C       -0.04842841       0.67171167      -0.53968366
C        0.88167758       1.69380549       0.01681426
C        1.39630850       0.58394618      -0.84464973
C        1.31162563      -0.69615942      -0.08309753
H       -2.56006765      -1.47726578       1.43782767
H       -1.57194396      -1.88404862       0.00919520
H       -2.80336066      -0.59812936      -0.07259515
H       -0.78811016       0.87291196      -1.30447998
H        1.09961971       1.67077384       1.08002524
H        0.84173550       2.68828610      -0.41248077
H        1.82292688       0.71325435      -1.82742281
H        1.32583917      -1.57391533      -0.72877336
H        0.14897287      -0.67729330       1.00415068
H        2.08080387      -0.78593993       0.68423928
16
Frame=14 idx=003238 GeodesicLength=0.9143343240954184 rxn_smarts="[C:1]([O:2][C@@:3]1([H:10])[C:4]([H:11])([H:12])[C@:5]1([C:6]([H:14])([H:15])[H:16])[H:13])([H:7])([H:8])[H:9]>>[C:1]([O:2][H:15])([H:7])([H:8])[H:9].[C@@:3]12([H:10])[C:4]([H:11])([H:12])[C@:5]1([H:13])[C:6]2([H:14])[H:16]"
C       -2.05012120      -1.06358554       0.57356398
O       -1.09630082      -0.12533358       1.01705430
C       -0.04845989       0.66196205      -0.54474211
C        0.87355983       1.69019604       0.02032907
C        1.40192529       0.58977310      -0.84257718
C        1.30781836      -0.69727029      -0.09423712
H       -2.57097242      -1.45816024       1.44610972
H       -1.56916649      -1.88884150       0.03349929
H       -2.80011053      -0.60510720      -0.08119988
H       -0.76881197       0.86992501      -1.32684409
H        1.08483085       1.66185276       1.08496306
H        0.83336941       2.68714693      -0.40263967
H        1.82925849       0.72364952      -1.82387213
H        1.33228573      -1.56888890      -0.74823482
H        0.16493519      -0.68231558       1.01552538
H        2.07596016      -0.79500259       0.67330220
16
Frame=15 idx=003238 GeodesicLength=0.9795903983761067 rxn_smarts="[C:1]([O:2][C@@:3]1([H:10])[C:4]([H:11])([H:12])[C@:5]1([C:6]([H:14])([H:15])[H:16])[H:13])([H:7])([H:8])[H:9]>>[C:1]([O:2][H:15])([H:7])([H:8])[H:9].[C@@:3]12([H:10])[C:4]([H:11])([H:12])[C@:5]1([H:13])[C:6]2([H:14])[H:16]"
C       -2.05278946      -1.05967020       0.57991090
O       -1.10288847      -0.11579460       1.02008617
C       -0.04861405       0.65231805      -0.54983017
C        0.86545443       1.68649240       0.02373924
C        1.40727382       0.59542441      -0.84037159
C        1.30384835      -0.69837909      -0.10528305
H       -2.58172228      -1.43922376       1.45397596
H       -1.56618759      -1.89317859       0.05795518
H       -2.79688429      -0.61273604      -0.08970721
H       -0.74926363       0.86742167      -1.34860521
H        1.07015306       1.65287402       1.08970672
H        0.82516981       2.68586593      -0.39292388
H        1.83540247       0.73378288      -1.82014525
H        1.33860986      -1.56374722      -0.76744467
H        0.18127215      -0.68743343       1.02676012
H        2.07116583      -0.80401643       0.66217674
16
Frame=16 idx=003238 GeodesicLength=1.0448495774061517 rxn_smarts="[C:1]([O:2][C@@:3]1([H:10])[C:4]([H:11])([H:12])[C@:5]1([C:6]([H:14])([H:15])[H:16])[H:13])([H:7])([H:8])[H:9]>>[C:1]([O:2][H:15])([H:7])([H:8])[H:9].[C@@:3]12([H:10])[C:4]([H:11])([H:12])[C@:5]1([H:13])[C:6]2([H:14])[H:16]"
C       -2.05543736      -1.05578289       0.58619680
O       -1.10994127      -0.10577812       1.02286033
C       -0.04889357       0.64280172      -0.55495884
C        0.85736119       1.68269206       0.02708310
C        1.41236086       0.60092499      -0.83804246
C        1.29970526      -0.69949135      -0.11629618
H       -2.59250668      -1.42021896       1.46145480
H       -1.56295647      -1.89722432       0.08288939
H       -2.79351909      -0.62115143      -0.09832377
H       -0.72947899       0.86540620      -1.36977561
H        1.05557669       1.64379182       1.09430082
H        0.81712911       2.68445963      -0.38325007
H        1.84138073       0.74372734      -1.81624077
H        1.34476477      -1.55846303      -0.78650810
H        0.19802496      -0.69266195       1.03782907
H        2.06642987      -0.81303171       0.65078146
