10
Frame=0 idx=002135 GeodesicLength=0.0 rxn_smarts="[O:1]([C:2]([C:3]#[C:4][H:9])([C:5]#[C:6][H:10])[H:8])[H:7]>>[O:1]([C:2](=[C:3]=[C:4]([H:8])[H:9])[C:5]#[C:6][H:10])[H:7]"
O       -0.30033570      -1.67610719       0.03033026
C       -0.17861930      -0.32401325       0.15237256
C       -1.19035730       0.38310234       1.04035529
C       -1.44973659       0.69849120      -0.20269406
C        1.19023301       0.15180439       0.11464537
C        2.31523942       0.55449372       0.10760664
H       -1.02195216      -1.94354472       0.61285499
H       -0.53018149       0.21110247      -1.01184517
H       -2.15184026       1.03105783      -0.95493597
H        3.31755037       0.91361320       0.11131009
10
Frame=1 idx=002135 GeodesicLength=0.11492168063583727 rxn_smarts="[O:1]([C:2]([C:3]#[C:4][H:9])([C:5]#[C:6][H:10])[H:8])[H:7]>>[O:1]([C:2](=[C:3]=[C:4]([H:8])[H:9])[C:5]#[C:6][H:10])[H:7]"
O       -0.28925290      -1.68043842       0.03400283
C       -0.17058737      -0.32500066       0.14025067
C       -1.17503280       0.39092003       1.01555432
C       -1.47141428       0.71522569      -0.21296684
C        1.19982698       0.14772182       0.10925328
C        2.32673265       0.54556327       0.11361821
H       -0.99892170      -1.94677766       0.63099816
H       -0.54541685       0.21567898      -1.03468649
H       -2.20628810       1.03712735      -0.93714896
H        3.33035437       0.89997961       0.14112482
10
Frame=2 idx=002135 GeodesicLength=0.22982621505833079 rxn_smarts="[O:1]([C:2]([C:3]#[C:4][H:9])([C:5]#[C:6][H:10])[H:8])[H:7]>>[O:1]([C:2](=[C:3]=[C:4]([H:8])[H:9])[C:5]#[C:6][H:10])[H:7]"
O       -0.27759239      -1.68499441       0.03812619
C       -0.16211219      -0.32634227       0.12769548
C       -1.16039003       0.39862610       0.98875025
C       -1.49371959       0.73201867      -0.22393307
C        1.20970590       0.14365608       0.10439560
C        2.33808965       0.53745588       0.12035114
H       -0.97520265      -1.94959227       0.64942163
H       -0.56098462       0.21953777      -1.05818396
H       -2.26088485       1.04425785      -0.91732830
H        3.34309077       0.88537660       0.17070504
10
Frame=3 idx=002135 GeodesicLength=0.34469954479916975 rxn_smarts="[O:1]([C:2]([C:3]#[C:4][H:9])([C:5]#[C:6][H:10])[H:8])[H:7]>>[O:1]([C:2](=[C:3]=[C:4]([H:8])[H:9])[C:5]#[C:6][H:10])[H:7]"
O       -0.26632917      -1.69034704       0.04279499
C       -0.15312135      -0.32871440       0.11455588
C       -1.14562624       0.40636055       0.95988598
C       -1.51592118       0.74918813      -0.23553150
C        1.22026186       0.13794490       0.09964006
C        2.35006413       0.52749395       0.12706592
H       -0.95186395      -1.95191991       0.66838669
H       -0.57674847       0.22215012      -1.08246453
H       -2.31469792       1.05348462      -0.89506123
H        3.35398229       0.87435908       0.20072774
10
Frame=4 idx=002135 GeodesicLength=0.45955572145381596 rxn_smarts="[O:1]([C:2]([C:3]#[C:4][H:9])([C:5]#[C:6][H:10])[H:8])[H:7]>>[O:1]([C:2](=[C:3]=[C:4]([H:8])[H:9])[C:5]#[C:6][H:10])[H:7]"
O       -0.25430534      -1.69596429       0.04802753
C       -0.14369012      -0.33152864       0.10101530
C       -1.13184921       0.41365813       0.92875125
C       -1.53892713       0.76624111      -0.24797791
C        1.23098072       0.13243335       0.09591008
C        2.36170255       0.51874701       0.13526900
H       -0.92783823      -1.95388393       0.68753221
H       -0.59284132       0.22387031      -1.10746281
H       -2.36831954       1.06429046      -0.87066190
H        3.36508762       0.86213649       0.22959724
10
Frame=5 idx=002135 GeodesicLength=0.5743787231317538 rxn_smarts="[O:1]([C:2]([C:3]#[C:4][H:9])([C:5]#[C:6][H:10])[H:8])[H:7]>>[O:1]([C:2](=[C:3]=[C:4]([H:8])[H:9])[C:5]#[C:6][H:10])[H:7]"
O       -0.24211609      -1.70223203       0.05390768
C       -0.13374550      -0.33525492       0.08687342
C       -1.11842804       0.42057767       0.89524442
C       -1.56230764       0.78333462      -0.26121545
C        1.24210913       0.12606574       0.09269104
C        2.37347201       0.50954803       0.14403690
H       -0.90373394      -1.95541473       0.70712474
H       -0.60934170       0.22423629      -1.13335232
H       -2.42111888       1.07750596      -0.84367753
H        3.37521064       0.85163336       0.25836710
10
Frame=6 idx=002135 GeodesicLength=0.689172387861936 rxn_smarts="[O:1]([C:2]([C:3]#[C:4][H:9])([C:5]#[C:6][H:10])[H:8])[H:7]>>[O:1]([C:2](=[C:3]=[C:4]([H:8])[H:9])[C:5]#[C:6][H:10])[H:7]"
O       -0.22937167      -1.70908866       0.06052336
C       -0.12331348      -0.33984945       0.07219902
C       -1.10579167       0.42675806       0.85919429
C       -1.58638753       0.80016304      -0.27534116
C        1.25343059       0.11936759       0.09042280
C        2.38497476       0.50093338       0.15396552
H       -0.87927758      -1.95662534       0.72706660
H       -0.62634485       0.22311025      -1.16015966
H       -2.47287962       1.09358522      -0.81417169
H        3.38496104       0.84164590       0.28630091
10
Frame=7 idx=002135 GeodesicLength=0.8039331224444579 rxn_smarts="[O:1]([C:2]([C:3]#[C:4][H:9])([C:5]#[C:6][H:10])[H:8])[H:7]>>[O:1]([C:2](=[C:3]=[C:4]([H:8])[H:9])[C:5]#[C:6][H:10])[H:7]"
O       -0.21608897      -1.71657644       0.06793362
C       -0.11234756      -0.34541456       0.05682204
C       -1.09375954       0.43213315       0.82041831
C       -1.61117921       0.81669082      -0.29035088
C        1.26495158       0.11226741       0.08881474
C        2.39624466       0.49279152       0.16455624
H       -0.85448527      -1.95741649       0.74747967
H       -0.64409050       0.22022230      -1.18805505
H       -2.52337753       1.11280750      -0.78178547
H        3.39413236       0.83249479       0.31416677
10
Frame=8 idx=002135 GeodesicLength=0.9186652822970515 rxn_smarts="[O:1]([C:2]([C:3]#[C:4][H:9])([C:5]#[C:6][H:10])[H:8])[H:7]>>[O:1]([C:2](=[C:3]=[C:4]([H:8])[H:9])[C:5]#[C:6][H:10])[H:7]"
O       -0.20309447      -1.72586590       0.07630765
C       -0.10091643      -0.35322661       0.04106550
C       -1.08233002       0.43569879       0.77888737
C       -1.63591467       0.83263723      -0.30622414
C        1.27675944       0.10285884       0.08891659
C        2.40749294       0.48283222       0.17686973
H       -0.83055394      -1.95867371       0.76828873
H       -0.66210523       0.21457148      -1.21690746
H       -2.57006963       1.13902906      -0.74670397
H        3.40073201       0.83013860       0.33950001
10
Frame=9 idx=002135 GeodesicLength=1.033247411650744 rxn_smarts="[O:1]([C:2]([C:3]#[C:4][H:9])([C:5]#[C:6][H:10])[H:8])[H:7]>>[O:1]([C:2](=[C:3]=[C:4]([H:8])[H:9])[C:5]#[C:6][H:10])[H:7]"
O       -0.19026070      -1.73517447       0.08527535
C       -0.08876268      -0.36165185       0.02400877
C       -1.07028475       0.43944227       0.73429246
C       -1.66076409       0.84972283      -0.32257573
C        1.28912227       0.09264402       0.08849872
C        2.41919048       0.47201346       0.18854255
H       -0.80725472      -1.95831081       0.78932010
H       -0.68121325       0.20777617      -1.24714784
H       -2.61589852       1.16434396      -0.70751156
H        3.40612595       0.82919444       0.36729718
10
Frame=10 idx=002135 GeodesicLength=1.1477926236271023 rxn_smarts="[O:1]([C:2]([C:3]#[C:4][H:9])([C:5]#[C:6][H:10])[H:8])[H:7]>>[O:1]([C:2](=[C:3]=[C:4]([H:8])[H:9])[C:5]#[C:6][H:10])[H:7]"
O       -0.17678076      -1.74575937       0.09517438
C       -0.07615604      -0.37188230       0.00644540
C       -1.05955534       0.44084714       0.68644459
C       -1.68636666       0.86572546      -0.33988055
C        1.30121107       0.08179965       0.09027747
C        2.42999235       0.46186754       0.20282224
H       -0.78396887      -1.95830188       0.81051295
H       -0.70113464       0.19814712      -1.27861769
H       -2.65767684       1.19628030      -0.66532263
H        3.41043574       0.83127634       0.39214383
10
Frame=11 idx=002135 GeodesicLength=1.2622821288157366 rxn_smarts="[O:1]([C:2]([C:3]#[C:4][H:9])([C:5]#[C:6][H:10])[H:8])[H:7]>>[O:1]([C:2](=[C:3]=[C:4]([H:8])[H:9])[C:5]#[C:6][H:10])[H:7]"
O       -0.16158889      -1.75674393       0.10608593
C       -0.06308909      -0.38308665      -0.01184119
C       -1.05067115       0.43992508       0.63499723
C       -1.71379056       0.88012226      -0.35818530
C        1.31251328       0.07239821       0.09398731
C        2.43913367       0.45538560       0.21875561
H       -0.75962991      -1.95810008       0.83188040
H       -0.72264348       0.18564055      -1.31160876
H       -2.69591183       1.23341527      -0.61985402
H        3.41567797       0.83104369       0.41578278
10
Frame=12 idx=002135 GeodesicLength=1.3767206823322387 rxn_smarts="[O:1]([C:2]([C:3]#[C:4][H:9])([C:5]#[C:6][H:10])[H:8])[H:7]>>[O:1]([C:2](=[C:3]=[C:4]([H:8])[H:9])[C:5]#[C:6][H:10])[H:7]"
O       -0.14622419      -1.77027527       0.11790222
C       -0.04964464      -0.39754302      -0.03050767
C       -1.04328716       0.43489001       0.57996684
C       -1.74170274       0.89224544      -0.37735183
C        1.32313592       0.06099573       0.10099797
C        2.44691885       0.44819365       0.23868779
H       -0.73629963      -1.95950252       0.85303034
H       -0.74497798       0.16869390      -1.34603859
H       -2.72541627       1.28247664      -0.57074661
H        3.41749783       0.83982543       0.43405954
10
Frame=13 idx=002135 GeodesicLength=1.4909731539372384 rxn_smarts="[O:1]([C:2]([C:3]#[C:4][H:9])([C:5]#[C:6][H:10])[H:8])[H:7]>>[O:1]([C:2](=[C:3]=[C:4]([H:8])[H:9])[C:5]#[C:6][H:10])[H:7]"
O       -0.12997941      -1.78057289       0.13032176
C       -0.03538249      -0.40979037      -0.05119255
C       -1.03544941       0.43173305       0.52084512
C       -1.77072666       0.90720451      -0.39614644
C        1.33349453       0.05324949       0.10682070
C        2.45412120       0.44513690       0.25703104
H       -0.71265850      -1.95609977       0.87428904
H       -0.77015631       0.15213998      -1.38252827
H       -2.75656695       1.31971138      -0.51741095
H        3.42330401       0.83728773       0.45797056
10
Frame=14 idx=002135 GeodesicLength=1.605055951069505 rxn_smarts="[O:1]([C:2]([C:3]#[C:4][H:9])([C:5]#[C:6][H:10])[H:8])[H:7]>>[O:1]([C:2](=[C:3]=[C:4]([H:8])[H:9])[C:5]#[C:6][H:10])[H:7]"
O       -0.11294845      -1.79297608       0.14314301
C       -0.02085663      -0.42487068      -0.07173424
C       -1.03023845       0.42332578       0.45810986
C       -1.80081967       0.91915198      -0.41509959
C        1.34204479       0.04520250       0.11819941
C        2.45843680       0.44384159       0.28201629
H       -0.69018395      -1.95484090       0.89402232
H       -0.79623604       0.13129362      -1.42040127
H       -2.77661726       1.36855410      -0.46129902
H        3.42741885       0.84131809       0.47304324
10
Frame=15 idx=002135 GeodesicLength=1.7190874870931638 rxn_smarts="[O:1]([C:2]([C:3]#[C:4][H:9])([C:5]#[C:6][H:10])[H:8])[H:7]>>[O:1]([C:2](=[C:3]=[C:4]([H:8])[H:9])[C:5]#[C:6][H:10])[H:7]"
O       -0.09305204      -1.80276974       0.15655786
C       -0.00574421      -0.43815302      -0.09294509
C       -1.02766338       0.41329372       0.39106212
C       -1.83393775       0.92982505      -0.43385592
C        1.34819995       0.04348105       0.13293897
C        2.45905420       0.45185743       0.31025302
H       -0.66638516      -1.95127678       0.91279151
H       -0.82481897       0.10880921      -1.46039632
H       -2.79367582       1.41386303      -0.40266385
H        3.43802317       0.83107004       0.48625770
10
Frame=16 idx=002135 GeodesicLength=1.8328365528244004 rxn_smarts="[O:1]([C:2]([C:3]#[C:4][H:9])([C:5]#[C:6][H:10])[H:8])[H:7]>>[O:1]([C:2](=[C:3]=[C:4]([H:8])[H:9])[C:5]#[C:6][H:10])[H:7]"
O       -0.07208511      -1.81465111       0.16997845
C        0.00960302      -0.45440535      -0.11457896
C       -1.02708366       0.39722659       0.32021528
C       -1.86921509       0.93517813      -0.45088799
C        1.35159600       0.04203052       0.15122322
C        2.45570562       0.46258362       0.34222153
H       -0.64296155      -1.95002611       0.93012943
H       -0.85626942       0.08033601      -1.50224494
H       -2.79300368       1.47357804      -0.34097890
H        3.44371387       0.82814966       0.49492287
