14
Frame=0 idx=005379 GeodesicLength=0.0 rxn_smarts="[C:1]([C:2]#[C:3][C:4]([C:5]([O:6][H:14])([H:12])[H:13])([H:10])[H:11])([H:7])([H:8])[H:9]>>[C:1]([C:2](=[C:3]1[C:4]([H:10])([H:11])[C:5]1([H:12])[H:13])[O:6][H:14])([H:7])([H:8])[H:9]"
C        2.14574945       0.57731699      -0.04963099
C        0.72123592       0.12785703      -0.11877496
C        0.19292100      -0.84060015      -0.82957778
C       -1.34762741      -1.12141172      -0.65807789
C       -1.79358503      -0.08310510       0.22404049
O       -0.14799102       0.96050083       0.70727089
H        2.54474434       0.50640085       0.96862763
H        2.75359926      -0.05204206      -0.69372835
H        2.24919225       1.61702781      -0.37028124
H       -1.79477945      -1.06135248      -1.64857863
H       -1.45983408      -2.12644847      -0.25634425
H       -2.21828615       0.82940658      -0.17057278
H       -2.00001359      -0.27861041       1.26888993
H        0.15467448       0.94506028       1.62673799
14
Frame=1 idx=005379 GeodesicLength=0.10480409798724942 rxn_smarts="[C:1]([C:2]#[C:3][C:4]([C:5]([O:6][H:14])([H:12])[H:13])([H:10])[H:11])([H:7])([H:8])[H:9]>>[C:1]([C:2](=[C:3]1[C:4]([H:10])([H:11])[C:5]1([H:12])[H:13])[O:6][H:14])([H:7])([H:8])[H:9]"
C        2.15863689       0.57397698      -0.05495596
C        0.73146405       0.13718366      -0.11334675
C        0.18532770      -0.85130180      -0.77360209
C       -1.35208673      -1.12288617      -0.67042441
C       -1.78623014      -0.09376822       0.23554342
O       -0.16634812       0.98969113       0.71041165
H        2.55795854       0.52336781       0.96417212
H        2.76187084      -0.07440952      -0.68473872
H        2.27035130       1.60495897      -0.40005793
H       -1.77477473      -1.02657602      -1.66861260
H       -1.49088775      -2.13489048      -0.29529054
H       -2.25175604       0.80335583      -0.14909781
H       -1.99424843      -0.31429599       1.27551518
H        0.15072262       0.98559381       1.62448443
14
Frame=2 idx=005379 GeodesicLength=0.20934826744000762 rxn_smarts="[C:1]([C:2]#[C:3][C:4]([C:5]([O:6][H:14])([H:12])[H:13])([H:10])[H:11])([H:7])([H:8])[H:9]>>[C:1]([C:2](=[C:3]1[C:4]([H:10])([H:11])[C:5]1([H:12])[H:13])[O:6][H:14])([H:7])([H:8])[H:9]"
C        2.17114414       0.56974718      -0.06055806
C        0.74127315       0.14644189      -0.10868592
C        0.17649289      -0.85959587      -0.71700260
C       -1.35523406      -1.12315005      -0.68252737
C       -1.77971034      -0.10428728       0.24708074
O       -0.18606741       1.01884890       0.71319554
H        2.57079267       0.53936000       0.95903059
H        2.76930348      -0.09762563      -0.67555732
H        2.29138381       1.59131930      -0.42990311
H       -1.75246990      -0.99163160      -1.68696343
H       -1.51869781      -2.14108170      -0.33430881
H       -2.28561912       0.77582336      -0.12677060
H       -1.98862017      -0.34979042       1.28172449
H        0.14602868       1.02562192       1.62124586
14
Frame=3 idx=005379 GeodesicLength=0.3136780218346822 rxn_smarts="[C:1]([C:2]#[C:3][C:4]([C:5]([O:6][H:14])([H:12])[H:13])([H:10])[H:11])([H:7])([H:8])[H:9]>>[C:1]([C:2](=[C:3]1[C:4]([H:10])([H:11])[C:5]1([H:12])[H:13])[O:6][H:14])([H:7])([H:8])[H:9]"
C        2.18331886       0.56448311      -0.06621416
C        0.75066298       0.15570186      -0.10491608
C        0.16617683      -0.86395885      -0.66201126
C       -1.35697183      -1.12226114      -0.69417979
C       -1.77408129      -0.11441591       0.25850519
O       -0.20717864       1.04800352       0.71566439
H        2.58316817       0.55349727       0.95347296
H        2.77589199      -0.12154166      -0.66630493
H        2.31260288       1.57617718      -0.45892734
H       -1.72936074      -0.95763656      -1.70307837
H       -1.54173227      -2.14518778      -0.37228257
H       -2.31971119       0.74695759      -0.10412976
H       -1.98335607      -0.38473584       1.28736065
H        0.14057031       1.06491721       1.61704106
14
Frame=4 idx=005379 GeodesicLength=0.41783379036955104 rxn_smarts="[C:1]([C:2]#[C:3][C:4]([C:5]([O:6][H:14])([H:12])[H:13])([H:10])[H:11])([H:7])([H:8])[H:9]>>[C:1]([C:2](=[C:3]1[C:4]([H:10])([H:11])[C:5]1([H:12])[H:13])[O:6][H:14])([H:7])([H:8])[H:9]"
C        2.19524254       0.55817688      -0.07173379
C        0.75971724       0.16498970      -0.10201711
C        0.15441883      -0.86366132      -0.61028062
C       -1.35738715      -1.12033377      -0.70526670
C       -1.76929467      -0.12397446       0.26972733
O       -0.22966208       1.07717155       0.71791078
H        2.59510773       0.56533646       0.94776374
H        2.78171867      -0.14596380      -0.65704160
H        2.33420021       1.55970800      -0.48654214
H       -1.70680838      -0.92526321      -1.71679547
H       -1.55933839      -2.14754481      -0.40841919
H       -2.35380417       0.71689389      -0.08156869
H       -1.97850120      -0.41892167       1.29232914
H        0.13439082       1.10338656       1.61193432
14
Frame=5 idx=005379 GeodesicLength=0.5218648419939624 rxn_smarts="[C:1]([C:2]#[C:3][C:4]([C:5]([O:6][H:14])([H:12])[H:13])([H:10])[H:11])([H:7])([H:8])[H:9]>>[C:1]([C:2](=[C:3]1[C:4]([H:10])([H:11])[C:5]1([H:12])[H:13])[O:6][H:14])([H:7])([H:8])[H:9]"
C        2.20699953       0.55089532      -0.07698892
C        0.76855593       0.17429179      -0.09986927
C        0.14142324      -0.85864700      -0.56266939
C       -1.35666168      -1.11747555      -0.71577134
C       -1.76524483      -0.13288955       0.28073564
O       -0.25349900       1.10637767       0.72002358
H        2.60668051       0.57485893       0.94210616
H        2.78690244      -0.17076445      -0.64772540
H        2.35625661       1.54207145      -0.51254045
H       -1.68575375      -0.89468448      -1.72825017
H       -1.57159207      -2.14851170      -0.44238415
H       -2.38769371       0.68569515      -0.05924962
H       -1.97392035      -0.45232569       1.29661222
H        0.12754714       1.14110811       1.60597112
14
Frame=6 idx=005379 GeodesicLength=0.6257750150311074 rxn_smarts="[C:1]([C:2]#[C:3][C:4]([C:5]([O:6][H:14])([H:12])[H:13])([H:10])[H:11])([H:7])([H:8])[H:9]>>[C:1]([C:2](=[C:3]1[C:4]([H:10])([H:11])[C:5]1([H:12])[H:13])[O:6][H:14])([H:7])([H:8])[H:9]"
C        2.21864861       0.54275924      -0.08194565
C        0.77729010       0.18358374      -0.09831657
C        0.12746308      -0.84932551      -0.51931543
C       -1.35498039      -1.11378894      -0.72570256
C       -1.76183259      -0.14112476       0.29153297
O       -0.27866898       1.13559367       0.72217972
H        2.61801214       0.58223585       0.93657338
H        2.79152578      -0.19579123      -0.63839535
H        2.37872317       1.52345039      -0.53692674
H       -1.66663344      -0.86582696      -1.73772532
H       -1.57899848      -2.14837704      -0.47410198
H       -2.42114562       0.65343877      -0.03730925
H       -1.96953018      -0.48495651       1.30019673
H        0.12012681       1.17812928       1.59925606
14
Frame=7 idx=005379 GeodesicLength=0.7295840062571269 rxn_smarts="[C:1]([C:2]#[C:3][C:4]([C:5]([O:6][H:14])([H:12])[H:13])([H:10])[H:11])([H:7])([H:8])[H:9]>>[C:1]([C:2](=[C:3]1[C:4]([H:10])([H:11])[C:5]1([H:12])[H:13])[O:6][H:14])([H:7])([H:8])[H:9]"
C        2.23023364       0.53385537      -0.08659085
C        0.78600865       0.19284064      -0.09721418
C        0.11277415      -0.83618120      -0.48004568
C       -1.35250187      -1.10932814      -0.73511214
C       -1.75896722      -0.14871742       0.30217533
O       -0.30519955       1.16483346       0.72448414
H        2.62918934       0.58774041       0.93121091
H        2.79565545      -0.22101733      -0.62899393
H        2.40155427       1.50392139      -0.55985966
H       -1.64961663      -0.83842432      -1.74552184
H       -1.58214023      -2.14734105      -0.50373996
H       -2.45402893       0.62011178      -0.01571482
H       -1.96513671      -0.51693154       1.30312492
H        0.11217562       1.21463796       1.59179777
14
Frame=8 idx=005379 GeodesicLength=0.8332985732145203 rxn_smarts="[C:1]([C:2]#[C:3][C:4]([C:5]([O:6][H:14])([H:12])[H:13])([H:10])[H:11])([H:7])([H:8])[H:9]>>[C:1]([C:2](=[C:3]1[C:4]([H:10])([H:11])[C:5]1([H:12])[H:13])[O:6][H:14])([H:7])([H:8])[H:9]"
C        2.24178015       0.52424377      -0.09092749
C        0.79477372       0.20204818      -0.09644849
C        0.09754811      -0.81966586      -0.44455364
C       -1.34934866      -1.10412084      -0.74405597
C       -1.75657449      -0.15572436       0.31272631
O       -0.33314611       1.19411619       0.72702796
H        2.64027696       0.59161898       0.92603482
H        2.79932383      -0.24645359      -0.61946684
H        2.42470371       1.48351637      -0.58151381
H       -1.63472071      -0.81218664      -1.75190751
H       -1.58154935      -2.14552741      -0.53152707
H       -2.48624862       0.58567055       0.00560265
H       -1.96053867      -0.54837687       1.30544688
H        0.10372013       1.25084153       1.58356220
14
Frame=9 idx=005379 GeodesicLength=0.9369341859437784 rxn_smarts="[C:1]([C:2]#[C:3][C:4]([C:5]([O:6][H:14])([H:12])[H:13])([H:10])[H:11])([H:7])([H:8])[H:9]>>[C:1]([C:2](=[C:3]1[C:4]([H:10])([H:11])[C:5]1([H:12])[H:13])[O:6][H:14])([H:7])([H:8])[H:9]"
C        2.25330318       0.51395587      -0.09496277
C        0.80363594       0.21118505      -0.09591487
C        0.08192432      -0.80016729      -0.41248842
C       -1.34561203      -1.09816212      -0.75259958
C       -1.75459444      -0.16222197       0.32326029
O       -0.36259478       1.22346292       0.72988500
H        2.65131826       0.59413158       0.92104249
H        2.80254907      -0.27216496      -0.60971170
H        2.44812421       1.46219760      -0.60210763
H       -1.62188003      -0.78679360      -1.75710516
H       -1.57767683      -2.14299431      -0.55774975
H       -2.51774004       0.55004081       0.02676143
H       -1.95551443      -0.57943680       1.30722006
H        0.09475759       1.28696722       1.57447064
14
Frame=10 idx=005379 GeodesicLength=1.0404935987930508 rxn_smarts="[C:1]([C:2]#[C:3][C:4]([C:5]([O:6][H:14])([H:12])[H:13])([H:10])[H:11])([H:7])([H:8])[H:9]>>[C:1]([C:2](=[C:3]1[C:4]([H:10])([H:11])[C:5]1([H:12])[H:13])[O:6][H:14])([H:7])([H:8])[H:9]"
C        2.26481328       0.50297909      -0.09866040
C        0.81261233       0.22029819      -0.09562515
C        0.06599147      -0.77789140      -0.38366854
C       -1.34138000      -1.09143629      -0.76080598
C       -1.75295589      -0.16830105       0.33386383
O       -0.39367269       1.25294613       0.73302902
H        2.66229020       0.59532553       0.91630672
H        2.80531689      -0.29822764      -0.59964194
H        2.47187787       1.43993110      -0.62166641
H       -1.61114418      -0.76200752      -1.76127019
H       -1.57080401      -2.13976932      -0.58264171
H       -2.54848358       0.51306929       0.04794894
H       -1.94971929      -0.61025094       1.30853290
H        0.08525759       1.32333482       1.56429891
14
Frame=11 idx=005379 GeodesicLength=1.1439772317955834 rxn_smarts="[C:1]([C:2]#[C:3][C:4]([C:5]([O:6][H:14])([H:12])[H:13])([H:10])[H:11])([H:7])([H:8])[H:9]>>[C:1]([C:2](=[C:3]1[C:4]([H:10])([H:11])[C:5]1([H:12])[H:13])[O:6][H:14])([H:7])([H:8])[H:9]"
C        2.27632197       0.49128723      -0.10198105
C        0.82172399       0.22942946      -0.09559557
C        0.04980511      -0.75300158      -0.35791592
C       -1.33673245      -1.08389918      -0.76874244
C       -1.75159841      -0.17406838       0.34462900
O       -0.42653205       1.28261991       0.73643251
H        2.67315915       0.59527352       0.91189260
H        2.80761403      -0.32474573      -0.58911966
H        2.49603482       1.41663171      -0.64024773
H       -1.60255295      -0.73756324      -1.76451767
H       -1.56116111      -2.13582975      -0.60646615
H       -2.57845732       0.47457823       0.06938477
H       -1.94279646      -0.64097653       1.30946941
H        0.07517168       1.36026433       1.55277790
14
Frame=12 idx=005379 GeodesicLength=1.247404722400894 rxn_smarts="[C:1]([C:2]#[C:3][C:4]([C:5]([O:6][H:14])([H:12])[H:13])([H:10])[H:11])([H:7])([H:8])[H:9]>>[C:1]([C:2](=[C:3]1[C:4]([H:10])([H:11])[C:5]1([H:12])[H:13])[O:6][H:14])([H:7])([H:8])[H:9]"
C        2.28795980       0.47885905      -0.10483986
C        0.83102819       0.23865745      -0.09589742
C        0.03337349      -0.72556586      -0.33515472
C       -1.33184643      -1.07549979      -0.77650976
C       -1.75053191      -0.17968864       0.35566772
O       -0.46136672       1.31258141       0.73998321
H        2.68400483       0.59404364       0.90796267
H        2.80954058      -0.35185652      -0.57790176
H        2.52086585       1.39223843      -0.65790501
H       -1.59634928      -0.71315963      -1.76698110
H       -1.54899230      -2.13118160      -0.62949885
H       -2.60778953       0.43429260       0.09136571
H       -1.93435524      -0.67187902       1.31018158
H        0.06445865       1.39815848       1.53952759
14
Frame=13 idx=005379 GeodesicLength=1.3507390688296481 rxn_smarts="[C:1]([C:2]#[C:3][C:4]([C:5]([O:6][H:14])([H:12])[H:13])([H:10])[H:11])([H:7])([H:8])[H:9]>>[C:1]([C:2](=[C:3]1[C:4]([H:10])([H:11])[C:5]1([H:12])[H:13])[O:6][H:14])([H:7])([H:8])[H:9]"
C        2.29936091       0.46562236      -0.10732120
C        0.84039041       0.24782669      -0.09625019
C        0.01676904      -0.69564594      -0.31507570
C       -1.32652500      -1.06606037      -0.78420079
C       -1.74944105      -0.18512109       0.36700573
O       -0.49826366       1.34257841       0.74427523
H        2.69453678       0.59245852       0.90422098
H        2.81067084      -0.37993670      -0.56549771
H        2.54582067       1.36614991      -0.67537423
H       -1.59211614      -0.68854454      -1.76869642
H       -1.53428913      -2.12555981      -0.65214154
H       -2.63579937       0.39224543       0.11392408
H       -1.92414079      -0.70287985       1.31044421
H        0.05302649       1.43686699       1.52468754
14
Frame=14 idx=005379 GeodesicLength=1.4540462973453876 rxn_smarts="[C:1]([C:2]#[C:3][C:4]([C:5]([O:6][H:14])([H:12])[H:13])([H:10])[H:11])([H:7])([H:8])[H:9]>>[C:1]([C:2](=[C:3]1[C:4]([H:10])([H:11])[C:5]1([H:12])[H:13])[O:6][H:14])([H:7])([H:8])[H:9]"
C        2.31063394       0.45133279      -0.10906502
C        0.84984784       0.25732766      -0.09742910
C       -0.00004285      -0.66295896      -0.29828650
C       -1.32097428      -1.05556265      -0.79183166
C       -1.74818567      -0.19060976       0.37887595
O       -0.53768456       1.37310425       0.74818847
H        2.70434242       0.58860454       0.90141814
H        2.81099809      -0.40871629      -0.55255633
H        2.57166880       1.33881174      -0.69081995
H       -1.59068326      -0.66366061      -1.76953500
H       -1.51684003      -2.11893920      -0.67438009
H       -2.66284396       0.34768216       0.13801790
H       -1.91077347      -0.73409741       1.31072094
H        0.04053701       1.47768177       1.50668225
14
Frame=15 idx=005379 GeodesicLength=1.5572711023629782 rxn_smarts="[C:1]([C:2]#[C:3][C:4]([C:5]([O:6][H:14])([H:12])[H:13])([H:10])[H:11])([H:7])([H:8])[H:9]>>[C:1]([C:2](=[C:3]1[C:4]([H:10])([H:11])[C:5]1([H:12])[H:13])[O:6][H:14])([H:7])([H:8])[H:9]"
C        2.32192182       0.43604117      -0.11005307
C        0.85945244       0.26711769      -0.09923981
C       -0.01712783      -0.62747848      -0.28460748
C       -1.31542294      -1.04388524      -0.79956756
C       -1.74676882      -0.19629513       0.39132455
O       -0.57976328       1.40399252       0.75220576
H        2.71372136       0.58331836       0.89954645
H        2.81059482      -0.43851880      -0.53839912
H        2.59855922       1.30993118      -0.70499574
H       -1.59228336      -0.63821951      -1.76966979
H       -1.49701511      -2.11123656      -0.69658656
H       -2.68874426       0.30040709       0.16367054
H       -1.89417419      -0.76580274       1.31096547
H        0.02705013       1.52062845       1.48540637
14
Frame=16 idx=005379 GeodesicLength=1.660453704619609 rxn_smarts="[C:1]([C:2]#[C:3][C:4]([C:5]([O:6][H:14])([H:12])[H:13])([H:10])[H:11])([H:7])([H:8])[H:9]>>[C:1]([C:2](=[C:3]1[C:4]([H:10])([H:11])[C:5]1([H:12])[H:13])[O:6][H:14])([H:7])([H:8])[H:9]"
C        2.33302653       0.41953223      -0.11007822
C        0.86912143       0.27735020      -0.10200989
C       -0.03452954      -0.58887677      -0.27438045
C       -1.30991053      -1.03079752      -0.80754252
C       -1.74482019      -0.20232667       0.40452709
O       -0.62485193       1.43526791       0.75622668
H        2.72215323       0.57633574       0.89890465
H        2.80913167      -0.46963273      -0.52268477
H        2.62666034       1.27913434      -0.71753995
H       -1.59735432      -0.61193332      -1.76897376
H       -1.47460051      -2.10214465      -0.71915398
H       -2.71309881       0.24988110       0.19161110
H       -1.87320504      -0.79809395       1.31121829
H        0.01227767       1.56630409       1.45987574
