13
Frame=0 idx=005994 GeodesicLength=0.0 rxn_smarts="[C:1]([C@@:2]1([C:5]#[C:6][H:13])[C:3]([H:10])([H:11])[N:4]1[H:12])([H:7])([H:8])[H:9]>>[C:1](=[C:2]([C:5]#[C:6][H:13])[H:8])([H:7])[H:9].[C:3](=[N:4][H:12])([H:10])[H:11]"
C       -0.81709145       0.66817216      -1.34583010
C       -0.01231568       0.32052781      -0.24522767
C       -0.63658688       0.32350758       1.28737399
N       -1.04913907      -0.97000437       1.30344738
C        1.12229643      -0.54085879      -0.44672967
C        2.10444405      -1.20640860      -0.61135172
H       -0.73870085       0.18043953      -2.31056615
H        0.24331333       1.42458713      -0.60760837
H       -1.58015713       1.42407800      -1.20700992
H        0.16240922       0.66253140       1.95701940
H       -1.43561000       1.07019075       1.24398187
H       -0.33251300      -1.54705782       1.73605271
H        2.96965107      -1.80970484      -0.75355171
13
Frame=1 idx=005994 GeodesicLength=0.09282541877261119 rxn_smarts="[C:1]([C@@:2]1([C:5]#[C:6][H:13])[C:3]([H:10])([H:11])[N:4]1[H:12])([H:7])([H:8])[H:9]>>[C:1](=[C:2]([C:5]#[C:6][H:13])[H:8])([H:7])[H:9].[C:3](=[N:4][H:12])([H:10])[H:11]"
C       -0.81745108       0.67093223      -1.36087571
C       -0.02036693       0.31635251      -0.25668891
C       -0.62911884       0.33024015       1.30963154
N       -1.05242419      -0.95922813       1.29373927
C        1.12024686      -0.53730359      -0.45698697
C        2.10055983      -1.20999786      -0.60232469
H       -0.73767844       0.17736369      -2.32256114
H        0.22695353       1.43690265      -0.61900893
H       -1.59813331       1.40843457      -1.22112201
H        0.18882482       0.64396327       1.96778245
H       -1.41991623       1.08596381       1.28770268
H       -0.33503764      -1.55566462       1.69781497
H        2.97354161      -1.80795868      -0.71710254
13
Frame=2 idx=005994 GeodesicLength=0.1856435567389077 rxn_smarts="[C:1]([C@@:2]1([C:5]#[C:6][H:13])[C:3]([H:10])([H:11])[N:4]1[H:12])([H:7])([H:8])[H:9]>>[C:1](=[C:2]([C:5]#[C:6][H:13])[H:8])([H:7])[H:9].[C:3](=[N:4][H:12])([H:10])[H:11]"
C       -0.81757167       0.67365914      -1.37642868
C       -0.02869175       0.31184679      -0.26844190
C       -0.62082201       0.33646874       1.33236873
N       -1.05602777      -0.94768377       1.28437875
C        1.11803322      -0.53395392      -0.46726294
C        2.09588328      -1.21400990      -0.59387838
H       -0.73582105       0.17462013      -2.33516573
H        0.21004215       1.44924631      -0.63027728
H       -1.61608961       1.39166811      -1.23589616
H        0.21552748       0.62441263       1.97822056
H       -1.40262740       1.10122118       1.33279241
H       -0.33915401      -1.56314334       1.65978329
H        2.97731912      -1.80435210      -0.68019268
13
Frame=3 idx=005994 GeodesicLength=0.27844860797137105 rxn_smarts="[C:1]([C@@:2]1([C:5]#[C:6][H:13])[C:3]([H:10])([H:11])[N:4]1[H:12])([H:7])([H:8])[H:9]>>[C:1](=[C:2]([C:5]#[C:6][H:13])[H:8])([H:7])[H:9].[C:3](=[N:4][H:12])([H:10])[H:11]"
C       -0.81742294       0.67631990      -1.39249762
C       -0.03727559       0.30710844      -0.28045852
C       -0.61175508       0.34216666       1.35560090
N       -1.05975399      -0.93542779       1.27537767
C        1.11583353      -0.53050176      -0.47742367
C        2.09084010      -1.21781322      -0.58592219
H       -0.73285771       0.17226356      -2.34841814
H        0.19236834       1.46176924      -0.64134915
H       -1.63404361       1.37361750      -1.25150835
H        0.24233177       0.60402129       1.98839038
H       -1.38391763       1.11571861       1.37924627
H       -0.34458652      -1.56941792       1.62206755
H        2.98023934      -1.79982451      -0.64310512
13
Frame=4 idx=005994 GeodesicLength=0.3712234311370067 rxn_smarts="[C:1]([C@@:2]1([C:5]#[C:6][H:13])[C:3]([H:10])([H:11])[N:4]1[H:12])([H:7])([H:8])[H:9]>>[C:1](=[C:2]([C:5]#[C:6][H:13])[H:8])([H:7])[H:9].[C:3](=[N:4][H:12])([H:10])[H:11]"
C       -0.81685059       0.67880084      -1.40908943
C       -0.04601954       0.30240354      -0.29259811
C       -0.60216321       0.34734874       1.37938103
N       -1.06318970      -0.92262164       1.26673481
C        1.11418273      -0.52611433      -0.48703624
C        2.08653311      -1.21981870      -0.57795712
H       -0.72809327       0.17028692      -2.36233301
H        0.17347702       1.47484478      -0.65203733
H       -1.65209259       1.35379077      -1.26828077
H        0.26872729       0.58326017       1.99851163
H       -1.36440425       1.12902240       1.42698020
H       -0.35067639      -1.57429856       1.58489102
H        2.98056939      -1.79690492      -0.60716670
13
Frame=5 idx=005994 GeodesicLength=0.4639618825638979 rxn_smarts="[C:1]([C@@:2]1([C:5]#[C:6][H:13])[C:3]([H:10])([H:11])[N:4]1[H:12])([H:7])([H:8])[H:9]>>[C:1](=[C:2]([C:5]#[C:6][H:13])[H:8])([H:7])[H:9].[C:3](=[N:4][H:12])([H:10])[H:11]"
C       -0.81589215       0.68109943      -1.42619351
C       -0.05495441       0.29770602      -0.30487865
C       -0.59207812       0.35202428       1.40373679
N       -1.06632177      -0.90923355       1.25850305
C        1.11303078      -0.52079352      -0.49608051
C        2.08294527      -1.22003296      -0.57003812
H       -0.72147231       0.16877101      -2.37692654
H        0.15325366       1.48843023      -0.66236059
H       -1.67012691       1.33220155      -1.28635103
H        0.29471006       0.56219978       2.00860445
H       -1.34413729       1.14106454       1.47606022
H       -0.35735701      -1.57775383       1.54835903
H        2.97840021      -1.79568299      -0.57243460
13
Frame=6 idx=005994 GeodesicLength=0.5566641161671688 rxn_smarts="[C:1]([C@@:2]1([C:5]#[C:6][H:13])[C:3]([H:10])([H:11])[N:4]1[H:12])([H:7])([H:8])[H:9]>>[C:1](=[C:2]([C:5]#[C:6][H:13])[H:8])([H:7])[H:9].[C:3](=[N:4][H:12])([H:10])[H:11]"
C       -0.81463889       0.68324689      -1.44379973
C       -0.06415107       0.29290546      -0.31737025
C       -0.58145276       0.35618826       1.42868043
N       -1.06923612      -0.89518131       1.25074202
C        1.11216212      -0.51478373      -0.50466843
C        2.07973847      -1.21892182      -0.56236127
H       -0.71313529       0.16782329      -2.39221854
H        0.13169101       1.50236699      -0.67239767
H       -1.68798267       1.30903969      -1.30580244
H        0.32042027       0.54077224       2.01861375
H       -1.32297747       1.15185494       1.52659003
H       -0.36473693      -1.57980265       1.51253318
H        2.97429930      -1.79550825      -0.53854109
13
Frame=7 idx=005994 GeodesicLength=0.649330546581919 rxn_smarts="[C:1]([C@@:2]1([C:5]#[C:6][H:13])[C:3]([H:10])([H:11])[N:4]1[H:12])([H:7])([H:8])[H:9]>>[C:1](=[C:2]([C:5]#[C:6][H:13])[H:8])([H:7])[H:9].[C:3](=[N:4][H:12])([H:10])[H:11]"
C       -0.81315801       0.68526024      -1.46190155
C       -0.07367518       0.28788801      -0.33013408
C       -0.57023995       0.35983694       1.45422546
N       -1.07202601      -0.88037122       1.24351042
C        1.11137490      -0.50833332      -0.51288314
C        2.07660161      -1.21694725      -0.55503814
H       -0.70319023       0.16753097      -2.40822225
H        0.10879376       1.51649479      -0.68222059
H       -1.70549649       1.28448910      -1.32673222
H        0.34597545       0.51889924       2.02849119
H       -1.30077169       1.16139632       1.57866204
H       -0.37295942      -1.58045906       1.47748790
H        2.96877125      -1.79568478      -0.50524504
13
Frame=8 idx=005994 GeodesicLength=0.7419588217325437 rxn_smarts="[C:1]([C@@:2]1([C:5]#[C:6][H:13])[C:3]([H:10])([H:11])[N:4]1[H:12])([H:7])([H:8])[H:9]>>[C:1](=[C:2]([C:5]#[C:6][H:13])[H:8])([H:7])[H:9].[C:3](=[N:4][H:12])([H:10])[H:11]"
C       -0.81148548       0.68712942      -1.48050124
C       -0.08354768       0.28265238      -0.34320226
C       -0.55844610       0.36297169       1.48038968
N       -1.07460489      -0.86478512       1.23683035
C        1.11067945      -0.50134746      -0.52071418
C        2.07371497      -1.21383547      -0.54808652
H       -0.69157013       0.16797535      -2.42494760
H        0.08438356       1.53080659      -0.69185097
H       -1.72261867       1.25852965      -1.34928385
H        0.37136815       0.49666572       2.03824037
H       -1.27756883       1.16954795       1.63234378
H       -0.38189237      -1.57969251       1.44330608
H        2.96158803      -1.79661820      -0.47252364
13
Frame=9 idx=005994 GeodesicLength=0.8345525588728925 rxn_smarts="[C:1]([C@@:2]1([C:5]#[C:6][H:13])[C:3]([H:10])([H:11])[N:4]1[H:12])([H:7])([H:8])[H:9]>>[C:1](=[C:2]([C:5]#[C:6][H:13])[H:8])([H:7])[H:9].[C:3](=[N:4][H:12])([H:10])[H:11]"
C       -0.80976956       0.68893032      -1.49960339
C       -0.09395348       0.27678239      -0.35676069
C       -0.54579142       0.36551017       1.50713367
N       -1.07746741      -0.84813334       1.23078992
C        1.10933642      -0.49498292      -0.52857401
C        2.07006184      -1.21120330      -0.54173379
H       -0.67891407       0.16922081      -2.44241628
H        0.05892878       1.54476033      -0.70151039
H       -1.73897949       1.23190692      -1.37340995
H        0.39707509       0.47344027       2.04759101
H       -1.25254332       1.17655579       1.68778847
H       -0.39243040      -1.57766412       1.40996835
H        2.95444702      -1.79512332      -0.43926294
13
Frame=10 idx=005994 GeodesicLength=0.9271039328822048 rxn_smarts="[C:1]([C@@:2]1([C:5]#[C:6][H:13])[C:3]([H:10])([H:11])[N:4]1[H:12])([H:7])([H:8])[H:9]>>[C:1](=[C:2]([C:5]#[C:6][H:13])[H:8])([H:7])[H:9].[C:3](=[N:4][H:12])([H:10])[H:11]"
C       -0.80785826       0.69052758      -1.51921038
C       -0.10474927       0.27064989      -0.37065114
C       -0.53260877       0.36757865       1.53455435
N       -1.07999085      -0.83060518       1.22538480
C        1.10810557      -0.48796061      -0.53591865
C        2.06681336      -1.20722630      -0.53555448
H       -0.66435267       0.17131256      -2.46059155
H        0.03167037       1.55882606      -0.71101032
H       -1.75478673       1.20385866      -1.39949163
H        0.42252157       0.45006208       2.05685968
H       -1.22664249       1.18190316       1.74495023
H       -0.40351289      -1.57410138       1.37776766
H        2.94539106      -1.79482519      -0.40708855
13
Frame=11 idx=005994 GeodesicLength=1.0196151074077002 rxn_smarts="[C:1]([C@@:2]1([C:5]#[C:6][H:13])[C:3]([H:10])([H:11])[N:4]1[H:12])([H:7])([H:8])[H:9]>>[C:1](=[C:2]([C:5]#[C:6][H:13])[H:8])([H:7])[H:9].[C:3](=[N:4][H:12])([H:10])[H:11]"
C       -0.80577264       0.69191018      -1.53933050
C       -0.11597434       0.26416900      -0.38492622
C       -0.51887793       0.36919618       1.56267343
N       -1.08217706      -0.81211101       1.22065018
C        1.10689920      -0.48035919      -0.54276354
C        2.06395085      -1.20194058      -0.52951581
H       -0.64786774       0.17434356      -2.47946102
H        0.00250418       1.57287770      -0.72040714
H       -1.76991944       1.17443828      -1.42766399
H        0.44775904       0.42655768       2.06602858
H       -1.19981767       1.18549630       1.80392114
H       -0.41516908      -1.56898763       1.34680604
H        2.93446261      -1.79559047      -0.37601117
13
Frame=12 idx=005994 GeodesicLength=1.112090470729496 rxn_smarts="[C:1]([C@@:2]1([C:5]#[C:6][H:13])[C:3]([H:10])([H:11])[N:4]1[H:12])([H:7])([H:8])[H:9]>>[C:1](=[C:2]([C:5]#[C:6][H:13])[H:8])([H:7])[H:9].[C:3](=[N:4][H:12])([H:10])[H:11]"
C       -0.80353722       0.69308330      -1.55997473
C       -0.12768161       0.25722553      -0.39965467
C       -0.50455868       0.37037732       1.59150637
N       -1.08405123      -0.79253531       1.21661568
C        1.10558424      -0.47233176      -0.54915679
C        2.06131474      -1.19557644      -0.52360890
H       -0.62950020       0.17841059      -2.49900229
H       -0.02862514       1.58675241      -0.72977207
H       -1.78423484       1.14377037      -1.45804549
H        0.47286208       0.40291625       2.07505442
H       -1.17196821       1.18723750       1.86479975
H       -0.42749077      -1.56231144       1.31717654
H        2.92188685      -1.79701832      -0.34593782
13
Frame=13 idx=005994 GeodesicLength=1.2045309389237582 rxn_smarts="[C:1]([C@@:2]1([C:5]#[C:6][H:13])[C:3]([H:10])([H:11])[N:4]1[H:12])([H:7])([H:8])[H:9]>>[C:1](=[C:2]([C:5]#[C:6][H:13])[H:8])([H:7])[H:9].[C:3](=[N:4][H:12])([H:10])[H:11]"
C       -0.80110710       0.69399513      -1.58115007
C       -0.13986317       0.24980196      -0.41484043
C       -0.48972574       0.37120296       1.62110822
N       -1.08550330      -0.77179960       1.21331243
C        1.10425416      -0.46367044      -0.55495485
C        2.05915625      -1.18774958      -0.51762492
H       -0.60903033       0.18358588      -2.51915265
H       -0.06197292       1.60039749      -0.73912500
H       -1.79763672       1.11168796      -1.49083690
H        0.49773661       0.37938206       2.08401881
H       -1.14328355       1.18694800       1.92766458
H       -0.44031452      -1.55398480       1.28904599
H        2.90729034      -1.79979701      -0.31746522
13
Frame=14 idx=005994 GeodesicLength=1.296949375524908 rxn_smarts="[C:1]([C@@:2]1([C:5]#[C:6][H:13])[C:3]([H:10])([H:11])[N:4]1[H:12])([H:7])([H:8])[H:9]>>[C:1](=[C:2]([C:5]#[C:6][H:13])[H:8])([H:7])[H:9].[C:3](=[N:4][H:12])([H:10])[H:11]"
C       -0.79853208       0.69469377      -1.60287483
C       -0.15261337       0.24169848      -0.43060672
C       -0.47426149       0.37166206       1.65147317
N       -1.08664464      -0.74970815       1.21074960
C        1.10262691      -0.45476937      -0.56032344
C        2.05697262      -1.17917821      -0.51165165
H       -0.58667248       0.18998877      -2.53987733
H       -0.09745146       1.61354643      -0.74858848
H       -1.80993301       1.07850338      -1.52610489
H        0.52255325       0.35578590       2.09280025
H       -1.11346236       1.18453200       1.99264487
H       -0.45394830      -1.54402283       1.26245726
H        2.89136640      -1.80273224      -0.29009781
13
Frame=15 idx=005994 GeodesicLength=1.3893447982995881 rxn_smarts="[C:1]([C@@:2]1([C:5]#[C:6][H:13])[C:3]([H:10])([H:11])[N:4]1[H:12])([H:7])([H:8])[H:9]>>[C:1](=[C:2]([C:5]#[C:6][H:13])[H:8])([H:7])[H:9].[C:3](=[N:4][H:12])([H:10])[H:11]"
C       -0.79573922       0.69509906      -1.62515023
C       -0.16590369       0.23289760      -0.44694464
C       -0.45828091       0.37188051       1.68267775
N       -1.08731544      -0.72615370       1.20895439
C        1.10085772      -0.44531710      -0.56505474
C        2.05513601      -1.16927344      -0.50538949
H       -0.56214643       0.19767823      -2.56106174
H       -0.13537251       1.62613193      -0.75819532
H       -1.82099783       1.04396526      -1.56407101
H        0.54716674       0.33249093       2.10152201
H       -1.08280196       1.17974878       2.05983130
H       -0.46816566      -1.53229378       1.23760953
H        2.87356317      -1.80685429      -0.26472781
13
Frame=16 idx=005994 GeodesicLength=1.481729223550024 rxn_smarts="[C:1]([C@@:2]1([C:5]#[C:6][H:13])[C:3]([H:10])([H:11])[N:4]1[H:12])([H:7])([H:8])[H:9]>>[C:1](=[C:2]([C:5]#[C:6][H:13])[H:8])([H:7])[H:9].[C:3](=[N:4][H:12])([H:10])[H:11]"
C       -0.79274125       0.69522000      -1.64798798
C       -0.17979178       0.22323251      -0.46395272
C       -0.44172941       0.37190233       1.71474243
N       -1.08752616      -0.70092226       1.20792111
C        1.09879219      -0.43549671      -0.56921195
C        2.05335137      -1.15841725      -0.49881334
H       -0.53553663       0.20676888      -2.58261889
H       -0.17575475       1.63791766      -0.76806965
H       -1.83063859       1.00822981      -1.60483895
H        0.57165535       0.30950886       2.11012938
H       -1.05118159       1.17238953       2.12936338
H       -0.48313520      -1.51874430       1.21458280
H        2.85423645      -1.81158905      -0.24124564
