12
Frame=0 idx=005828 GeodesicLength=0.0 rxn_smarts="[N:1]([C@@:2]([C:3]([O:4][H:12])([H:10])[H:11])([C:5]#[N:6])[H:9])([H:7])[H:8]>>[C:5]=[N:6][H:8].[N:1](=[C:2](/[C:3]([O:4][H:12])([H:10])[H:11])[H:9])\[H:7]"
N        0.78217494       0.80354162       0.90187736
C        0.08551534      -0.25439755       0.69749490
C       -0.89171410      -0.41854236      -0.42723973
O       -2.16250075      -0.34292973       0.19441348
C        1.84609363      -0.79561895      -1.17016930
N        1.85011829       0.26753398      -1.65083764
H        1.36566420       0.88563820       1.71992483
H        1.05507119       1.33857877       0.07478897
H        0.01583913      -0.97677641       1.50543865
H       -0.72995139       0.32499536      -1.20714230
H       -0.77180025      -1.40526754      -0.86634523
H       -2.44451026       0.57324465       0.22779598
12
Frame=1 idx=005828 GeodesicLength=0.08010161024542499 rxn_smarts="[N:1]([C@@:2]([C:3]([O:4][H:12])([H:10])[H:11])([C:5]#[N:6])[H:9])([H:7])[H:8]>>[C:5]=[N:6][H:8].[N:1](=[C:2](/[C:3]([O:4][H:12])([H:10])[H:11])[H:9])\[H:7]"
N        0.77152872       0.80580322       0.89810519
C        0.09394420      -0.26868168       0.68730258
C       -0.89879425      -0.42859031      -0.42547622
O       -2.16669270      -0.33663141       0.19782841
C        1.85372229      -0.78090534      -1.18276860
N        1.87368727       0.29307340      -1.63696712
H        1.34637159       0.88733609       1.72283921
H        1.07719043       1.32607530       0.05489798
H        0.00459222      -0.97267264       1.51017464
H       -0.73619849       0.30954157      -1.21087065
H       -0.79137959      -1.41964367      -0.85889798
H       -2.42797169       0.58529546       0.24383256
12
Frame=2 idx=005828 GeodesicLength=0.15989992564276045 rxn_smarts="[N:1]([C@@:2]([C:3]([O:4][H:12])([H:10])[H:11])([C:5]#[N:6])[H:9])([H:7])[H:8]>>[C:5]=[N:6][H:8].[N:1](=[C:2](/[C:3]([O:4][H:12])([H:10])[H:11])[H:9])\[H:7]"
N        0.76086839       0.80793217       0.89402798
C        0.10220421      -0.28260803       0.67719492
C       -0.90590144      -0.43842992      -0.42350429
O       -2.17077476      -0.32993282       0.20129030
C        1.86132940      -0.76614760      -1.19490253
N        1.89700652       0.31762581      -1.62274773
H        1.32714568       0.88878999       1.72526034
H        1.09856184       1.31455282       0.03613004
H       -0.00536817      -0.96904820       1.51343936
H       -0.74243103       0.29398208      -1.21459409
H       -0.81130509      -1.43383373      -0.85078285
H       -2.41133555       0.59711741       0.25918856
12
Frame=3 idx=005828 GeodesicLength=0.23944037699042753 rxn_smarts="[N:1]([C@@:2]([C:3]([O:4][H:12])([H:10])[H:11])([C:5]#[N:6])[H:9])([H:7])[H:8]>>[C:5]=[N:6][H:8].[N:1](=[C:2](/[C:3]([O:4][H:12])([H:10])[H:11])[H:9])\[H:7]"
N        0.75020239       0.80993526       0.88971595
C        0.11026439      -0.29615273       0.66715430
C       -0.91305608      -0.44807741      -0.42133432
O       -2.17476788      -0.32286040       0.20477310
C        1.86892081      -0.75129635      -1.20655782
N        1.92012536       0.34128477      -1.60816687
H        1.30815446       0.88988365       1.72717034
H        1.11918909       1.30404415       0.01832392
H       -0.01414164      -0.96591752       1.51538565
H       -0.74867722       0.27828750      -1.21832655
H       -0.83156013      -1.44784868      -0.84196919
H       -2.39465355       0.60871775       0.27383149
12
Frame=4 idx=005828 GeodesicLength=0.31884603477828866 rxn_smarts="[N:1]([C@@:2]([C:3]([O:4][H:12])([H:10])[H:11])([C:5]#[N:6])[H:9])([H:7])[H:8]>>[C:5]=[N:6][H:8].[N:1](=[C:2](/[C:3]([O:4][H:12])([H:10])[H:11])[H:9])\[H:7]"
N        0.73956712       0.81182775       0.88524230
C        0.11811989      -0.30932154       0.65716949
C       -0.92029454      -0.45756144      -0.41898605
O       -2.17871504      -0.31544967       0.20823935
C        1.87650820      -0.73631271      -1.21772853
N        1.94309900       0.36415326      -1.59321977
H        1.28958208       0.89053933       1.72859345
H        1.13909606       1.29460768       0.00132869
H       -0.02182886      -0.96330348       1.51618453
H       -0.75498324       0.26243524      -1.22210352
H       -0.85216661      -1.46172928      -0.83244197
H       -2.37798407       0.62011486       0.28772203
12
Frame=5 idx=005828 GeodesicLength=0.3979435047649427 rxn_smarts="[N:1]([C@@:2]([C:3]([O:4][H:12])([H:10])[H:11])([C:5]#[N:6])[H:9])([H:7])[H:8]>>[C:5]=[N:6][H:8].[N:1](=[C:2](/[C:3]([O:4][H:12])([H:10])[H:11])[H:9])\[H:7]"
N        0.72890013       0.81355899       0.88063392
C        0.12575329      -0.32211880       0.64718152
C       -0.92757368      -0.46687913      -0.41644074
O       -2.18254674      -0.30767510       0.21171381
C        1.88406606      -0.72115184      -1.22848029
N        1.96594731       0.38628427      -1.57789937
H        1.27137107       0.89067183       1.72951478
H        1.15823912       1.28616840      -0.01498671
H       -0.02853683      -0.96113756       1.51591051
H       -0.76129848       0.24636971      -1.22587482
H       -0.87303896      -1.47541092      -0.82215150
H       -2.36128230       0.63132016       0.30087890
12
Frame=6 idx=005828 GeodesicLength=0.4768512372594084 rxn_smarts="[N:1]([C@@:2]([C:3]([O:4][H:12])([H:10])[H:11])([C:5]#[N:6])[H:9])([H:7])[H:8]>>[C:5]=[N:6][H:8].[N:1](=[C:2](/[C:3]([O:4][H:12])([H:10])[H:11])[H:9])\[H:7]"
N        0.71822770       0.81513795       0.87594239
C        0.13314862      -0.33453504       0.63718771
C       -0.93492785      -0.47604619      -0.41371725
O       -2.18630680      -0.29957224       0.21515388
C        1.89164201      -0.70576067      -1.23874696
N        1.98873143       0.40772369      -1.56216936
H        1.25372211       0.89019455       1.72990598
H        1.17659603       1.27879153      -0.03078214
H       -0.03437837      -0.95943472       1.51466809
H       -0.76766840       0.23007520      -1.22966419
H       -0.89418815      -1.48890862      -0.81110368
H       -2.34459831       0.64233457       0.31332552
12
Frame=7 idx=005828 GeodesicLength=0.5556404868477339 rxn_smarts="[N:1]([C@@:2]([C:3]([O:4][H:12])([H:10])[H:11])([C:5]#[N:6])[H:9])([H:7])[H:8]>>[C:5]=[N:6][H:8].[N:1](=[C:2](/[C:3]([O:4][H:12])([H:10])[H:11])[H:9])\[H:7]"
N        0.70758773       0.81658907       0.87124580
C        0.14032042      -0.34659650       0.62718437
C       -0.94238107      -0.48508084      -0.41083629
O       -2.19002118      -0.29118863       0.21852749
C        1.89921180      -0.69015869      -1.24854598
N        2.01146195       0.42853157      -1.54604777
H        1.23676734       0.88910250       1.72985187
H        1.19420667       1.27252241      -0.04616052
H       -0.03940122      -0.95821319       1.51259931
H       -0.77413377       0.21356836      -1.23349246
H       -0.91562564      -1.50224405      -0.79931634
H       -2.32799304       0.65316799       0.32499052
12
Frame=8 idx=005828 GeodesicLength=0.6342971939582753 rxn_smarts="[N:1]([C@@:2]([C:3]([O:4][H:12])([H:10])[H:11])([C:5]#[N:6])[H:9])([H:7])[H:8]>>[C:5]=[N:6][H:8].[N:1](=[C:2](/[C:3]([O:4][H:12])([H:10])[H:11])[H:9])\[H:7]"
N        0.69696693       0.81789316       0.86657146
C        0.14726946      -0.35832084       0.61714099
C       -0.94992925      -0.49398481      -0.40779798
O       -2.19368741      -0.28253890       0.22182623
C        1.90678836      -0.67432470      -1.25789019
N        2.03418061       0.44873861      -1.52951171
H        1.22054235       0.88735358       1.72935255
H        1.21106067       1.26735270      -0.06124724
H       -0.04369875      -0.95743662       1.50977164
H       -0.78069520       0.19683655      -1.23733932
H       -0.93731935      -1.51538726      -0.78678368
H       -2.31147841       0.66381853       0.33590725
12
Frame=9 idx=005828 GeodesicLength=0.7128283434549872 rxn_smarts="[N:1]([C@@:2]([C:3]([O:4][H:12])([H:10])[H:11])([C:5]#[N:6])[H:9])([H:7])[H:8]>>[C:5]=[N:6][H:8].[N:1](=[C:2](/[C:3]([O:4][H:12])([H:10])[H:11])[H:9])\[H:7]"
N        0.68636274       0.81904262       0.86195648
C        0.15400128      -0.36972554       0.60703674
C       -0.95757367      -0.50276253      -0.40460871
O       -2.19730245      -0.27364258       0.22503748
C        1.91436521      -0.65824802      -1.26679480
N        2.05692551       0.46836438      -1.51253749
H        1.20508681       0.88493120       1.72843319
H        1.22715250       1.26328872      -0.07615707
H       -0.04733954      -0.95708852       1.50625020
H       -0.78736224       0.17987292      -1.24119896
H       -0.95925157      -1.52832035      -0.77351274
H       -2.29506456       0.67428770       0.34609568
12
Frame=10 idx=005828 GeodesicLength=0.7912730930119756 rxn_smarts="[N:1]([C@@:2]([C:3]([O:4][H:12])([H:10])[H:11])([C:5]#[N:6])[H:9])([H:7])[H:8]>>[C:5]=[N:6][H:8].[N:1](=[C:2](/[C:3]([O:4][H:12])([H:10])[H:11])[H:9])\[H:7]"
N        0.67578729       0.82004278       0.85744499
C        0.16052908      -0.38083591       0.59685851
C       -0.96532794      -0.51142610      -0.40128213
O       -2.20087853      -0.26452158       0.22814117
C        1.92193303      -0.64193165      -1.27527978
N        2.07974032       0.48743189      -1.49509721
H        1.19045637       0.88184170       1.72714244
H        1.24248805       1.26035670      -0.09099534
H       -0.05036713      -0.95717278       1.50210562
H       -0.79416383       0.16267511      -1.24508090
H       -0.98142297      -1.54105012      -0.75952051
H       -2.27877375       0.68458997       0.35556313
12
Frame=11 idx=005828 GeodesicLength=0.8695523607948717 rxn_smarts="[N:1]([C@@:2]([C:3]([O:4][H:12])([H:10])[H:11])([C:5]#[N:6])[H:9])([H:7])[H:8]>>[C:5]=[N:6][H:8].[N:1](=[C:2](/[C:3]([O:4][H:12])([H:10])[H:11])[H:9])\[H:7]"
N        0.66519806       0.82084385       0.85303202
C        0.16683570      -0.39165216       0.58656503
C       -0.97316245      -0.51995533      -0.39779088
O       -2.20438174      -0.25518074       0.23116366
C        1.92948565      -0.62533235      -1.28336447
N        2.10265713       0.50594023      -1.47715300
H        1.17659553       0.87803907       1.72543738
H        1.25705177       1.25849010      -0.10587679
H       -0.05286255      -0.95763870       1.49733750
H       -0.80105769       0.14523169      -1.24891601
H       -1.00376671      -1.55347971      -0.74476586
H       -2.26259270       0.69469404       0.36433142
12
Frame=12 idx=005828 GeodesicLength=0.9478045471145754 rxn_smarts="[N:1]([C@@:2]([C:3]([O:4][H:12])([H:10])[H:11])([C:5]#[N:6])[H:9])([H:7])[H:8]>>[C:5]=[N:6][H:8].[N:1](=[C:2](/[C:3]([O:4][H:12])([H:10])[H:11])[H:9])\[H:7]"
N        0.65466557       0.82151751       0.84881395
C        0.17296522      -0.40221470       0.57618555
C       -0.98112744      -0.52838679      -0.39419116
O       -2.20787406      -0.24567014       0.23403773
C        1.93700903      -0.60853314      -1.29106422
N        2.12567465       0.52391860      -1.45869399
H        1.16366906       0.87359660       1.72346439
H        1.27089805       1.25779964      -0.12086643
H       -0.05480004      -0.95854710       1.49207303
H       -0.80815209       0.12757832      -1.25278454
H       -1.02632441      -1.56571454      -0.72933983
H       -2.24660354       0.70465574       0.37236552
12
Frame=13 idx=005828 GeodesicLength=1.0258575060516668 rxn_smarts="[N:1]([C@@:2]([C:3]([O:4][H:12])([H:10])[H:11])([C:5]#[N:6])[H:9])([H:7])[H:8]>>[C:5]=[N:6][H:8].[N:1](=[C:2](/[C:3]([O:4][H:12])([H:10])[H:11])[H:9])\[H:7]"
N        0.64408907       0.82195504       0.84468919
C        0.17886162      -0.41248413       0.56563666
C       -0.98915249      -0.53665002      -0.39041516
O       -2.21127439      -0.23600968       0.23684311
C        1.94448524      -0.59140823      -1.29840798
N        2.14894880       0.54125286      -1.43958415
H        1.15144963       0.86845472       1.72103559
H        1.28396507       1.25812241      -0.13614376
H       -0.05633459      -0.95976504       1.48620918
H       -0.81532986       0.10972003      -1.25653252
H       -1.04897107      -1.57751623      -0.71318587
H       -2.23073703       0.71432828       0.37985571
12
Frame=14 idx=005828 GeodesicLength=1.103869109035712 rxn_smarts="[N:1]([C@@:2]([C:3]([O:4][H:12])([H:10])[H:11])([C:5]#[N:6])[H:9])([H:7])[H:8]>>[C:5]=[N:6][H:8].[N:1](=[C:2](/[C:3]([O:4][H:12])([H:10])[H:11])[H:9])\[H:7]"
N        0.63355247       0.82224003       0.84076545
C        0.18458198      -0.42252011       0.55494695
C       -0.99730552      -0.54480580      -0.38652486
O       -2.21465758      -0.22621922       0.23951534
C        1.95188916      -0.57404160      -1.30545696
N        2.17247519       0.55800810      -1.41979576
H        1.14009491       0.86271422       1.71834736
H        1.29632854       1.25957679      -0.15174627
H       -0.05738090      -0.96139304       1.47987598
H       -0.82272596       0.09166096      -1.26026537
H       -1.07177827      -1.58904680      -0.69637277
H       -2.21507401       0.72382646       0.38671091
12
Frame=15 idx=005828 GeodesicLength=1.181807058867893 rxn_smarts="[N:1]([C@@:2]([C:3]([O:4][H:12])([H:10])[H:11])([C:5]#[N:6])[H:9])([H:7])[H:8]>>[C:5]=[N:6][H:8].[N:1](=[C:2](/[C:3]([O:4][H:12])([H:10])[H:11])[H:9])\[H:7]"
N        0.62303241       0.82234917       0.83702812
C        0.19011971      -0.43231989       0.54408474
C       -1.00556818      -0.55283668      -0.38250689
O       -2.21800453      -0.21632233       0.24207411
C        1.95919667      -0.55639459      -1.31226155
N        2.19631111       0.57413683      -1.39923459
H        1.12952949       0.85638256       1.71537492
H        1.30800356       1.26211243      -0.16778118
H       -0.05798761      -0.96339318       1.47306698
H       -0.83032976       0.07341164      -1.26394129
H       -1.09469383      -1.60023764      -0.67889508
H       -2.19960902       0.73311168       0.39299171
12
Frame=16 idx=005828 GeodesicLength=1.2596705901449754 rxn_smarts="[N:1]([C@@:2]([C:3]([O:4][H:12])([H:10])[H:11])([C:5]#[N:6])[H:9])([H:7])[H:8]>>[C:5]=[N:6][H:8].[N:1](=[C:2](/[C:3]([O:4][H:12])([H:10])[H:11])[H:9])\[H:7]"
N        0.61252775       0.82228362       0.83347472
C        0.19547960      -0.44188610       0.53302798
C       -1.01393789      -0.56073690      -0.37836207
O       -2.22131614      -0.20634972       0.24452732
C        1.96637837      -0.53844466      -1.31888676
N        2.22050669       0.58958808      -1.37779529
H        1.11970352       0.84949906       1.71213048
H        1.31903226       1.26570108      -0.18434262
H       -0.05817094      -0.96574884       1.46579283
H       -0.83816343       0.05499106      -1.26754176
H       -1.11768198      -1.61105934      -0.66077017
H       -2.18435782       0.74216265       0.39874533
