11
Frame=0 idx=009455 GeodesicLength=0.0 rxn_smarts="[O:1]([c+:2]1[n-:3][c:4]([O:5][H:9])[c:6]([H:10])[n:7]1[H:11])[H:8]>>[O:1]([C-:2]=[N+:7]([C@@:6]1([H:10])[N:3]=[C:4]1[O:5][H:9])[H:11])[H:8]"
O       -2.48255670       0.43251453      -0.39888419
C       -1.40701895       0.45828871       0.34598356
N        0.78178028       1.18898170      -0.80954172
C        1.26523682       0.35690585      -0.01433807
O        2.48849081       0.33073574       0.62674218
C        0.52565779      -0.87076491       0.11304027
N       -0.78453000      -0.80255078       0.13583982
H       -2.97145662       1.24477167      -0.23189315
H        2.95120942       1.11516290       0.30902897
H        0.98198779      -1.85622463       0.06260972
H       -1.34880059      -1.59782083      -0.13858743
11
Frame=1 idx=009455 GeodesicLength=0.08165540919255773 rxn_smarts="[O:1]([c+:2]1[n-:3][c:4]([O:5][H:9])[c:6]([H:10])[n:7]1[H:11])[H:8]>>[O:1]([C-:2]=[N+:7]([C@@:6]1([H:10])[N:3]=[C:4]1[O:5][H:9])[H:11])[H:8]"
O       -2.48477867       0.43544053      -0.39583164
C       -1.38831620       0.46351008       0.32097882
N        0.75894780       1.16026081      -0.80021795
C        1.26559338       0.35003234       0.00789154
O        2.49525537       0.34014437       0.62772823
C        0.52967868      -0.87795537       0.10047626
N       -0.78577225      -0.80557089       0.14421593
H       -2.95538779       1.26004247      -0.23765999
H        2.93820540       1.13794526       0.31523360
H        0.98352270      -1.86280269       0.03123657
H       -1.35694842      -1.60104692      -0.11405136
11
Frame=2 idx=009455 GeodesicLength=0.1633833692220798 rxn_smarts="[O:1]([c+:2]1[n-:3][c:4]([O:5][H:9])[c:6]([H:10])[n:7]1[H:11])[H:8]>>[O:1]([C-:2]=[N+:7]([C@@:6]1([H:10])[N:3]=[C:4]1[O:5][H:9])[H:11])[H:8]"
O       -2.48609100       0.43957572      -0.39099411
C       -1.36908107       0.46734413       0.29660449
N        0.73791722       1.12993321      -0.79411722
C        1.26646859       0.34125985       0.02606691
O        2.49969746       0.35101620       0.62947529
C        0.53370096      -0.88574356       0.08708291
N       -0.78668501      -0.80879220       0.15249401
H       -2.93754934       1.27625357      -0.24172423
H        2.92187795       1.16283397       0.32440766
H        0.98454553      -1.87000028       0.00139566
H       -1.36480129      -1.60368060      -0.09069137
11
Frame=3 idx=009455 GeodesicLength=0.24505013233375056 rxn_smarts="[O:1]([c+:2]1[n-:3][c:4]([O:5][H:9])[c:6]([H:10])[n:7]1[H:11])[H:8]>>[O:1]([C-:2]=[N+:7]([C@@:6]1([H:10])[N:3]=[C:4]1[O:5][H:9])[H:11])[H:8]"
O       -2.48725949       0.44438030      -0.38420880
C       -1.34989534       0.46978114       0.27275931
N        0.71832458       1.09906291      -0.78981704
C        1.26758962       0.33142759       0.04161247
O        2.50179339       0.36370068       0.63314201
C        0.53776178      -0.89377728       0.07335042
N       -0.78730611      -0.81216246       0.16042068
H       -2.91835420       1.29330291      -0.24510961
H        2.90403244       1.18774928       0.33383411
H        0.98542305      -1.87743372      -0.02725301
H       -1.37210972      -1.60603136      -0.06873056
11
Frame=4 idx=009455 GeodesicLength=0.3266927067692943 rxn_smarts="[O:1]([c+:2]1[n-:3][c:4]([O:5][H:9])[c:6]([H:10])[n:7]1[H:11])[H:8]>>[O:1]([C-:2]=[N+:7]([C@@:6]1([H:10])[N:3]=[C:4]1[O:5][H:9])[H:11])[H:8]"
O       -2.48866126       0.44946124      -0.37496062
C       -1.33094967       0.47085166       0.24926839
N        0.70005291       1.06808959      -0.78664125
C        1.26879540       0.32093644       0.05528938
O        2.50150561       0.37812815       0.63891209
C        0.54184164      -0.90184755       0.05950202
N       -0.78765092      -0.81560994       0.16789641
H       -2.89769429       1.31107077      -0.24872529
H        2.88534836       1.21190898       0.34263069
H        0.98619898      -1.88477033      -0.05524964
H       -1.37878676      -1.60821902      -0.04792217
11
Frame=5 idx=009455 GeodesicLength=0.408410400797534 rxn_smarts="[O:1]([c+:2]1[n-:3][c:4]([O:5][H:9])[c:6]([H:10])[n:7]1[H:11])[H:8]>>[O:1]([C-:2]=[N+:7]([C@@:6]1([H:10])[N:3]=[C:4]1[O:5][H:9])[H:11])[H:8]"
O       -2.48866206       0.45616631      -0.36503277
C       -1.31196329       0.47060210       0.22672754
N        0.68280855       1.03604290      -0.78541236
C        1.27023685       0.30933154       0.06653587
O        2.49962799       0.39365356       0.64497630
C        0.54591581      -0.91043344       0.04616699
N       -0.78781696      -0.81933220       0.17518186
H       -2.87580749       1.32929618      -0.25068569
H        2.86407662       1.23739372       0.35223484
H        0.98669394      -1.89274285      -0.08123479
H       -1.38510996      -1.60997782      -0.02945780
11
Frame=6 idx=009455 GeodesicLength=0.4901284968138707 rxn_smarts="[O:1]([c+:2]1[n-:3][c:4]([O:5][H:9])[c:6]([H:10])[n:7]1[H:11])[H:8]>>[O:1]([C-:2]=[N+:7]([C@@:6]1([H:10])[N:3]=[C:4]1[O:5][H:9])[H:11])[H:8]"
O       -2.48811917       0.46373836      -0.35382167
C       -1.29335877       0.46905443       0.20491161
N        0.66644307       1.00388991      -0.78485902
C        1.27163729       0.29734492       0.07662061
O        2.49566260       0.41074317       0.65270444
C        0.55002255      -0.91911961       0.03341333
N       -0.78784386      -0.82326341       0.18200273
H       -2.85284981       1.34786121      -0.25217779
H        2.84209973       1.26211253       0.36026991
H        0.98722464      -1.90073945      -0.10592656
H       -1.39091829      -1.61162206      -0.01313761
11
Frame=7 idx=009455 GeodesicLength=0.571893567406943 rxn_smarts="[O:1]([c+:2]1[n-:3][c:4]([O:5][H:9])[c:6]([H:10])[n:7]1[H:11])[H:8]>>[O:1]([C-:2]=[N+:7]([C@@:6]1([H:10])[N:3]=[C:4]1[O:5][H:9])[H:11])[H:8]"
O       -2.48666405       0.47242436      -0.34162729
C       -1.27500103       0.46631667       0.18390448
N        0.65088961       0.97135532      -0.78519586
C        1.27306607       0.28487605       0.08544171
O        2.48978955       0.42913636       0.66147613
C        0.55417931      -0.92806227       0.02132416
N       -0.78775567      -0.82744735       0.18841701
H       -2.82872053       1.36677800      -0.25291780
H        2.81882909       1.28674624       0.36735130
H        0.98774429      -1.90897011      -0.12925770
H       -1.39635663      -1.61315328       0.00108386
11
Frame=8 idx=009455 GeodesicLength=0.6537265289014309 rxn_smarts="[O:1]([c+:2]1[n-:3][c:4]([O:5][H:9])[c:6]([H:10])[n:7]1[H:11])[H:8]>>[O:1]([C-:2]=[N+:7]([C@@:6]1([H:10])[N:3]=[C:4]1[O:5][H:9])[H:11])[H:8]"
O       -2.48411772       0.48232651      -0.32857718
C       -1.25680159       0.46248706       0.16372944
N        0.63609746       0.93830909      -0.78649643
C        1.27457895       0.27189701       0.09299123
O        2.48205854       0.44868493       0.67094955
C        0.55841203      -0.93736286       0.00990572
N       -0.78756740      -0.83191790       0.19441980
H       -2.80331706       1.38609715      -0.25277278
H        2.79392612       1.31166618       0.37377508
H        0.98825503      -1.91757981      -0.15119098
H       -1.40152435      -1.61460737       0.01326655
11
Frame=9 idx=009455 GeodesicLength=0.7355631118848149 rxn_smarts="[O:1]([c+:2]1[n-:3][c:4]([O:5][H:9])[c:6]([H:10])[n:7]1[H:11])[H:8]>>[O:1]([C-:2]=[N+:7]([C@@:6]1([H:10])[N:3]=[C:4]1[O:5][H:9])[H:11])[H:8]"
O       -2.48114000       0.49285705      -0.31429131
C       -1.23923925       0.45754396       0.14429725
N        0.62185915       0.90573161      -0.78747821
C        1.27579917       0.25913475       0.10054241
O        2.47181137       0.46995004       0.68269376
C        0.56273668      -0.94652036      -0.00074780
N       -0.78738174      -0.83665663       0.19976238
H       -2.77705434       1.40543598      -0.25261176
H        2.76973728       1.33457652       0.37683901
H        0.98913207      -1.92583312      -0.17212604
H       -1.40626037      -1.61621979       0.02312030
11
Frame=10 idx=009455 GeodesicLength=0.817558461548814 rxn_smarts="[O:1]([c+:2]1[n-:3][c:4]([O:5][H:9])[c:6]([H:10])[n:7]1[H:11])[H:8]>>[O:1]([C-:2]=[N+:7]([C@@:6]1([H:10])[N:3]=[C:4]1[O:5][H:9])[H:11])[H:8]"
O       -2.47656064       0.50482962      -0.29952223
C       -1.22158118       0.45172044       0.12575130
N        0.60832613       0.87229783      -0.78972818
C        1.27726238       0.24569611       0.10657567
O        2.45972422       0.49210699       0.69437507
C        0.56717903      -0.95626165      -0.01084289
N       -0.78708540      -0.84171393       0.20481298
H       -2.74923278       1.42524989      -0.25127813
H        2.74296638       1.35860449       0.38024159
H        0.98992891      -1.93476553      -0.19183923
H       -1.41092706      -1.61776426       0.03145405
11
Frame=11 idx=009455 GeodesicLength=0.899641800044027 rxn_smarts="[O:1]([c+:2]1[n-:3][c:4]([O:5][H:9])[c:6]([H:10])[n:7]1[H:11])[H:8]>>[O:1]([C-:2]=[N+:7]([C@@:6]1([H:10])[N:3]=[C:4]1[O:5][H:9])[H:11])[H:8]"
O       -2.47080947       0.51787271      -0.28396392
C       -1.20408676       0.44504149       0.10799873
N        0.59538779       0.83858778      -0.79252413
C        1.27879890       0.23200095       0.11180264
O        2.44539122       0.51545129       0.70681785
C        0.57176523      -0.96631168      -0.02037787
N       -0.78673104      -0.84708207       0.20943195
H       -2.72006540       1.44535242      -0.24933490
H        2.71493318       1.38246099       0.38256433
H        0.99086532      -1.94398145      -0.21061396
H       -1.41544896      -1.61939244       0.03819928
11
Frame=12 idx=009455 GeodesicLength=0.9818365602048956 rxn_smarts="[O:1]([c+:2]1[n-:3][c:4]([O:5][H:9])[c:6]([H:10])[n:7]1[H:11])[H:8]>>[O:1]([C-:2]=[N+:7]([C@@:6]1([H:10])[N:3]=[C:4]1[O:5][H:9])[H:11])[H:8]"
O       -2.46407102       0.53187419      -0.26670596
C       -1.18665740       0.43763055       0.09078609
N        0.58313900       0.80458059      -0.79587519
C        1.28049083       0.21799309       0.11620778
O        2.42914656       0.53945462       0.71934307
C        0.57650477      -0.97669235      -0.02954608
N       -0.78626255      -0.85267102       0.21368186
H       -2.68926216       1.46577842      -0.24767575
H        2.68496532       1.40663041       0.38469847
H        0.99183977      -1.95351058      -0.22884607
H       -1.41983313      -1.62106793       0.04393177
11
Frame=13 idx=009455 GeodesicLength=1.0643075676687623 rxn_smarts="[O:1]([c+:2]1[n-:3][c:4]([O:5][H:9])[c:6]([H:10])[n:7]1[H:11])[H:8]>>[O:1]([C-:2]=[N+:7]([C@@:6]1([H:10])[N:3]=[C:4]1[O:5][H:9])[H:11])[H:8]"
O       -2.45555762       0.54711450      -0.24939877
C       -1.16924912       0.42947448       0.07455930
N        0.57133201       0.77012465      -0.79983091
C        1.28230805       0.20372918       0.11974198
O        2.41002475       0.56489252       0.73261690
C        0.58142504      -0.98745780      -0.03814654
N       -0.78573046      -0.85862533       0.21751955
H       -2.65699184       1.48644237      -0.24464908
H        2.65355847       1.43053975       0.38558858
H        0.99300335      -1.96343636      -0.24598206
H       -1.42412263      -1.62279795       0.04798105
11
Frame=14 idx=009455 GeodesicLength=1.1469831899081562 rxn_smarts="[O:1]([c+:2]1[n-:3][c:4]([O:5][H:9])[c:6]([H:10])[n:7]1[H:11])[H:8]>>[O:1]([C-:2]=[N+:7]([C@@:6]1([H:10])[N:3]=[C:4]1[O:5][H:9])[H:11])[H:8]"
O       -2.44561733       0.56339567      -0.23112226
C       -1.15186431       0.42068944       0.05909022
N        0.56005318       0.73537403      -0.80421521
C        1.28431165       0.18924175       0.12256106
O        2.38850674       0.59114210       0.74597959
C        0.58654307      -0.99855842      -0.04634011
N       -0.78510556      -0.86485362       0.22102913
H       -2.62308352       1.50734130      -0.24136368
H        2.62028606       1.45449885       0.38594421
H        0.99429705      -1.97368987      -0.26249758
H       -1.42832703      -1.62458123       0.05093460
11
Frame=15 idx=009455 GeodesicLength=1.2299383698664963 rxn_smarts="[O:1]([c+:2]1[n-:3][c:4]([O:5][H:9])[c:6]([H:10])[n:7]1[H:11])[H:8]>>[O:1]([C-:2]=[N+:7]([C@@:6]1([H:10])[N:3]=[C:4]1[O:5][H:9])[H:11])[H:8]"
O       -2.43407396       0.58075925      -0.21190460
C       -1.13442875       0.41133913       0.04434244
N        0.54929527       0.70025577      -0.80908044
C        1.28654961       0.17453286       0.12462952
O        2.36440791       0.61813237       0.75926950
C        0.59187789      -1.01001455      -0.05414575
N       -0.78437483      -0.87134794       0.22420146
H       -2.58745210       1.52846125      -0.23767324
H        2.58492802       1.47859001       0.38588061
H        0.99572402      -1.98432699      -0.27830171
H       -1.43245308      -1.62638116       0.05278221
11
Frame=16 idx=009455 GeodesicLength=1.3132685965059043 rxn_smarts="[O:1]([c+:2]1[n-:3][c:4]([O:5][H:9])[c:6]([H:10])[n:7]1[H:11])[H:8]>>[O:1]([C-:2]=[N+:7]([C@@:6]1([H:10])[N:3]=[C:4]1[O:5][H:9])[H:11])[H:8]"
O       -2.42063804       0.59924116      -0.19226457
C       -1.11684459       0.40150307       0.03037852
N        0.53903101       0.66467499      -0.81447783
C        1.28910021       0.15957218       0.12586423
O        2.33774354       0.64565225       0.77209258
C        0.59744470      -1.02186846      -0.06156935
N       -0.78351335      -0.87808584       0.22712264
H       -2.54998712       1.54982860      -0.23320051
H        2.54694343       1.50305752       0.38571564
H        0.99724333      -1.99543230      -0.29335404
H       -1.43652313      -1.62814315       0.05369268
