14
Frame=0 idx=011475 GeodesicLength=0.0 rxn_smarts="[C:1]([C@@:2]([C:3]#[N:4])([C:5](=[O:6])[C:7]([H:12])([H:13])[H:14])[H:11])([H:8])([H:9])[H:10]>>[C:1]([O:6]/[C:5](=[C:2](/[C:3]#[N:4])[H:11])[C:7]([H:12])([H:13])[H:14])([H:8])([H:9])[H:10]"
C       -1.86782509      -0.95454936       0.60671781
C       -0.42522366       0.54789016      -0.52785612
C       -0.20565185       1.94383137      -0.62896948
N       -0.04998538       3.08584725      -0.66744836
C        0.54398331      -0.34720150      -0.01768728
O        0.12618820      -1.44488299       0.39962935
C        2.00953125      -0.04717258       0.00962443
H       -1.65621517      -0.66273506       1.62383506
H       -2.58774130      -0.33770000       0.09108509
H       -1.96612691      -2.01422454       0.42473075
H       -1.03542127       0.11157217      -1.31015344
H        2.53147092      -0.71460237       0.69058166
H        2.16491781       0.99232528       0.30283021
H        2.41809908      -0.15839782      -0.99691974
14
Frame=1 idx=011475 GeodesicLength=0.054003532405543724 rxn_smarts="[C:1]([C@@:2]([C:3]#[N:4])([C:5](=[O:6])[C:7]([H:12])([H:13])[H:14])[H:11])([H:8])([H:9])[H:10]>>[C:1]([O:6]/[C:5](=[C:2](/[C:3]#[N:4])[H:11])[C:7]([H:12])([H:13])[H:14])([H:8])([H:9])[H:10]"
C       -1.85570825      -0.93851786       0.60661397
C       -0.42919324       0.53072676      -0.53382363
C       -0.20746673       1.92701379      -0.64523913
N       -0.05937838       3.06979371      -0.68299833
C        0.54697038      -0.35485103      -0.01630106
O        0.12939184      -1.44048685       0.43459000
C        2.00980023      -0.04505901       0.01070801
H       -1.66591048      -0.67690609       1.63665725
H       -2.58692502      -0.30974240       0.12030726
H       -1.96824575      -1.99038699       0.38800091
H       -1.02848152       0.09238845      -1.32357906
H        2.54455283      -0.73514669       0.65846204
H        2.16092685       0.98106064       0.34977954
H        2.40966724      -0.10988644      -1.00317776
14
Frame=2 idx=011475 GeodesicLength=0.10813518025499724 rxn_smarts="[C:1]([C@@:2]([C:3]#[N:4])([C:5](=[O:6])[C:7]([H:12])([H:13])[H:14])[H:11])([H:8])([H:9])[H:10]>>[C:1]([O:6]/[C:5](=[C:2](/[C:3]#[N:4])[H:11])[C:7]([H:12])([H:13])[H:14])([H:8])([H:9])[H:10]"
C       -1.84348727      -0.92281605       0.60694854
C       -0.43332190       0.51385973      -0.53982072
C       -0.20948894       1.91058645      -0.66011366
N       -0.06677997       3.05376269      -0.69947357
C        0.54969704      -0.36295470      -0.01613281
O        0.13230477      -1.43529848       0.46860807
C        2.00965670      -0.04288698       0.01175499
H       -1.67601742      -0.69137320       1.64858033
H       -2.58509502      -0.28359155       0.14875702
H       -1.96882030      -1.96588707       0.35295977
H       -1.02270485       0.07410751      -1.33645310
H        2.55644141      -0.75432969       0.62572732
H        2.15656314       0.96795405       0.39585231
H        2.40105261      -0.06113271      -1.00719448
14
Frame=3 idx=011475 GeodesicLength=0.1624618595037272 rxn_smarts="[C:1]([C@@:2]([C:3]#[N:4])([C:5](=[O:6])[C:7]([H:12])([H:13])[H:14])[H:11])([H:8])([H:9])[H:10]>>[C:1]([O:6]/[C:5](=[C:2](/[C:3]#[N:4])[H:11])[C:7]([H:12])([H:13])[H:14])([H:8])([H:9])[H:10]"
C       -1.83120402      -0.90750475       0.60765124
C       -0.43755239       0.49724938      -0.54561903
C       -0.21169816       1.89436857      -0.67341172
N       -0.07177202       3.03742039      -0.71710227
C        0.55212764      -0.37133628      -0.01689195
O        0.13491546      -1.42909327       0.50181986
C        2.00905069      -0.04051036       0.01270187
H       -1.68676321      -0.70623891       1.65941634
H       -2.58234810      -0.25931964       0.17640930
H       -1.96800454      -1.94080139       0.31958681
H       -1.01784130       0.05669223      -1.34855129
H        2.56716656      -0.77196092       0.59203879
H        2.15189500       0.95300466       0.44093391
H        2.39202839      -0.01196970      -1.00898189
14
Frame=4 idx=011475 GeodesicLength=0.21700155085905498 rxn_smarts="[C:1]([C@@:2]([C:3]#[N:4])([C:5](=[O:6])[C:7]([H:12])([H:13])[H:14])[H:11])([H:8])([H:9])[H:10]>>[C:1]([O:6]/[C:5](=[C:2](/[C:3]#[N:4])[H:11])[C:7]([H:12])([H:13])[H:14])([H:8])([H:9])[H:10]"
C       -1.81886002      -0.89247694       0.60868066
C       -0.44188729       0.48099169      -0.55140441
C       -0.21416330       1.87870346      -0.68567347
N       -0.07549353       3.02143826      -0.73516466
C        0.55439217      -0.38001312      -0.01824133
O        0.13745099      -1.42210650       0.53439882
C        2.00820820      -0.03816965       0.01360027
H       -1.69805081      -0.72127083       1.66936730
H       -2.57890073      -0.23656247       0.20295915
H       -1.96588046      -1.91543765       0.28795798
H       -1.01382500       0.04001141      -1.36033687
H        2.57709065      -0.78833781       0.55782593
H        2.14733743       0.93635913       0.48483056
H        2.38258171       0.03687102      -1.00879992
14
Frame=5 idx=011475 GeodesicLength=0.27163988002901607 rxn_smarts="[C:1]([C@@:2]([C:3]#[N:4])([C:5](=[O:6])[C:7]([H:12])([H:13])[H:14])[H:11])([H:8])([H:9])[H:10]>>[C:1]([O:6]/[C:5](=[C:2](/[C:3]#[N:4])[H:11])[C:7]([H:12])([H:13])[H:14])([H:8])([H:9])[H:10]"
C       -1.80653171      -0.87774947       0.60994010
C       -0.44608764       0.46503144      -0.55688123
C       -0.21643422       1.86323022      -0.69688200
N       -0.07805715       3.00535067      -0.75343562
C        0.55644030      -0.38863582      -0.01973789
O        0.13961718      -1.41393959       0.56624782
C        2.00705584      -0.03570495       0.01430826
H       -1.71012631      -0.73675205       1.67801774
H       -2.57466548      -0.21546092       0.22841794
H       -1.96270719      -1.88967975       0.25814524
H       -1.01010648       0.02398934      -1.37136911
H        2.58588390      -0.80302894       0.52301121
H        2.14320686       0.91810724       0.52692345
H        2.37251210       0.08524259      -1.00670589
14
Frame=6 idx=011475 GeodesicLength=0.3266406417318113 rxn_smarts="[C:1]([C@@:2]([C:3]#[N:4])([C:5](=[O:6])[C:7]([H:12])([H:13])[H:14])[H:11])([H:8])([H:9])[H:10]>>[C:1]([O:6]/[C:5](=[C:2](/[C:3]#[N:4])[H:11])[C:7]([H:12])([H:13])[H:14])([H:8])([H:9])[H:10]"
C       -1.79408299      -0.86331036       0.61149186
C       -0.45041295       0.44942628      -0.56219398
C       -0.21906049       1.84822409      -0.70705092
N       -0.07913476       2.98938906      -0.77262853
C        0.55829250      -0.39738576      -0.02153032
O        0.14180695      -1.40501498       0.59720012
C        2.00560979      -0.03319005       0.01506468
H       -1.72247641      -0.75261644       1.68564732
H       -2.56986079      -0.19562916       0.25298295
H       -1.95850138      -1.86376616       0.22996070
H       -1.00715682       0.00868919      -1.38195825
H        2.59386992      -0.81641778       0.48767055
H        2.13927705       0.89824330       0.56793109
H        2.36183036       0.13335878      -1.00258728
14
Frame=7 idx=011475 GeodesicLength=0.38185297368891485 rxn_smarts="[C:1]([C@@:2]([C:3]#[N:4])([C:5](=[O:6])[C:7]([H:12])([H:13])[H:14])[H:11])([H:8])([H:9])[H:10]>>[C:1]([O:6]/[C:5](=[C:2](/[C:3]#[N:4])[H:11])[C:7]([H:12])([H:13])[H:14])([H:8])([H:9])[H:10]"
C       -1.78170673      -0.84934989       0.61331194
C       -0.45482986       0.43431294      -0.56700511
C       -0.22192062       1.83383823      -0.71594936
N       -0.07844311       2.97355039      -0.79333711
C        0.55992781      -0.40596958      -0.02312336
O        0.14389125      -1.39533742       0.62740740
C        2.00395015      -0.03050630       0.01580985
H       -1.73548267      -0.76935456       1.69218907
H       -2.56466736      -0.17712963       0.27677422
H       -1.95351979      -1.83793227       0.20317185
H       -1.00467279      -0.00584274      -1.39187605
H        2.60108082      -0.82838868       0.45167474
H        2.13599814       0.87700106       0.60760460
H        2.35039475       0.18110844      -0.99665268
14
Frame=8 idx=011475 GeodesicLength=0.43745758385965394 rxn_smarts="[C:1]([C@@:2]([C:3]#[N:4])([C:5](=[O:6])[C:7]([H:12])([H:13])[H:14])[H:11])([H:8])([H:9])[H:10]>>[C:1]([O:6]/[C:5](=[C:2](/[C:3]#[N:4])[H:11])[C:7]([H:12])([H:13])[H:14])([H:8])([H:9])[H:10]"
C       -1.76932789      -0.83580290       0.61542665
C       -0.45930577       0.41964676      -0.57136557
C       -0.22507290       1.81997330      -0.72363606
N       -0.07602596       2.95758591      -0.81585814
C        0.56137203      -0.41436257      -0.02452131
O        0.14582561      -1.38501693       0.65663329
C        2.00201764      -0.02761194       0.01664178
H       -1.74888776      -0.78711867       1.69759479
H       -2.55898451      -0.15970245       0.30007137
H       -1.94793514      -1.81205244       0.17774771
H       -1.00260873      -0.01964997      -1.40115172
H        2.60742404      -0.83893990       0.41499467
H        2.13332530       0.85431055       0.64617033
H        2.33818405       0.22874123      -0.98874776
14
Frame=9 idx=011475 GeodesicLength=0.49346716703386473 rxn_smarts="[C:1]([C@@:2]([C:3]#[N:4])([C:5](=[O:6])[C:7]([H:12])([H:13])[H:14])[H:11])([H:8])([H:9])[H:10]>>[C:1]([O:6]/[C:5](=[C:2](/[C:3]#[N:4])[H:11])[C:7]([H:12])([H:13])[H:14])([H:8])([H:9])[H:10]"
C       -1.75690293      -0.82264799       0.61783021
C       -0.46387111       0.40543815      -0.57528938
C       -0.22851342       1.80666810      -0.73017655
N       -0.07200401       2.94140122      -0.84016495
C        0.56258491      -0.42256651      -0.02573892
O        0.14778779      -1.37421637       0.68479447
C        1.99979581      -0.02450996       0.01761887
H       -1.76245863      -0.80572862       1.70180681
H       -2.55286797      -0.14324517       0.32292637
H       -1.94186842      -1.78618803       0.15362749
H       -1.00102308      -0.03270904      -1.40980093
H        2.61291593      -0.84801645       0.37774399
H        2.13121172       0.83022090       0.68364660
H        2.32521341       0.27609978      -0.97882409
14
Frame=10 idx=011475 GeodesicLength=0.5497598794552228 rxn_smarts="[C:1]([C@@:2]([C:3]#[N:4])([C:5](=[O:6])[C:7]([H:12])([H:13])[H:14])[H:11])([H:8])([H:9])[H:10]>>[C:1]([O:6]/[C:5](=[C:2](/[C:3]#[N:4])[H:11])[C:7]([H:12])([H:13])[H:14])([H:8])([H:9])[H:10]"
C       -1.74454385      -0.80971546       0.62038731
C       -0.46832839       0.39163957      -0.57888225
C       -0.23191027       1.79378065      -0.73630720
N       -0.06792732       2.92527140      -0.86457523
C        0.56372303      -0.43036410      -0.02632880
O        0.14958589      -1.36265454       0.71244972
C        1.99753368      -0.02137826       0.01859661
H       -1.77655335      -0.82488311       1.70462219
H       -2.54637241      -0.12760414       0.34493419
H       -1.93536517      -1.76032602       0.13089258
H       -0.99943960      -0.04538750      -1.41797403
H        2.61762485      -0.85575105       0.34018056
H        2.13039795       0.80498397       0.71930693
H        2.31157494       0.32238860      -0.96730259
14
Frame=11 idx=011475 GeodesicLength=0.6063767559588565 rxn_smarts="[C:1]([C@@:2]([C:3]#[N:4])([C:5](=[O:6])[C:7]([H:12])([H:13])[H:14])[H:11])([H:8])([H:9])[H:10]>>[C:1]([O:6]/[C:5](=[C:2](/[C:3]#[N:4])[H:11])[C:7]([H:12])([H:13])[H:14])([H:8])([H:9])[H:10]"
C       -1.73216715      -0.79705596       0.62318326
C       -0.47275314       0.37822804      -0.58215918
C       -0.23539359       1.78134388      -0.74173973
N       -0.06322110       2.90887322      -0.89001405
C        0.56470192      -0.43791086      -0.02662583
O        0.15138100      -1.35071484       0.73914791
C        1.99509663      -0.01810789       0.01972977
H       -1.79071271      -0.84447762       1.70610187
H       -2.53947755      -0.11266487       0.36646696
H       -1.92863570      -1.73451836       0.10949757
H       -0.99810270      -0.05753412      -1.42563054
H        2.62150559      -0.86205763       0.30218068
H        2.13041765       0.77847200       0.75372689
H        2.29736085       0.36812501      -0.95386558
14
Frame=12 idx=011475 GeodesicLength=0.6632285566428063 rxn_smarts="[C:1]([C@@:2]([C:3]#[N:4])([C:5](=[O:6])[C:7]([H:12])([H:13])[H:14])[H:11])([H:8])([H:9])[H:10]>>[C:1]([O:6]/[C:5](=[C:2](/[C:3]#[N:4])[H:11])[C:7]([H:12])([H:13])[H:14])([H:8])([H:9])[H:10]"
C       -1.71987771      -0.78460467       0.62611145
C       -0.47707743       0.36519989      -0.58511682
C       -0.23879620       1.76929401      -0.74698658
N       -0.05869207       2.89248774      -0.91539625
C        0.56561639      -0.44502261      -0.02624917
O        0.15306194      -1.33813277       0.76540830
C        1.99265375      -0.01481679       0.02090785
H       -1.80522077      -0.86442959       1.70609488
H       -2.53230449      -0.09836253       0.38725523
H       -1.92166299      -1.70881971       0.08937442
H       -0.99673162      -0.06940229      -1.43282639
H        2.62461523      -0.86706629       0.26395751
H        2.13183675       0.75095100       0.78635265
H        2.28257923       0.41272460      -0.93888710
14
Frame=13 idx=011475 GeodesicLength=0.7202868248424824 rxn_smarts="[C:1]([C@@:2]([C:3]#[N:4])([C:5](=[O:6])[C:7]([H:12])([H:13])[H:14])[H:11])([H:8])([H:9])[H:10]>>[C:1]([O:6]/[C:5](=[C:2](/[C:3]#[N:4])[H:11])[C:7]([H:12])([H:13])[H:14])([H:8])([H:9])[H:10]"
C       -1.70767452      -0.77238837       0.62918397
C       -0.48133914       0.35251334      -0.58778300
C       -0.24218618       1.75761283      -0.75194544
N       -0.05416477       2.87596965      -0.94098175
C        0.56644398      -0.45178107      -0.02536219
O        0.15467928      -1.32506470       0.79109031
C        1.99018522      -0.01146083       0.02219476
H       -1.81984138      -0.88447424       1.70463002
H       -2.52490740      -0.08466687       0.40740453
H       -1.91457749      -1.68332217       0.07051382
H       -0.99543084      -0.08098424      -1.43957680
H        2.62696183      -0.87075233       0.22541510
H        2.13451350       0.72238122       0.81745671
H        2.26733790       0.45641777      -0.92224003
14
Frame=14 idx=011475 GeodesicLength=0.7774692292359309 rxn_smarts="[C:1]([C@@:2]([C:3]#[N:4])([C:5](=[O:6])[C:7]([H:12])([H:13])[H:14])[H:11])([H:8])([H:9])[H:10]>>[C:1]([O:6]/[C:5](=[C:2](/[C:3]#[N:4])[H:11])[C:7]([H:12])([H:13])[H:14])([H:8])([H:9])[H:10]"
C       -1.69559514      -0.76041807       0.63233157
C       -0.48550921       0.34018291      -0.59011920
C       -0.24545096       1.74626770      -0.75676676
N       -0.04993031       2.85943519      -0.96626756
C        0.56718606      -0.45811712      -0.02383713
O        0.15620715      -1.31135013       0.81648112
C        1.98771732      -0.00810227       0.02351903
H       -1.83463318      -0.90438522       1.70165268
H       -2.51739121      -0.07166431       0.42670701
H       -1.90729731      -1.65815420       0.05288799
H       -0.99405898      -0.09231320      -1.44587365
H        2.62848683      -0.87317691       0.18666663
H        2.13861248       0.69288912       0.84677600
H        2.25165645       0.49890651      -0.90415772
14
Frame=15 idx=011475 GeodesicLength=0.8346854372200805 rxn_smarts="[C:1]([C@@:2]([C:3]#[N:4])([C:5](=[O:6])[C:7]([H:12])([H:13])[H:14])[H:11])([H:8])([H:9])[H:10]>>[C:1]([O:6]/[C:5](=[C:2](/[C:3]#[N:4])[H:11])[C:7]([H:12])([H:13])[H:14])([H:8])([H:9])[H:10]"
C       -1.68368867      -0.74872140       0.63550004
C       -0.48959554       0.32820642      -0.59210821
C       -0.24854884       1.73523786      -0.76154811
N       -0.04608804       2.84299732      -0.99091838
C        0.56784115      -0.46400436      -0.02161410
O        0.15762838      -1.29687046       0.84177778
C        1.98527975      -0.00478045       0.02483864
H       -1.84957441      -0.92392841       1.69716759
H       -2.50989675      -0.05944239       0.44500953
H       -1.89978035      -1.63347457       0.03646477
H       -0.99256632      -0.10343265      -1.45172434
H        2.62915594      -0.87442006       0.14777706
H        2.14424535       0.66258960       0.87417775
H        2.23558836       0.54004355      -0.88480002
14
Frame=16 idx=011475 GeodesicLength=0.8918601974167368 rxn_smarts="[C:1]([C@@:2]([C:3]#[N:4])([C:5](=[O:6])[C:7]([H:12])([H:13])[H:14])[H:11])([H:8])([H:9])[H:10]>>[C:1]([O:6]/[C:5](=[C:2](/[C:3]#[N:4])[H:11])[C:7]([H:12])([H:13])[H:14])([H:8])([H:9])[H:10]"
C       -1.67199886      -0.73734068       0.63864830
C       -0.49361891       0.31659645      -0.59371654
C       -0.25145813       1.72451842      -0.76631907
N       -0.04260572       2.82672560      -1.01478806
C        0.56839546      -0.46942115      -0.01866068
O        0.15892576      -1.28152661       0.86711654
C        1.98288073      -0.00151604       0.02612661
H       -1.86460531      -0.94294333       1.69121829
H       -2.50256240      -0.04809815       0.46221803
H       -1.89198441      -1.60942815       0.02118417
H       -0.99092854      -0.11434101      -1.45711969
H        2.62891983      -0.87454897       0.10879389
H        2.15145798       0.63157203       0.89959006
H        2.21918252       0.57975159      -0.86429183
