19
Frame=0 idx=008075 GeodesicLength=0.0 rxn_smarts="[C:1]([C:2]([C@@:3]([O:4][H:14])([C@@:5]([C:6]([H:16])([H:17])[H:18])([O:7][H:19])[H:15])[H:13])([H:11])[H:12])([H:8])([H:9])[H:10]>>[C:1]([C:2]([C@@:3]([O:4][H:19])([C:5]([C:6]([H:16])([H:17])[H:18])=[O:7])[H:13])([H:11])[H:12])([H:8])([H:9])[H:10].[H:14][H:15]"
C        2.29902048       0.27246950       1.06694030
C        0.96139815       0.63676823       0.43844928
C        0.20586171      -0.61025632      -0.00123500
O       -0.07001148      -1.50991484       0.98569586
C       -1.14479898      -0.37442578      -0.65781209
C       -1.54033132       0.73356988      -1.55959386
O       -1.80298610      -1.48282274      -0.77025513
H        2.14465732      -0.43405186       1.88252350
H        2.96462777      -0.19777718       0.33894616
H        2.80199173       1.15678886       1.46063886
H        0.34567720       1.17316072       1.16632062
H        1.11440202       1.30332556      -0.41743522
H        0.76879803      -1.09245513      -0.82675752
H       -1.15792545      -0.58646095       1.34584220
H       -1.66679569       0.05460972       1.02051898
H       -1.04427532       0.58884863      -2.52372458
H       -2.61631476       0.71954651      -1.72342799
H       -1.22904783       1.69354981      -1.15507232
H       -1.33394740      -2.04447254      -0.07056210
19
Frame=1 idx=008075 GeodesicLength=0.11393439092065342 rxn_smarts="[C:1]([C:2]([C@@:3]([O:4][H:14])([C@@:5]([C:6]([H:16])([H:17])[H:18])([O:7][H:19])[H:15])[H:13])([H:11])[H:12])([H:8])([H:9])[H:10]>>[C:1]([C:2]([C@@:3]([O:4][H:19])([C:5]([C:6]([H:16])([H:17])[H:18])=[O:7])[H:13])([H:11])[H:12])([H:8])([H:9])[H:10].[H:14][H:15]"
C        2.30000620       0.26933671       1.06408454
C        0.95815050       0.63877168       0.44773623
C        0.20179588      -0.60126451      -0.00950187
O       -0.06392843      -1.51683228       0.97090311
C       -1.16001399      -0.35944987      -0.64242268
C       -1.53493667       0.72830009      -1.57881435
O       -1.82991844      -1.46364349      -0.74258604
H        2.15330720      -0.45052424       1.86933679
H        2.96358094      -0.18531696       0.32441262
H        2.80126171       1.14929946       1.46970399
H        0.34616044       1.16390965       1.18680705
H        1.10572372       1.32068930      -0.39671311
H        0.76534300      -1.06833323      -0.84210600
H       -1.14481581      -0.60374233       1.37969976
H       -1.67036190       0.05706360       1.04998764
H       -1.02221175       0.56240841      -2.53055878
H       -2.60789915       0.71690566      -1.76250113
H       -1.23141168       1.69715841      -1.18919206
H       -1.32983177      -2.05473605      -0.06827571
19
Frame=2 idx=008075 GeodesicLength=0.2277816323494417 rxn_smarts="[C:1]([C:2]([C@@:3]([O:4][H:14])([C@@:5]([C:6]([H:16])([H:17])[H:18])([O:7][H:19])[H:15])[H:13])([H:11])[H:12])([H:8])([H:9])[H:10]>>[C:1]([C:2]([C@@:3]([O:4][H:19])([C:5]([C:6]([H:16])([H:17])[H:18])=[O:7])[H:13])([H:11])[H:12])([H:8])([H:9])[H:10].[H:14][H:15]"
C        2.30093516       0.26608961       1.06127251
C        0.95487154       0.64090735       0.45748994
C        0.19744494      -0.59156116      -0.01773688
O       -0.05841762      -1.52346512       0.95527574
C       -1.17510350      -0.34314097      -0.62680998
C       -1.52950106       0.72225920      -1.59821683
O       -1.85643980      -1.44315364      -0.71412843
H        2.16189479      -0.46746677       1.85543353
H        2.96230839      -0.17227309       0.30987684
H        2.80060643       1.14120055       1.47930001
H        0.34686813       1.15424588       1.20799046
H        1.09677815       1.33843371      -0.37488271
H        0.76176088      -1.04329144      -0.85711337
H       -1.13067519      -0.62215821       1.41352155
H       -1.67372036       0.06014457       1.07993938
H       -1.00158029       0.53413828      -2.53725473
H       -2.59923802       0.71300158      -1.80080718
H       -1.23264819       1.70008029      -1.22553108
H       -1.32614438      -2.06399061      -0.06761879
19
Frame=3 idx=008075 GeodesicLength=0.34153649220496735 rxn_smarts="[C:1]([C:2]([C@@:3]([O:4][H:14])([C@@:5]([C:6]([H:16])([H:17])[H:18])([O:7][H:19])[H:15])[H:13])([H:11])[H:12])([H:8])([H:9])[H:10]>>[C:1]([C:2]([C@@:3]([O:4][H:19])([C:5]([C:6]([H:16])([H:17])[H:18])=[O:7])[H:13])([H:11])[H:12])([H:8])([H:9])[H:10].[H:14][H:15]"
C        2.30181239       0.26274396       1.05851721
C        0.95158663       0.64316069       0.46769258
C        0.19284600      -0.58114457      -0.02594180
O       -0.05352449      -1.52975850       0.93880733
C       -1.18997997      -0.32550145      -0.61107666
C       -1.52406534       0.71541865      -1.61771841
O       -1.88241964      -1.42137206      -0.68499681
H        2.17039269      -0.48482886       1.84080400
H        2.96083541      -0.15862211       0.29541337
H        2.80002528       1.13249106       1.48942323
H        0.34781065       1.14413879       1.22981226
H        1.08759792       1.35650054      -0.35195193
H        0.75815195      -1.01738152      -0.87170908
H       -1.11549079      -0.64175697       1.44716224
H       -1.67691499       0.06396325       1.11020669
H       -0.98245573       0.50411548      -2.54375716
H       -2.59043780       0.70779929      -1.83819416
H       -1.23275263       1.70217418      -1.26396840
H       -1.32301754      -2.07213986      -0.06852448
19
Frame=4 idx=008075 GeodesicLength=0.4551943274522347 rxn_smarts="[C:1]([C:2]([C@@:3]([O:4][H:14])([C@@:5]([C:6]([H:16])([H:17])[H:18])([O:7][H:19])[H:15])[H:13])([H:11])[H:12])([H:8])([H:9])[H:10]>>[C:1]([C:2]([C@@:3]([O:4][H:19])([C:5]([C:6]([H:16])([H:17])[H:18])=[O:7])[H:13])([H:11])[H:12])([H:8])([H:9])[H:10].[H:14][H:15]"
C        2.30264226       0.25931687       1.05583361
C        0.94832272       0.64551206       0.47831443
C        0.18804287      -0.57002308      -0.03412375
O       -0.04928467      -1.53565671       0.92150106
C       -1.20455374      -0.30655611      -0.59533808
C       -1.51867447       0.70776402      -1.63722809
O       -1.90773717      -1.39833200      -0.65531413
H        2.17876909      -0.50254680       1.82545085
H        2.95919221      -0.14435076       0.28110810
H        2.79951310       1.12317630       1.50006388
H        0.34899207       1.13356104       1.25219074
H        1.07822624       1.37481657      -0.32794906
H        0.75462206      -0.99066740      -0.88583275
H       -1.09925329      -0.66258797       1.48047051
H       -1.68000171       0.06865066       1.14060133
H       -0.96489276       0.47245338      -2.54999759
H       -2.58160699       0.70128502      -1.87452036
H       -1.23175134       1.70330034      -1.30433813
H       -1.32056646      -2.07911542      -0.07089256
19
Frame=5 idx=008075 GeodesicLength=0.5687526165490363 rxn_smarts="[C:1]([C:2]([C@@:3]([O:4][H:14])([C@@:5]([C:6]([H:16])([H:17])[H:18])([O:7][H:19])[H:15])[H:13])([H:11])[H:12])([H:8])([H:9])[H:10]>>[C:1]([C:2]([C@@:3]([O:4][H:19])([C:5]([C:6]([H:16])([H:17])[H:18])=[O:7])[H:13])([H:11])[H:12])([H:8])([H:9])[H:10].[H:14][H:15]"
C        2.30342720       0.25582531       1.05323640
C        0.94510647       0.64793776       0.48931563
C        0.18308333      -0.55821427      -0.04229418
O       -0.04572370      -1.54110707       0.90336787
C       -1.21873728      -0.28635000      -0.57971512
C       -1.51337482       0.69929471      -1.65665111
O       -1.93228742      -1.37407707      -0.62519992
H        2.18698890      -0.52054995       1.80938466
H        2.95741176      -0.12945458       0.26705236
H        2.79905848       1.11326606       1.51120702
H        0.35040989       1.12248931       1.27502533
H        1.06871476       1.39329748      -0.30292049
H        0.75127530      -0.96322152      -0.89943656
H       -1.08195287      -0.68470544       1.51329533
H       -1.68304600       0.07436429       1.17092255
H       -0.94891341       0.43929972      -2.55589286
H       -2.57284847       0.69345813      -1.90966844
H       -1.22970877       1.70332755      -1.34643351
H       -1.31888335      -2.08488042      -0.07459496
19
Frame=6 idx=008075 GeodesicLength=0.6822121004072794 rxn_smarts="[C:1]([C:2]([C@@:3]([O:4][H:14])([C@@:5]([C:6]([H:16])([H:17])[H:18])([O:7][H:19])[H:15])[H:13])([H:11])[H:12])([H:8])([H:9])[H:10]>>[C:1]([C:2]([C@@:3]([O:4][H:19])([C:5]([C:6]([H:16])([H:17])[H:18])=[O:7])[H:13])([H:11])[H:12])([H:8])([H:9])[H:10].[H:14][H:15]"
C        2.30417021       0.25228469       1.05074369
C        0.94196341       0.65041136       0.50065132
C        0.17801884      -0.54574162      -0.05046883
O       -0.04285176      -1.54606231       0.88442376
C       -1.23244975      -0.26494418      -0.56433025
C       -1.50821545       0.69002259      -1.67589713
O       -1.95598407      -1.34865700      -0.59476312
H        2.19501846      -0.53876363       1.79262828
H        2.95553112      -0.11393958       0.25334309
H        2.79864733       1.10277166       1.52283838
H        0.35205359       1.11090281       1.29820601
H        1.05912002       1.41185410      -0.27692349
H        0.74821172      -0.93511485      -0.91248987
H       -1.06357459      -0.70817437       1.54549350
H       -1.68612281       0.08129108       1.20096567
H       -0.93452388       0.40481748      -2.56136062
H       -2.56426247       0.68433455      -1.94354122
H       -1.22671571       1.70213737      -1.39002934
H       -1.31803422      -2.08943014      -0.07948984
19
Frame=7 idx=008075 GeodesicLength=0.7955801565064385 rxn_smarts="[C:1]([C:2]([C@@:3]([O:4][H:14])([C@@:5]([C:6]([H:16])([H:17])[H:18])([O:7][H:19])[H:15])[H:13])([H:11])[H:12])([H:8])([H:9])[H:10]>>[C:1]([C:2]([C@@:3]([O:4][H:19])([C:5]([C:6]([H:16])([H:17])[H:18])=[O:7])[H:13])([H:11])[H:12])([H:8])([H:9])[H:10].[H:14][H:15]"
C        2.30487183       0.24870735       1.04837408
C        0.93891591       0.65290504       0.51227404
C        0.17290070      -0.53263251      -0.05866650
O       -0.04066605      -1.55048450       0.86468340
C       -1.24561941      -0.24241014      -0.54929923
C       -1.50324440       0.67996840      -1.69488243
O       -1.97875971      -1.32212193      -0.56409236
H        2.20282318      -0.55711439       1.77521083
H        2.95358641      -0.09782056       0.24007699
H        2.79826092       1.09170409       1.53494277
H        0.35390586       1.09878306       1.32161837
H        1.04950164       1.43039630      -0.25002192
H        0.74551906      -0.90641248      -0.92497923
H       -1.04408893      -0.73307771       1.57693277
H       -1.68931449       0.08965459       1.23052921
H       -0.92169988       0.36918284      -2.56631364
H       -2.55593815       0.67393228      -1.97607224
H       -1.22289524       1.69962852      -1.43488774
H       -1.31805926      -2.09278825      -0.08542716
19
Frame=8 idx=008075 GeodesicLength=0.9088746522420154 rxn_smarts="[C:1]([C:2]([C@@:3]([O:4][H:14])([C@@:5]([C:6]([H:16])([H:17])[H:18])([O:7][H:19])[H:15])[H:13])([H:11])[H:12])([H:8])([H:9])[H:10]>>[C:1]([C:2]([C@@:3]([O:4][H:19])([C:5]([C:6]([H:16])([H:17])[H:18])=[O:7])[H:13])([H:11])[H:12])([H:8])([H:9])[H:10].[H:14][H:15]"
C        2.30553221       0.24510157       1.04614895
C        0.93598250       0.65539093       0.52413999
C        0.16777861      -0.51891440      -0.06690794
O       -0.03914895      -1.55434623       0.84415546
C       -1.25818665      -0.21882363      -0.53472744
C       -1.49850865       0.66915742      -1.71353614
O       -2.00056530      -1.29451706      -0.53325108
H        2.21037303      -0.57553601       1.75716585
H        2.95161317      -0.08111571       0.22734788
H        2.79787889       1.08007055       1.54751072
H        0.35594349       1.08610999       1.34515504
H        1.03991761       1.44883980      -0.22227599
H        0.74327011      -0.87716466      -0.93690907
H       -1.02344196      -0.75952261       1.60749498
H       -1.69271661       0.09971797       1.25941996
H       -0.91039930       0.33256598      -2.57067072
H       -2.54795667       0.66227111      -2.00721984
H       -1.21838865       1.69571692      -1.48078231
H       -1.31897687      -2.09500194      -0.09225830
19
Frame=9 idx=008075 GeodesicLength=1.022115986170138 rxn_smarts="[C:1]([C:2]([C@@:3]([O:4][H:14])([C@@:5]([C:6]([H:16])([H:17])[H:18])([O:7][H:19])[H:15])[H:13])([H:11])[H:12])([H:8])([H:9])[H:10]>>[C:1]([C:2]([C@@:3]([O:4][H:19])([C:5]([C:6]([H:16])([H:17])[H:18])=[O:7])[H:13])([H:11])[H:12])([H:8])([H:9])[H:10].[H:14][H:15]"
C        2.30614940       0.24146974       1.04408915
C        0.93317439       0.65784233       0.53621296
C        0.16270232      -0.50460987      -0.07521508
O       -0.03826703      -1.55763286       0.82284051
C       -1.27010025      -0.19425734      -0.52070982
C       -1.49405375       0.65761270      -1.73180161
O       -2.02136702      -1.26587516      -0.50226835
H        2.21764413      -0.59397586       1.73852464
H        2.94964627      -0.06384875       0.21524210
H        2.79747349       1.06786798       1.56054112
H        0.35813056       1.07285781       1.36872333
H        1.03041458       1.46711190      -0.19373404
H        0.74152961      -0.84740068      -0.94829945
H       -1.00156966      -0.78766176       1.63707947
H       -1.69640719       0.11181974       1.28744250
H       -0.90056728       0.29512626      -2.57435587
H       -2.54038599       0.64935077      -2.03696987
H       -1.21336080       1.69032996      -1.52749491
H       -1.32078579      -2.09612690      -0.09984680
19
Frame=10 idx=008075 GeodesicLength=1.1353073599214905 rxn_smarts="[C:1]([C:2]([C@@:3]([O:4][H:14])([C@@:5]([C:6]([H:16])([H:17])[H:18])([O:7][H:19])[H:15])[H:13])([H:11])[H:12])([H:8])([H:9])[H:10]>>[C:1]([C:2]([C@@:3]([O:4][H:19])([C:5]([C:6]([H:16])([H:17])[H:18])=[O:7])[H:13])([H:11])[H:12])([H:8])([H:9])[H:10].[H:14][H:15]"
C        2.30672067       0.23781154       1.04222222
C        0.93050100       0.66023295       0.54846601
C        0.15771448      -0.48973762      -0.08361057
O       -0.03797957      -1.56033701       0.80071641
C       -1.28132398      -0.16877910      -0.50732312
C       -1.48992343       0.64535649      -1.74963666
O       -2.04113921      -1.23621858      -0.47115081
H        2.22461036      -0.61238289       1.71932566
H        2.94771354      -0.04604376       0.20384857
H        2.79702407       1.05509283       1.57403474
H        0.36043498       1.05899366       1.39224400
H        1.02104266       1.48514696      -0.16442971
H        0.74033560      -0.81712653      -0.95918368
H       -0.97834609      -0.81767250       1.66557852
H       -1.70050843       0.12631494       1.31443206
H       -0.89213567       0.25699655      -2.57730191
H       -2.53329280       0.63517492      -2.06531601
H       -1.20797213       1.68341360      -1.57485387
H       -1.32347605      -2.09623645      -0.10806186
19
Frame=11 idx=008075 GeodesicLength=1.2484488741808424 rxn_smarts="[C:1]([C:2]([C@@:3]([O:4][H:14])([C@@:5]([C:6]([H:16])([H:17])[H:18])([O:7][H:19])[H:15])[H:13])([H:11])[H:12])([H:8])([H:9])[H:10]>>[C:1]([C:2]([C@@:3]([O:4][H:19])([C:5]([C:6]([H:16])([H:17])[H:18])=[O:7])[H:13])([H:11])[H:12])([H:8])([H:9])[H:10].[H:14][H:15]"
C        2.30724214       0.23412073       1.04057567
C        0.92796270       0.66253779       0.56088880
C        0.15285717      -0.47430522      -0.09211633
O       -0.03823232      -1.56246209       0.77774378
C       -1.29182790      -0.14244340      -0.49463332
C       -1.48615986       0.63239822      -1.76701609
O       -2.05986482      -1.20554801      -0.43986425
H        2.23125842      -0.63072901       1.69959264
H        2.94584264      -0.02771495       0.19324521
H        2.79650102       1.04172450       1.58801148
H        0.36281164       1.04446701       1.41566601
H        1.01183071       1.50289756      -0.13436574
H        0.73972135      -0.78631694      -0.96960484
H       -0.95362381      -0.84979554       1.69288939
H       -1.70512443       0.14365907       1.34021731
H       -0.88503991       0.21827456      -2.57945150
H       -2.52673505       0.61971858      -2.09226678
H       -1.20238830       1.67491392      -1.62271934
H       -1.32703140      -2.09539678      -0.11679212
19
Frame=12 idx=008075 GeodesicLength=1.3615497790928002 rxn_smarts="[C:1]([C:2]([C@@:3]([O:4][H:14])([C@@:5]([C:6]([H:16])([H:17])[H:18])([O:7][H:19])[H:15])[H:13])([H:11])[H:12])([H:8])([H:9])[H:10]>>[C:1]([C:2]([C@@:3]([O:4][H:19])([C:5]([C:6]([H:16])([H:17])[H:18])=[O:7])[H:13])([H:11])[H:12])([H:8])([H:9])[H:10].[H:14][H:15]"
C        2.30770867       0.23038649       1.03918144
C        0.92555329       0.66473125       0.57349023
C        0.14816900      -0.45830993      -0.10075394
O       -0.03896116      -1.56402038       0.75385348
C       -1.30158901      -0.11529112      -0.48269497
C       -1.48280426       0.61873161      -1.78392859
O       -2.07752876      -1.17384018      -0.40833692
H        2.23758399      -0.64900435       1.67933548
H        2.94405599      -0.00885848       0.18350497
H        2.79587131       1.02772799       1.60251055
H        0.36521126       1.02920369       1.43896773
H        1.00279142       1.52033107      -0.10350749
H        0.73970705      -0.75491311      -0.97961478
H       -0.92719395      -0.88433338       1.71889778
H       -1.71037949       0.16440314       1.36461765
H       -0.87921910       0.17901525      -2.58075369
H       -2.52076944       0.60293678      -2.11783187
H       -1.19676748       1.66477223      -1.67099915
H       -1.33143933      -2.09366856      -0.12593790
19
Frame=13 idx=008075 GeodesicLength=1.4746215808231662 rxn_smarts="[C:1]([C:2]([C@@:3]([O:4][H:14])([C@@:5]([C:6]([H:16])([H:17])[H:18])([O:7][H:19])[H:15])[H:13])([H:11])[H:12])([H:8])([H:9])[H:10]>>[C:1]([C:2]([C@@:3]([O:4][H:19])([C:5]([C:6]([H:16])([H:17])[H:18])=[O:7])[H:13])([H:11])[H:12])([H:8])([H:9])[H:10].[H:14][H:15]"
C        2.30811351       0.22659331       1.03807559
C        0.92325962       0.66678622       0.58630076
C        0.14368780      -0.44173652      -0.10954510
O       -0.04009428      -1.56503371       0.72894155
C       -1.31058689      -0.08734594      -0.47155395
C       -1.47989951       0.60432958      -1.80037475
O       -2.09411234      -1.14104232      -0.37645124
H        2.24359228      -0.66722136       1.65854211
H        2.94237468       0.01055421       0.17469842
H        2.79509371       1.01304906       1.61759680
H        0.36757587       1.01309809       1.46215807
H        0.99391873       1.53743012      -0.07177586
H        0.74030801      -0.72281920      -0.98927165
H       -0.89878650      -0.92167026       1.74346274
H       -1.71640706       0.18922954       1.38742842
H       -0.87461884       0.13922899      -2.58115783
H       -2.51545389       0.58475200      -2.14201854
H       -1.19126715       1.65291658      -1.71964699
H       -1.33669775      -2.09109837      -0.13540853
19
Frame=14 idx=008075 GeodesicLength=1.5876840453241792 rxn_smarts="[C:1]([C:2]([C@@:3]([O:4][H:14])([C@@:5]([C:6]([H:16])([H:17])[H:18])([O:7][H:19])[H:15])[H:13])([H:11])[H:12])([H:8])([H:9])[H:10]>>[C:1]([C:2]([C@@:3]([O:4][H:19])([C:5]([C:6]([H:16])([H:17])[H:18])=[O:7])[H:13])([H:11])[H:12])([H:8])([H:9])[H:10].[H:14][H:15]"
C        2.30844739       0.22272130       1.03730407
C        0.92105978       0.66867013       0.59937708
C        0.13945259      -0.42455473      -0.11851341
O       -0.04154641      -1.56552938       0.70285702
C       -1.31880106      -0.05861318      -0.46125152
C       -1.47749378       0.58913856      -1.81636482
O       -2.10958708      -1.10706677      -0.34404028
H        2.24929910      -0.68541029       1.63717883
H        2.94081484       0.03058153       0.16690406
H        2.79411785       0.99760938       1.63336612
H        0.36983639       0.99599924       1.48527813
H        0.98518104       1.55418786      -0.03903444
H        0.74153686      -0.68989179      -0.99863979
H       -0.86804148      -0.96228783       1.76639448
H       -1.72335608       0.21898693       1.40840007
H       -0.87120731       0.09886802      -2.58061395
H       -2.51085636       0.56505633      -2.16481687
H       -1.18603249       1.63924821      -1.76866768
H       -1.34282379      -2.08771352      -0.14511708
19
Frame=15 idx=008075 GeodesicLength=1.7007695411347885 rxn_smarts="[C:1]([C:2]([C@@:3]([O:4][H:14])([C@@:5]([C:6]([H:16])([H:17])[H:18])([O:7][H:19])[H:15])[H:13])([H:11])[H:12])([H:8])([H:9])[H:10]>>[C:1]([C:2]([C@@:3]([O:4][H:19])([C:5]([C:6]([H:16])([H:17])[H:18])=[O:7])[H:13])([H:11])[H:12])([H:8])([H:9])[H:10].[H:14][H:15]"
C        2.30869657       0.21874528       1.03692515
C        0.91892234       0.67034264       0.61280602
C        0.13550669      -0.40671726      -0.12768655
O       -0.04322078      -1.56554180       0.67539026
C       -1.32620624      -0.02907593      -0.45182671
C       -1.47564495       0.57307103      -1.83191463
O       -2.12390565      -1.07178016      -0.31087258
H        2.25473002      -0.70362562       1.61517938
H        2.93939054       0.05132453       0.16021482
H        2.79287638       0.98129881       1.64995775
H        0.37190653       0.97769784       1.50840186
H        0.97651978       1.57060688      -0.00507845
H        0.74340962      -0.65593256      -1.00779036
H       -0.83449266      -1.00679088       1.78742532
H       -1.73138235       0.25474237       1.42720752
H       -0.86897396       0.05782438      -2.57906010
H       -2.50705925       0.54369528      -2.18619406
H       -1.18120939       1.62362895      -1.81811683
H       -1.34986324      -2.08351378      -0.15496780
19
Frame=16 idx=008075 GeodesicLength=1.8139257709018877 rxn_smarts="[C:1]([C:2]([C@@:3]([O:4][H:14])([C@@:5]([C:6]([H:16])([H:17])[H:18])([O:7][H:19])[H:15])[H:13])([H:11])[H:12])([H:8])([H:9])[H:10]>>[C:1]([C:2]([C@@:3]([O:4][H:19])([C:5]([C:6]([H:16])([H:17])[H:18])=[O:7])[H:13])([H:11])[H:12])([H:8])([H:9])[H:10].[H:14][H:15]"
C        2.30883973       0.21463247       1.03701970
C        0.91680499       0.67175081       0.62670754
C        0.13190271      -0.38815601      -0.13710148
O       -0.04500334      -1.56510873       0.64625477
C       -1.33276798       0.00130817      -0.44331961
C       -1.47442953       0.55599833      -1.84704049
O       -2.13698922      -1.03499234      -0.27663668
H        2.25991505      -0.72194160       1.59245108
H        2.93811378       0.07292553       0.15475923
H        2.79127871       0.96396711       1.66756429
H        0.37367302       0.95791055       1.53162987
H        0.96784765       1.58669161       0.03037623
H        0.74595129      -0.62067268      -1.01680477
H       -0.79753425      -1.05593118       1.80616297
H       -1.74063515       0.29783400       1.44341262
H       -0.86793867       0.01592527      -2.57641401
H       -2.50417158       0.52045464      -2.20607946
H       -1.17695751       1.60586774      -1.86810004
H       -1.35789972      -2.07846368      -0.16484176
