17
Frame=0 idx=009532 GeodesicLength=0.0 rxn_smarts="[C:1]([C@@:2]1([H:11])[C@:3]([C:4]([H:13])([H:14])[H:15])([H:12])[C@:5]1([C:6]#[C:7][H:17])[H:16])([H:8])([H:9])[H:10]>>[C:1]([C@@:2]([C:3]([C:4]([H:13])([H:14])[H:15])([H:12])[H:16])([C-:5]=[C:6]=[C+:7][H:17])[H:11])([H:8])([H:9])[H:10]"
C       -1.28419847      -1.16882938       0.07111343
C       -0.20145152      -0.78808509      -0.91634220
C        0.17446826       0.69929788      -1.03805218
C       -0.38549377       1.68530891      -0.04327426
C        1.23351998      -0.78680706      -0.54853459
C        1.53293120      -0.67727818       0.83104662
C        1.87768480      -0.67655429       1.98771837
H       -2.26259694      -0.82487053      -0.27153588
H       -1.32990783      -2.25514777       0.16344447
H       -1.09898391      -0.76294104       1.06518367
H       -0.38678373      -1.23021418      -1.89348217
H        0.14508262       1.01805767      -2.07851545
H        0.01221332       2.68299897      -0.23071109
H       -1.47366732       1.73284768      -0.11830541
H       -0.12735927       1.40842379       0.97951517
H        1.35448596       0.63394313      -0.95441810
H        2.22005658      -0.69015059       2.99514956
17
Frame=1 idx=009532 GeodesicLength=0.06751254704083956 rxn_smarts="[C:1]([C@@:2]1([H:11])[C@:3]([C:4]([H:13])([H:14])[H:15])([H:12])[C@:5]1([C:6]#[C:7][H:17])[H:16])([H:8])([H:9])[H:10]>>[C:1]([C@@:2]([C:3]([C:4]([H:13])([H:14])[H:15])([H:12])[H:16])([C-:5]=[C:6]=[C+:7][H:17])[H:11])([H:8])([H:9])[H:10]"
C       -1.28971136      -1.16938712       0.06809656
C       -0.20162870      -0.78549199      -0.91190847
C        0.16925544       0.70075758      -1.04056394
C       -0.38740318       1.69038680      -0.04713043
C        1.22868113      -0.77718901      -0.52897975
C        1.54172979      -0.67511192       0.84172738
C        1.88684375      -0.64019010       2.00136076
H       -2.26650763      -0.83162275      -0.28505304
H       -1.32884257      -2.25551932       0.16525023
H       -1.11524686      -0.75819909       1.06193322
H       -0.36979791      -1.23923945      -1.88693345
H        0.12137650       1.01577562      -2.08152573
H        0.01085388       2.68738217      -0.23746815
H       -1.47564254       1.74077039      -0.11965280
H       -0.12917595       1.41705379       0.97655219
H        1.36488767       0.63208944      -0.97671752
H        2.24032852      -0.75226503       3.00101295
17
Frame=2 idx=009532 GeodesicLength=0.1361091324167833 rxn_smarts="[C:1]([C@@:2]1([H:11])[C@:3]([C:4]([H:13])([H:14])[H:15])([H:12])[C@:5]1([C:6]#[C:7][H:17])[H:16])([H:8])([H:9])[H:10]>>[C:1]([C@@:2]([C:3]([C:4]([H:13])([H:14])[H:15])([H:12])[H:16])([C-:5]=[C:6]=[C+:7][H:17])[H:11])([H:8])([H:9])[H:10]"
C       -1.29435409      -1.17024045       0.06604134
C       -0.20195124      -0.78267734      -0.90732508
C        0.16362296       0.70250512      -1.04279509
C       -0.38836919       1.69529561      -0.04950598
C        1.22405872      -0.76714865      -0.51138111
C        1.55267889      -0.67430858       0.85004188
C        1.91748017      -0.61668339       2.00640423
H       -2.26980931      -0.83895813      -0.29676120
H       -1.32648878      -2.25613284       0.16804248
H       -1.13010047      -0.75378976       1.05941267
H       -0.35400913      -1.24738989      -1.87996167
H        0.09616530       1.01418810      -2.08372075
H        0.01033847       2.69162165      -0.24276263
H       -1.47674368       1.74863298      -0.11814238
H       -0.12871904       1.42491995       0.97456895
H        1.37487812       0.62949264      -1.00057174
H        2.23132228      -0.79932701       3.00841609
17
Frame=3 idx=009532 GeodesicLength=0.20477720911066166 rxn_smarts="[C:1]([C@@:2]1([H:11])[C@:3]([C:4]([H:13])([H:14])[H:15])([H:12])[C@:5]1([C:6]#[C:7][H:17])[H:16])([H:8])([H:9])[H:10]>>[C:1]([C@@:2]([C:3]([C:4]([H:13])([H:14])[H:15])([H:12])[H:16])([C-:5]=[C:6]=[C+:7][H:17])[H:11])([H:8])([H:9])[H:10]"
C       -1.30014007      -1.17082106       0.06293862
C       -0.20221977      -0.77973900      -0.90242989
C        0.15828362       0.70432747      -1.04445624
C       -0.39017233       1.70047466      -0.05215421
C        1.21882627      -0.75664200      -0.49160085
C        1.56172653      -0.67381882       0.86072738
C        1.94376815      -0.59943275       2.01438777
H       -2.27364758      -0.84611820      -0.31081490
H       -1.32544000      -2.25638142       0.17000973
H       -1.14736947      -0.74901150       1.05587238
H       -0.33681536      -1.25536723      -1.87249416
H        0.07284400       1.01244082      -2.08516698
H        0.00939734       2.69601951      -0.24800957
H       -1.47856957       1.75685687      -0.11830532
H       -0.13036649       1.43314854       0.97265207
H        1.38502446       0.62579321      -1.02257011
H        2.23487025      -0.84172911       3.01141426
17
Frame=4 idx=009532 GeodesicLength=0.2735461138082306 rxn_smarts="[C:1]([C@@:2]1([H:11])[C@:3]([C:4]([H:13])([H:14])[H:15])([H:12])[C@:5]1([C:6]#[C:7][H:17])[H:16])([H:8])([H:9])[H:10]>>[C:1]([C@@:2]([C:3]([C:4]([H:13])([H:14])[H:15])([H:12])[H:16])([C-:5]=[C:6]=[C+:7][H:17])[H:11])([H:8])([H:9])[H:10]"
C       -1.30627593      -1.17121392       0.05947233
C       -0.20235255      -0.77662292      -0.89724659
C        0.15296689       0.70633320      -1.04592888
C       -0.39255236       1.70600229      -0.05512516
C        1.21327627      -0.74530755      -0.47061097
C        1.57008930      -0.67318603       0.87258026
C        1.96772681      -0.58671158       2.02404925
H       -2.27749644      -0.85343053      -0.32593265
H       -1.32461601      -2.25633738       0.17200108
H       -1.16576578      -0.74379729       1.05181274
H       -0.31870847      -1.26318715      -1.86437891
H        0.05035709       1.01056827      -2.08627101
H        0.00801289       2.70070161      -0.25358712
H       -1.48092465       1.76533203      -0.11942840
H       -0.13311291       1.44192553       0.97059096
H        1.39515047       0.62123106      -1.04390187
H        2.24422538      -0.88229965       3.01190492
17
Frame=5 idx=009532 GeodesicLength=0.34232033562217157 rxn_smarts="[C:1]([C@@:2]1([H:11])[C@:3]([C:4]([H:13])([H:14])[H:15])([H:12])[C@:5]1([C:6]#[C:7][H:17])[H:16])([H:8])([H:9])[H:10]>>[C:1]([C@@:2]([C:3]([C:4]([H:13])([H:14])[H:15])([H:12])[H:16])([C-:5]=[C:6]=[C+:7][H:17])[H:11])([H:8])([H:9])[H:10]"
C       -1.31245871      -1.17145165       0.05590769
C       -0.20230075      -0.77331091      -0.89175751
C        0.14757907       0.70855559      -1.04734931
C       -0.39542947       1.71191394      -0.05846029
C        1.20751336      -0.73298034      -0.44872654
C        1.57821914      -0.67222066       0.88517755
C        1.98984846      -0.57744085       2.03505878
H       -2.28113688      -0.86102482      -0.34163518
H       -1.32361804      -2.25601833       0.17435068
H       -1.18481795      -0.73812333       1.04741836
H       -0.29983361      -1.27085959      -1.85551584
H        0.02834669       1.00855146      -2.08718969
H        0.00616907       2.70571616      -0.25966102
H       -1.48375182       1.77401863      -0.12129341
H       -0.13662126       1.45134282       0.96829092
H        1.40519999       0.61585033      -1.06496141
H        2.25709269      -0.92251846       3.01034620
17
Frame=6 idx=009532 GeodesicLength=0.4114600283239651 rxn_smarts="[C:1]([C@@:2]1([H:11])[C@:3]([C:4]([H:13])([H:14])[H:15])([H:12])[C@:5]1([C:6]#[C:7][H:17])[H:16])([H:8])([H:9])[H:10]>>[C:1]([C@@:2]([C:3]([C:4]([H:13])([H:14])[H:15])([H:12])[H:16])([C-:5]=[C:6]=[C+:7][H:17])[H:11])([H:8])([H:9])[H:10]"
C       -1.31843271      -1.17171618       0.05240468
C       -0.20218742      -0.76980655      -0.88615318
C        0.14197490       0.71100861      -1.04874760
C       -0.39842941       1.71801621      -0.06169398
C        1.20160205      -0.71980631      -0.42683774
C        1.58679311      -0.67156605       0.89744913
C        2.01474769      -0.57163754       2.04496767
H       -2.28444565      -0.86900681      -0.35732428
H       -1.32215735      -2.25561515       0.17703433
H       -1.20390622      -0.73234865       1.04285351
H       -0.28077967      -1.27813835      -1.84615255
H        0.00617694       1.00664636      -2.08784167
H        0.00420023       2.71089628      -0.26570705
H       -1.48670514       1.78279625      -0.12290855
H       -0.14004771       1.46093681       0.96602929
H        1.41502462       0.60952534      -1.08642116
H        2.26657172      -0.96018426       3.00904916
17
Frame=7 idx=009532 GeodesicLength=0.48078268814210645 rxn_smarts="[C:1]([C@@:2]1([H:11])[C@:3]([C:4]([H:13])([H:14])[H:15])([H:12])[C@:5]1([C:6]#[C:7][H:17])[H:16])([H:8])([H:9])[H:10]>>[C:1]([C@@:2]([C:3]([C:4]([H:13])([H:14])[H:15])([H:12])[H:16])([C-:5]=[C:6]=[C+:7][H:17])[H:11])([H:8])([H:9])[H:10]"
C       -1.32433527      -1.17192546       0.04887129
C       -0.20196977      -0.76610369      -0.88034312
C        0.13621616       0.71368131      -1.05010512
C       -0.40174136       1.72439726      -0.06504422
C        1.19546752      -0.70570259      -0.40452836
C        1.59550003      -0.67106737       0.90982194
C        2.04042852      -0.56858620       2.05474228
H       -2.28746855      -0.87732386      -0.37329452
H       -1.32041214      -2.25502594       0.18004247
H       -1.22334261      -0.72633237       1.03800595
H       -0.26128696      -1.28510801      -1.83615630
H       -0.01583886       1.00472661      -2.08827762
H        0.00194651       2.71631384      -0.27196095
H       -1.48996121       1.79172396      -0.12474733
H       -0.14380244       1.47091260       0.96367340
H        1.42469046       0.60218551      -1.10791640
H        2.27590996      -0.99676562       3.00721660
17
Frame=8 idx=009532 GeodesicLength=0.5503219767575099 rxn_smarts="[C:1]([C@@:2]1([H:11])[C@:3]([C:4]([H:13])([H:14])[H:15])([H:12])[C@:5]1([C:6]#[C:7][H:17])[H:16])([H:8])([H:9])[H:10]>>[C:1]([C@@:2]([C:3]([C:4]([H:13])([H:14])[H:15])([H:12])[H:16])([C-:5]=[C:6]=[C+:7][H:17])[H:11])([H:8])([H:9])[H:10]"
C       -1.33012405      -1.17209582       0.04533585
C       -0.20164989      -0.76218899      -0.87433015
C        0.13028469       0.71658591      -1.05142149
C       -0.40535848       1.73105352      -0.06847937
C        1.18910736      -0.69064241      -0.38187108
C        1.60443612      -0.67083268       0.92214318
C        2.06745741      -0.56816257       2.06400358
H       -2.29016400      -0.88600324      -0.38947560
H       -1.31833175      -2.25425616       0.18339944
H       -1.24305915      -0.72010731       1.03288730
H       -0.24139998      -1.29172638      -1.82552210
H       -0.03775227       1.00281390      -2.08849951
H       -0.00060350       2.72197102      -0.27839382
H       -1.49351741       1.80078691      -0.12673234
H       -0.14782629       1.48125291       0.96123790
H        1.43418009       0.59376827      -1.12945902
H        2.28432108      -1.03221689       3.00517724
17
Frame=9 idx=009532 GeodesicLength=0.6199927448887294 rxn_smarts="[C:1]([C@@:2]1([H:11])[C@:3]([C:4]([H:13])([H:14])[H:15])([H:12])[C@:5]1([C:6]#[C:7][H:17])[H:16])([H:8])([H:9])[H:10]>>[C:1]([C@@:2]([C:3]([C:4]([H:13])([H:14])[H:15])([H:12])[H:16])([C-:5]=[C:6]=[C+:7][H:17])[H:11])([H:8])([H:9])[H:10]"
C       -1.33584112      -1.17219455       0.04177178
C       -0.20121217      -0.75804978      -0.86807104
C        0.12420805       0.71972287      -1.05268340
C       -0.40935619       1.73802365      -0.07207994
C        1.18247423      -0.67457759      -0.35871224
C        1.61350773      -0.67087580       0.93451793
C        2.09510101      -0.57003297       2.07303941
H       -2.29252611      -0.89503083      -0.40596263
H       -1.31597681      -2.25325628       0.18711814
H       -1.26316240      -0.71362500       1.02744763
H       -0.22102936      -1.29800477      -1.81417399
H       -0.05943445       1.00086193      -2.08853318
H       -0.00352000       2.72790142      -0.28509525
H       -1.49744610       1.81000656      -0.12903922
H       -0.15226933       1.49204280       0.95867163
H        1.44353202       0.58419524      -1.15085223
H        2.29295098      -1.06710691       3.00263658
17
Frame=10 idx=009532 GeodesicLength=0.6898545312407194 rxn_smarts="[C:1]([C@@:2]1([H:11])[C@:3]([C:4]([H:13])([H:14])[H:15])([H:12])[C@:5]1([C:6]#[C:7][H:17])[H:16])([H:8])([H:9])[H:10]>>[C:1]([C@@:2]([C:3]([C:4]([H:13])([H:14])[H:15])([H:12])[H:16])([C-:5]=[C:6]=[C+:7][H:17])[H:11])([H:8])([H:9])[H:10]"
C       -1.34144932      -1.17219900       0.03823178
C       -0.20062463      -0.75365386      -0.86150340
C        0.11797537       0.72311845      -1.05389552
C       -0.41382579       1.74536314      -0.07592349
C        1.17556109      -0.65739579      -0.33498036
C        1.62274333      -0.67113954       0.94693431
C        2.12370090      -0.57429515       2.08167745
H       -2.29449693      -0.90444736      -0.42272922
H       -1.31328431      -2.25198140       0.19131185
H       -1.28365490      -0.70682464       1.02169838
H       -0.20011637      -1.30393761      -1.80200705
H       -0.08085685       0.99883644      -2.08841890
H       -0.00693403       2.73416699      -0.29218258
H       -1.50184147       1.81938636      -0.13178080
H       -0.15723032       1.50339988       0.95591243
H        1.45275365       0.57345595      -1.17197209
H        2.30158058      -1.10185286       2.99962721
17
Frame=11 idx=009532 GeodesicLength=0.7599262680830849 rxn_smarts="[C:1]([C@@:2]1([H:11])[C@:3]([C:4]([H:13])([H:14])[H:15])([H:12])[C@:5]1([C:6]#[C:7][H:17])[H:16])([H:8])([H:9])[H:10]>>[C:1]([C@@:2]([C:3]([C:4]([H:13])([H:14])[H:15])([H:12])[H:16])([C-:5]=[C:6]=[C+:7][H:17])[H:11])([H:8])([H:9])[H:10]"
C       -1.34692376      -1.17207553       0.03476295
C       -0.19984894      -0.74896655      -0.85455033
C        0.11158970       0.72679555      -1.05505829
C       -0.41887434       1.75313680      -0.08011394
C        1.16834770      -0.63897460      -0.31055307
C        1.63213826      -0.67154722       0.95942661
C        2.15323620      -0.58102291       2.08990231
H       -2.29601676      -0.91428676      -0.43977369
H       -1.31021100      -2.25037074       0.19610034
H       -1.30456969      -0.69963001       1.01563922
H       -0.17857240      -1.30952549      -1.78889000
H       -0.10194864       0.99668410      -2.08820324
H       -0.01098921       2.74083651      -0.29980346
H       -1.50681252       1.82893597      -0.13512690
H       -0.16285143       1.51546787       0.95288128
H        1.46187686       0.56153658      -1.19263028
H        2.31042997      -1.13699357       2.99599048
17
Frame=12 idx=009532 GeodesicLength=0.8301441946186896 rxn_smarts="[C:1]([C@@:2]1([H:11])[C@:3]([C:4]([H:13])([H:14])[H:15])([H:12])[C@:5]1([C:6]#[C:7][H:17])[H:16])([H:8])([H:9])[H:10]>>[C:1]([C@@:2]([C:3]([C:4]([H:13])([H:14])[H:15])([H:12])[H:16])([C-:5]=[C:6]=[C+:7][H:17])[H:11])([H:8])([H:9])[H:10]"
C       -1.35226736      -1.17179098       0.03138466
C       -0.19885807      -0.74396298      -0.84714399
C        0.10507772       0.73075998      -1.05615982
C       -0.42458038       1.76139130      -0.08474142
C        1.16078822      -0.61923206      -0.28529308
C        1.64165856      -0.67209475       0.97203329
C        2.18314933      -0.59000917       2.09790377
H       -2.29703862      -0.92455844      -0.45712370
H       -1.30676839      -2.24836343       0.20156200
H       -1.32596494      -0.69198587       1.00924536
H       -0.15631778      -1.31476537      -1.77469947
H       -0.12259759       0.99434842      -2.08792219
H       -0.01577674       2.74795415      -0.30807419
H       -1.51243760       1.83866846      -0.13924967
H       -0.16926912       1.52835817       0.94951368
H        1.47096458       0.54837923      -1.21258806
H        2.32023818      -1.17309667       2.99135285
17
Frame=13 idx=009532 GeodesicLength=0.9005786556001243 rxn_smarts="[C:1]([C@@:2]1([H:11])[C@:3]([C:4]([H:13])([H:14])[H:15])([H:12])[C@:5]1([C:6]#[C:7][H:17])[H:16])([H:8])([H:9])[H:10]>>[C:1]([C@@:2]([C:3]([C:4]([H:13])([H:14])[H:15])([H:12])[H:16])([C-:5]=[C:6]=[C+:7][H:17])[H:11])([H:8])([H:9])[H:10]"
C       -1.35742291      -1.17130476       0.02818741
C       -0.19759348      -0.73859199      -0.83917027
C        0.09843689       0.73504472      -1.05720282
C       -0.43108525       1.77021185      -0.08994456
C        1.15286521      -0.59798640      -0.25905509
C        1.65132963      -0.67263340       0.98477498
C        2.21369077      -0.60153013       2.10554996
H       -2.29746383      -0.93532766      -0.47473586
H       -1.30286375      -2.24587822       0.20789202
H       -1.34785613      -0.68378970       1.00253641
H       -0.13323811      -1.31965241      -1.75924125
H       -0.14273948       0.99175368      -2.08763554
H       -0.02149899       2.75561250      -0.31720180
H       -1.51886181       1.84858619      -0.14435986
H       -0.17665983       1.54226994       0.94569997
H        1.48006791       0.53401266      -1.23160379
H        2.33089317      -1.21079687       2.98551009
17
Frame=14 idx=009532 GeodesicLength=0.9713483376889692 rxn_smarts="[C:1]([C@@:2]1([H:11])[C@:3]([C:4]([H:13])([H:14])[H:15])([H:12])[C@:5]1([C:6]#[C:7][H:17])[H:16])([H:8])([H:9])[H:10]>>[C:1]([C@@:2]([C:3]([C:4]([H:13])([H:14])[H:15])([H:12])[H:16])([C-:5]=[C:6]=[C+:7][H:17])[H:11])([H:8])([H:9])[H:10]"
C       -1.36230547      -1.17057465       0.02529328
C       -0.19597841      -0.73278710      -0.83048750
C        0.09165769       0.73969375      -1.05818748
C       -0.43856030       1.77969727      -0.09588100
C        1.14456713      -0.57500495      -0.23167642
C        1.66120159      -0.67294928       0.99766617
C        2.24544403      -0.61617152       2.11250537
H       -2.29716144      -0.94668765      -0.49253565
H       -1.29836141      -2.24282103       0.21533650
H       -1.37024567      -0.67492699       0.99554771
H       -0.10919345      -1.32416939      -1.74227869
H       -0.16231967       0.98881182      -2.08740466
H       -0.02840868       2.76392135      -0.32742852
H       -1.52626147       1.85868184      -0.15069058
H       -0.18523026       1.55743965       0.94131343
H        1.48924758       0.51850636      -1.24940405
H        2.34190822      -1.25065950       2.97831208
17
Frame=15 idx=009532 GeodesicLength=1.0423794893305025 rxn_smarts="[C:1]([C@@:2]1([H:11])[C@:3]([C:4]([H:13])([H:14])[H:15])([H:12])[C@:5]1([C:6]#[C:7][H:17])[H:16])([H:8])([H:9])[H:10]>>[C:1]([C@@:2]([C:3]([C:4]([H:13])([H:14])[H:15])([H:12])[H:16])([C-:5]=[C:6]=[C+:7][H:17])[H:11])([H:8])([H:9])[H:10]"
C       -1.36689228      -1.16956949       0.02275804
C       -0.19397167      -0.72651280      -0.82099272
C        0.08478072       0.74470709      -1.05908467
C       -0.44708242       1.78988685      -0.10264646
C        1.13583417      -0.55018069      -0.20300488
C        1.67128330      -0.67302549       1.01068456
C        2.27787294      -0.63379360       2.11884059
H       -2.29603994      -0.95866723      -0.51049909
H       -1.29325430      -2.23911406       0.22402346
H       -1.39316997      -0.66535336       0.98826676
H       -0.08410007      -1.32828638      -1.72362975
H       -0.18121029       0.98544535      -2.08725196
H       -0.03660141       2.77291500      -0.33888527
H       -1.53471225       1.86895036      -0.15842652
H       -0.19512836       1.57399009       0.93628206
H        1.49861510       0.50181979      -1.26565576
H        2.35377672      -1.29321143       2.96922161
17
Frame=16 idx=009532 GeodesicLength=1.1137829397363328 rxn_smarts="[C:1]([C@@:2]1([H:11])[C@:3]([C:4]([H:13])([H:14])[H:15])([H:12])[C@:5]1([C:6]#[C:7][H:17])[H:16])([H:8])([H:9])[H:10]>>[C:1]([C@@:2]([C:3]([C:4]([H:13])([H:14])[H:15])([H:12])[H:16])([C-:5]=[C:6]=[C+:7][H:17])[H:11])([H:8])([H:9])[H:10]"
C       -1.37106102      -1.16825595       0.02073971
C       -0.19147646      -0.71969114      -0.81051682
C        0.07780719       0.75012709      -1.05987661
C       -0.45682073       1.80086733      -0.11039417
C        1.12665571      -0.52325530      -0.17287554
C        1.68168003      -0.67261624       1.02377817
C        2.31162724      -0.65515292       2.12401014
H       -2.29391980      -0.97138492      -0.52849471
H       -1.28736925      -2.23465494       0.23424011
H       -1.41659575      -0.65497609       0.98074665
H       -0.05781052      -1.33195359      -1.70301849
H       -0.19935220       0.98155438      -2.08721641
H       -0.04633884       2.78269077      -0.35181737
H       -1.54438668       1.87935762      -0.16779440
H       -0.20656498       1.59215908       0.93047864
H        1.50826552       0.48405231      -1.28002483
H        2.36566054      -1.33886749       2.95803592
