15
Frame=0 idx=000246 GeodesicLength=0.0 rxn_smarts="[C:1]([C:2]([C:3]([C:4]([C:5]#[N:6])([H:14])[H:15])([H:12])[H:13])([H:10])[H:11])([H:7])([H:8])[H:9]>>[C:1]([C:2]([C@@:3]1([H:13])[C:4]([H:14])([H:15])/[C:5]1=[N:6]/[H:12])([H:10])[H:11])([H:7])([H:8])[H:9]"
C       -1.97958810      -0.35079762       0.45988685
C       -0.79278044       0.55698455       0.16229740
C        0.34012806      -0.17705535      -0.51263790
C        1.66519615       0.66139166      -0.70613789
C        1.95602762      -0.38017717       0.21438973
N        2.30869225      -1.23642436       1.00618044
H       -1.69272848      -1.16662359       1.12716011
H       -2.79273722       0.20122375       0.93423504
H       -2.37142148      -0.79569208      -0.45783251
H       -0.43072720       0.99674613       1.09888057
H       -1.12502874       1.40035653      -0.45822793
H        1.06108824      -1.25585352       0.53672158
H        0.08698256      -0.72932826      -1.41469878
H        1.63075096       1.67236619      -0.30725750
H        2.13614582       0.60288315      -1.68295926
15
Frame=1 idx=000246 GeodesicLength=0.08111014749247826 rxn_smarts="[C:1]([C:2]([C:3]([C:4]([C:5]#[N:6])([H:14])[H:15])([H:12])[H:13])([H:10])[H:11])([H:7])([H:8])[H:9]>>[C:1]([C:2]([C@@:3]1([H:13])[C:4]([H:14])([H:15])/[C:5]1=[N:6]/[H:12])([H:10])[H:11])([H:7])([H:8])[H:9]"
C       -1.98024087      -0.34909812       0.45994575
C       -0.79427499       0.55854709       0.15901180
C        0.34355489      -0.17875723      -0.50497583
C        1.66211547       0.66485648      -0.70218447
C        1.97236966      -0.38582143       0.20402619
N        2.32109833      -1.24632519       0.99155196
H       -1.69502907      -1.15686655       1.13761802
H       -2.79719937       0.20603973       0.92402883
H       -2.36676735      -0.80458201      -0.45481890
H       -0.43636541       1.00725286       1.09283002
H       -1.12588960       1.39480733      -0.47103256
H        1.04901486      -1.26579635       0.54421760
H        0.09103204      -0.73246345      -1.40666572
H        1.63556102       1.66996619      -0.28823867
H        2.12102039       0.61824064      -1.68531401
15
Frame=2 idx=000246 GeodesicLength=0.16212790954945822 rxn_smarts="[C:1]([C:2]([C:3]([C:4]([C:5]#[N:6])([H:14])[H:15])([H:12])[H:13])([H:10])[H:11])([H:7])([H:8])[H:9]>>[C:1]([C:2]([C@@:3]1([H:13])[C:4]([H:14])([H:15])/[C:5]1=[N:6]/[H:12])([H:10])[H:11])([H:7])([H:8])[H:9]"
C       -1.98089141      -0.34737565       0.46000073
C       -0.79574420       0.56007846       0.15568907
C        0.34710512      -0.18050511      -0.49698771
C        1.65905950       0.66835404      -0.69804106
C        1.98903615      -0.39131489       0.19315639
N        2.33339146      -1.25638288       0.97623960
H       -1.69746440      -1.14683616       1.14817017
H       -2.80169652       0.21081697       0.91355355
H       -2.36196646      -0.81359485      -0.45163513
H       -0.44214792       1.01791883       1.08659975
H       -1.12662249       1.38900133      -0.48400075
H        1.03669892      -1.27580366       0.55210700
H        0.09520900      -0.73556159      -1.39837315
H        1.64045182       1.66733435      -0.26914765
H        2.10558143       0.63387079      -1.68733082
15
Frame=3 idx=000246 GeodesicLength=0.2430945052367618 rxn_smarts="[C:1]([C:2]([C:3]([C:4]([C:5]#[N:6])([H:14])[H:15])([H:12])[H:13])([H:10])[H:11])([H:7])([H:8])[H:9]>>[C:1]([C:2]([C@@:3]1([H:13])[C:4]([H:14])([H:15])/[C:5]1=[N:6]/[H:12])([H:10])[H:11])([H:7])([H:8])[H:9]"
C       -1.98153416      -0.34563047       0.46005014
C       -0.79717725       0.56157234       0.15233252
C        0.35079185      -0.18230095      -0.48865473
C        1.65603359       0.67188341      -0.69370942
C        2.00604427      -0.39662861       0.18176046
N        2.34552020      -1.26656918       0.96024237
H       -1.70003865      -1.13653236       1.15880307
H       -2.80621448       0.21554675       0.90280842
H       -2.35701427      -0.82272089      -0.44827814
H       -0.44806812       1.02873897       1.08018506
H       -1.12720949       1.38292532      -0.49712860
H        1.02410906      -1.28591048       0.56038920
H        0.09952383      -0.73862458      -1.38980312
H        1.64542802       1.66447303      -0.24999838
H        2.08980561       0.64977771      -1.68899884
15
Frame=4 idx=000246 GeodesicLength=0.3240341115050508 rxn_smarts="[C:1]([C:2]([C:3]([C:4]([C:5]#[N:6])([H:14])[H:15])([H:12])[H:13])([H:10])[H:11])([H:7])([H:8])[H:9]>>[C:1]([C:2]([C@@:3]1([H:13])[C:4]([H:14])([H:15])/[C:5]1=[N:6]/[H:12])([H:10])[H:11])([H:7])([H:8])[H:9]"
C       -1.98216316      -0.34386277       0.46009261
C       -0.79856245       0.56302210       0.14894527
C        0.35462858      -0.18414632      -0.47995814
C        1.65304394       0.67544297      -0.68918984
C        2.02341126      -0.40173734       0.16981306
N        2.35742869      -1.27685169       0.94356067
H       -1.70275661      -1.12594898       1.16950712
H       -2.81073960       0.22022261       0.89178356
H       -2.35190047      -0.83195764      -0.44473647
H       -0.45411797       1.03970755       1.07358009
H       -1.12763071       1.37656313      -0.51041130
H        1.01121041      -1.29615500       0.56905789
H        0.10398682      -0.74165170      -1.38093878
H        1.65049692       1.66138202      -0.23080380
H        2.07366435       0.66597106      -1.69030193
15
Frame=5 idx=000246 GeodesicLength=0.4049786578573151 rxn_smarts="[C:1]([C:2]([C:3]([C:4]([C:5]#[N:6])([H:14])[H:15])([H:12])[H:13])([H:10])[H:11])([H:7])([H:8])[H:9]>>[C:1]([C:2]([C@@:3]1([H:13])[C:4]([H:14])([H:15])/[C:5]1=[N:6]/[H:12])([H:10])[H:11])([H:7])([H:8])[H:9]"
C       -1.98277198      -0.34207557       0.46012589
C       -0.79988753       0.56441970       0.14553311
C        0.35862959      -0.18604235      -0.47087865
C        1.65009553       0.67903243      -0.68448622
C        2.04115717      -0.40660712       0.15728746
N        2.36905872      -1.28718469       0.92620545
H       -1.70562258      -1.11509546       1.18026806
H       -2.81526023       0.22484159       0.88048569
H       -2.34662234      -0.84129220      -0.44101581
H       -0.46028803       1.05081300       1.06678348
H       -1.12786675       1.36990522      -0.52383724
H        0.99796388      -1.30658247       0.57810581
H        0.10860810      -0.74464491      -1.37176150
H        1.65566346       1.65807002      -0.21158281
H        2.05714300       0.68244281      -1.69123272
15
Frame=6 idx=000246 GeodesicLength=0.48596418301876265 rxn_smarts="[C:1]([C:2]([C:3]([C:4]([C:5]#[N:6])([H:14])[H:15])([H:12])[H:13])([H:10])[H:11])([H:7])([H:8])[H:9]>>[C:1]([C:2]([C@@:3]1([H:13])[C:4]([H:14])([H:15])/[C:5]1=[N:6]/[H:12])([H:10])[H:11])([H:7])([H:8])[H:9]"
C       -1.98335251      -0.34026863       0.46014817
C       -0.80113614       0.56575657       0.14210266
C        0.36281232      -0.18799098      -0.46139406
C        1.64719462       0.68265059      -0.67960107
C        2.05930513      -0.41120864       0.14415063
N        2.38034263      -1.29751592       0.90818297
H       -1.70864371      -1.10395943       1.19107990
H       -2.81976146       0.22939466       0.86889730
H       -2.34116568      -0.85072341      -0.43710251
H       -0.46656439       1.06204533       1.05979233
H       -1.12789194       1.36293217      -0.53739967
H        0.98431854      -1.31724864       0.58751652
H        0.11340034      -0.74760210      -1.36225209
H        1.66093931       1.65453575      -0.19234926
H        2.04020295       0.69920267      -1.69177181
15
Frame=7 idx=000246 GeodesicLength=0.567006280399411 rxn_smarts="[C:1]([C:2]([C:3]([C:4]([C:5]#[N:6])([H:14])[H:15])([H:12])[H:13])([H:10])[H:11])([H:7])([H:8])[H:9]>>[C:1]([C:2]([C@@:3]1([H:13])[C:4]([H:14])([H:15])/[C:5]1=[N:6]/[H:12])([H:10])[H:11])([H:7])([H:8])[H:9]"
C       -1.98389850      -0.33844321       0.46016002
C       -0.80229327       0.56702289       0.13866051
C        0.36719201      -0.18999508      -0.45148177
C        1.64434763       0.68629326      -0.67453783
C        2.07787217      -0.41551066       0.13036711
N        2.39122657      -1.30778160       0.88950130
H       -1.71183080      -1.09253461       1.20193338
H       -2.82423072       0.23387551       0.85700507
H       -2.33551972      -0.86024763      -0.43298967
H       -0.47293405       1.07339245       1.05260439
H       -1.12768118       1.35563094      -0.55108268
H        0.97022210      -1.32820955       0.59727047
H        0.11837287      -0.75052075      -1.35239129
H        1.66633412       1.65078219      -0.17311935
H        2.02282076       0.71624585      -1.69189966
15
Frame=8 idx=000246 GeodesicLength=0.6480812471438686 rxn_smarts="[C:1]([C:2]([C:3]([C:4]([C:5]#[N:6])([H:14])[H:15])([H:12])[H:13])([H:10])[H:11])([H:7])([H:8])[H:9]>>[C:1]([C:2]([C@@:3]1([H:13])[C:4]([H:14])([H:15])/[C:5]1=[N:6]/[H:12])([H:10])[H:11])([H:7])([H:8])[H:9]"
C       -1.98440693      -0.33659895       0.46015884
C       -0.80334689       0.56821004       0.13521644
C        0.37178050      -0.19205503      -0.44112423
C        1.64155788       0.68996169      -0.66930335
C        2.09686842      -0.41947777       0.11591026
N        2.40165912      -1.31791875       0.87018182
H       -1.71518543      -1.08083868       1.21281535
H       -2.82865685       0.23828461       0.84482115
H       -2.32968353      -0.86985285      -0.42868932
H       -0.47938312       1.08483583       1.04522533
H       -1.12721685       1.34799482      -0.56486874
H        0.95562303      -1.33951400       0.60734746
H        0.12353270      -0.75340344      -1.34216070
H        1.67185143       1.64682533      -0.15391239
H        2.00500651       0.73354714      -1.69161793
15
Frame=9 idx=000246 GeodesicLength=0.7292024687523935 rxn_smarts="[C:1]([C:2]([C:3]([C:4]([C:5]#[N:6])([H:14])[H:15])([H:12])[H:13])([H:10])[H:11])([H:7])([H:8])[H:9]>>[C:1]([C:2]([C@@:3]1([H:13])[C:4]([H:14])([H:15])/[C:5]1=[N:6]/[H:12])([H:10])[H:11])([H:7])([H:8])[H:9]"
C       -1.98486741      -0.33473947       0.46014342
C       -0.80427807       0.56930737       0.13177854
C        0.37659668      -0.19417120      -0.43029781
C        1.63883223       0.69365029      -0.66390254
C        2.11631635      -0.42307495       0.10073621
N        2.41156726      -1.32783855       0.85023350
H       -1.71872065      -1.06885706       1.22372403
H       -2.83302843       0.24261848       0.83233067
H       -2.32363854      -0.87954201      -0.42418779
H       -0.48589590       1.09636374       1.03765116
H       -1.12646916       1.34000909      -0.57874284
H        0.94045836      -1.35124526       0.61770989
H        0.12889245      -0.75624659      -1.33154050
H        1.67750521       1.64266463      -0.13475267
H        1.98672960       0.75110149      -1.69088327
15
Frame=10 idx=000246 GeodesicLength=0.810394467950152 rxn_smarts="[C:1]([C:2]([C:3]([C:4]([C:5]#[N:6])([H:14])[H:15])([H:12])[H:13])([H:10])[H:11])([H:7])([H:8])[H:9]>>[C:1]([C:2]([C@@:3]1([H:13])[C:4]([H:14])([H:15])/[C:5]1=[N:6]/[H:12])([H:10])[H:11])([H:7])([H:8])[H:9]"
C       -1.98527529      -0.33286314       0.46011223
C       -0.80506831       0.57030358       0.12836151
C        0.38165782      -0.19634767      -0.41897431
C        1.63617603       0.69735604      -0.65833958
C        2.13622856      -0.42625887       0.08481036
N        2.42090579      -1.33745778       0.82966812
H       -1.72245038      -1.05657681       1.23465223
H       -2.83732903       0.24686775       0.81950487
H       -2.31737093      -0.88931346      -0.41947096
H       -0.49245294       1.10795613       1.02988801
H       -1.12540789       1.33165764      -0.59268117
H        0.92464399      -1.36347500       0.62832065
H        0.13446207      -0.75904755      -1.32050672
H        1.68330732       1.63830669      -0.11565796
H        1.96797321       0.76889245      -1.68968730
15
Frame=11 idx=000246 GeodesicLength=0.8916148529826744 rxn_smarts="[C:1]([C:2]([C:3]([C:4]([C:5]#[N:6])([H:14])[H:15])([H:12])[H:13])([H:10])[H:11])([H:7])([H:8])[H:9]>>[C:1]([C:2]([C@@:3]1([H:13])[C:4]([H:14])([H:15])/[C:5]1=[N:6]/[H:12])([H:10])[H:11])([H:7])([H:8])[H:9]"
C       -1.98562633      -0.33096980       0.46006224
C       -0.80570083       0.57118744       0.12497812
C        0.38697883      -0.19858680      -0.40713006
C        1.63359645       0.70107320      -0.65261956
C        2.15660920      -0.42898893       0.06811229
N        2.42963546      -1.34669514       0.80850165
H       -1.72638448      -1.04400550       1.24559005
H       -2.84154898       0.25103809       0.80633953
H       -2.31087300      -0.89916114      -0.41454278
H       -0.49903625       1.11959254       1.02194366
H       -1.12400670       1.32293188      -0.60666337
H        0.90811130      -1.37626812       0.63914284
H        0.14025184      -0.76180756      -1.30903666
H        1.68926686       1.63376373      -0.09665489
H        1.94872662       0.78689610      -1.68802304
15
Frame=12 idx=000246 GeodesicLength=0.9728571940751534 rxn_smarts="[C:1]([C:2]([C:3]([C:4]([C:5]#[N:6])([H:14])[H:15])([H:12])[H:13])([H:10])[H:11])([H:7])([H:8])[H:9]>>[C:1]([C:2]([C@@:3]1([H:13])[C:4]([H:14])([H:15])/[C:5]1=[N:6]/[H:12])([H:10])[H:11])([H:7])([H:8])[H:9]"
C       -1.98591547      -0.32905974       0.45999427
C       -0.80615769       0.57194862       0.12164260
C        0.39257592      -0.20088989      -0.39473609
C        1.63109883       0.70479612      -0.64674760
C        2.17746334      -0.43121486       0.05061387
N        2.43772001      -1.35546100       0.78673239
H       -1.73053995      -1.03113083       1.25653542
H       -2.84567856       0.25512251       0.79281006
H       -2.30413130      -0.90908352      -0.40939109
H       -0.50562840       1.13125611       1.01382160
H       -1.12223609       1.31381875      -0.62066301
H        0.89077460      -1.38970264       0.65012605
H        0.14627130      -0.76452746      -1.29710306
H        1.69539298       1.62904868      -0.07776998
H        1.92899047       0.80507916      -1.68586544
15
Frame=13 idx=000246 GeodesicLength=1.0541006479939916 rxn_smarts="[C:1]([C:2]([C:3]([C:4]([C:5]#[N:6])([H:14])[H:15])([H:12])[H:13])([H:10])[H:11])([H:7])([H:8])[H:9]>>[C:1]([C:2]([C@@:3]1([H:13])[C:4]([H:14])([H:15])/[C:5]1=[N:6]/[H:12])([H:10])[H:11])([H:7])([H:8])[H:9]"
C       -1.98613843      -0.32713271       0.45990583
C       -0.80642057       0.57257482       0.11836994
C        0.39846567      -0.20325816      -0.38176252
C        1.62868928       0.70851810      -0.64072775
C        2.19878903      -0.43288300       0.03230748
N        2.44513145      -1.36366964       0.76435511
H       -1.73493319      -1.01794441       1.26748876
H       -2.84970920       0.25912199       0.77889831
H       -2.29713072      -0.91908377      -0.40401103
H       -0.51221133       1.14292795       1.00553052
H       -1.12006743       1.30431070      -0.63465496
H        0.87254479      -1.40385595       0.66121449
H        0.15253353      -0.76720718      -1.28467826
H        1.70169477       1.62417715      -0.05903870
H        1.90876234       0.82340410      -1.68319721
15
Frame=14 idx=000246 GeodesicLength=1.1353001939773963 rxn_smarts="[C:1]([C:2]([C:3]([C:4]([C:5]#[N:6])([H:14])[H:15])([H:12])[H:13])([H:10])[H:11])([H:7])([H:8])[H:9]>>[C:1]([C:2]([C@@:3]1([H:13])[C:4]([H:14])([H:15])/[C:5]1=[N:6]/[H:12])([H:10])[H:11])([H:7])([H:8])[H:9]"
C       -1.98629416      -0.32518951       0.45979483
C       -0.80647377       0.57305503       0.11517986
C        0.40466037      -0.20569330      -0.36818073
C        1.62637174       0.71223176      -0.63456789
C        2.22057331      -0.43393688       0.01319312
N        2.45186278      -1.37123878       0.74136637
H       -1.73958008      -1.00445244       1.27843383
H       -2.85363146       0.26303957       0.76459605
H       -2.28986992      -0.92914939      -0.39840934
H       -0.51876607       1.15458248       0.99708470
H       -1.11747480       1.29439991      -0.64860516
H        0.85333929      -1.41878457       0.67236032
H        0.15904655      -0.76985227      -1.27173167
H        1.70817560       1.61917470      -0.04049899
H        1.88806063       0.84181369      -1.68001531
15
Frame=15 idx=000246 GeodesicLength=1.2164427361130834 rxn_smarts="[C:1]([C:2]([C:3]([C:4]([C:5]#[N:6])([H:14])[H:15])([H:12])[H:13])([H:10])[H:11])([H:7])([H:8])[H:9]>>[C:1]([C:2]([C@@:3]1([H:13])[C:4]([H:14])([H:15])/[C:5]1=[N:6]/[H:12])([H:10])[H:11])([H:7])([H:8])[H:9]"
C       -1.98637871      -0.32322729       0.45966412
C       -0.80629931       0.57338004       0.11208954
C        0.41117247      -0.20819272      -0.35396245
C        1.62415174       0.71592830      -0.62827044
C        2.24279820      -0.43432507      -0.00673071
N        2.45790065      -1.37807088       0.71776273
H       -1.74450050      -0.99062843       1.28938108
H       -2.85743702       0.26686801       0.74986691
H       -2.28232468      -0.93929502      -0.39255566
H       -0.52527402       1.16620598       0.98848935
H       -1.11442951       1.28407550      -0.66248807
H        0.83305821      -1.43457929       0.68347002
H        0.16581889      -0.77245659      -1.25823935
H        1.71484699       1.61405564      -0.02218537
H        1.86689660       0.86026180      -1.67629170
15
Frame=16 idx=000246 GeodesicLength=1.2975026983654916 rxn_smarts="[C:1]([C:2]([C:3]([C:4]([C:5]#[N:6])([H:14])[H:15])([H:12])[H:13])([H:10])[H:11])([H:7])([H:8])[H:9]>>[C:1]([C:2]([C@@:3]1([H:13])[C:4]([H:14])([H:15])/[C:5]1=[N:6]/[H:12])([H:10])[H:11])([H:7])([H:8])[H:9]"
C       -1.98639153      -0.32124580       0.45951307
C       -0.80588172       0.57353906       0.10911984
C        0.41801228      -0.21075564      -0.33907799
C        1.62203289       0.71959749      -0.62184066
C        2.26543605      -0.43398946      -0.02744258
N        2.46326227      -1.38408884       0.69353217
H       -1.74971365      -0.97646500       1.30032576
H       -2.86111915       0.27060873       0.73469221
H       -2.27448709      -0.94951892      -0.38644632
H       -0.53171688       1.17777677       0.97975808
H       -1.11090675       1.27333259      -0.67626906
H        0.81160942      -1.45129836       0.69446754
H        0.17285916      -0.77502246      -1.24417095
H        1.72171220       1.60884810      -0.00414159
H        1.84529251       0.87868173      -1.67201952
