10
Frame=0 idx=000832 GeodesicLength=0.0 rxn_smarts="[O:1]=[C:2]1[C:3]([H:7])([H:8])[N:4]=[C:5]([H:9])[N:6]1[H:10]>>[O:1]=[C:2]1[C:3]([H:7])([H:8])[N+:4]([H:9])=[C-:5][N:6]1[H:10]"
O       -1.39193595       1.72345097       0.07108092
C       -0.59093296       0.83080972       0.06409121
C       -0.80402270      -0.66926595       0.12628466
N        0.54618153      -1.24136497       0.17402646
C        1.44314195      -0.24631416       0.07701032
N        0.79306304       0.95687211      -0.00113443
H       -1.36647272      -0.95258836       1.01665095
H       -1.35391278      -1.03040189      -0.74362777
H        1.46843821      -1.21800649      -0.72190996
H        1.25645239       1.84680902      -0.06247236
10
Frame=1 idx=000832 GeodesicLength=0.038639857780603096 rxn_smarts="[O:1]=[C:2]1[C:3]([H:7])([H:8])[N:4]=[C:5]([H:9])[N:6]1[H:10]>>[O:1]=[C:2]1[C:3]([H:7])([H:8])[N+:4]([H:9])=[C-:5][N:6]1[H:10]"
O       -1.39551390       1.72544846       0.07666124
C       -0.59384645       0.83334149       0.06502191
C       -0.80640961      -0.66719022       0.12489378
N        0.54334303      -1.23678671       0.15937732
C        1.43881083      -0.24403280       0.06623024
N        0.78954205       0.96007016      -0.00362541
H       -1.36268152      -0.95193799       1.01875925
H       -1.36352181      -1.02488146      -0.74192162
H        1.49703528      -1.24428359      -0.70747881
H        1.25324210       1.85025266      -0.05791790
10
Frame=2 idx=000832 GeodesicLength=0.07723752753572158 rxn_smarts="[O:1]=[C:2]1[C:3]([H:7])([H:8])[N:4]=[C:5]([H:9])[N:6]1[H:10]>>[O:1]=[C:2]1[C:3]([H:7])([H:8])[N+:4]([H:9])=[C-:5][N:6]1[H:10]"
O       -1.39914370       1.72759113       0.08404090
C       -0.59686603       0.83601401       0.06678729
C       -0.80893577      -0.66501763       0.12299809
N        0.54026791      -1.23210230       0.14321348
C        1.43428426      -0.24164620       0.05430530
N        0.78588935       0.96343361      -0.00552355
H       -1.35872489      -0.95202383       1.02022279
H       -1.37347404      -1.01847185      -0.74082797
H        1.52687332      -1.27145334      -0.68948251
H        1.24982960       1.85367639      -0.05573381
10
Frame=3 idx=000832 GeodesicLength=0.11561396543665903 rxn_smarts="[O:1]=[C:2]1[C:3]([H:7])([H:8])[N:4]=[C:5]([H:9])[N:6]1[H:10]>>[O:1]=[C:2]1[C:3]([H:7])([H:8])[N+:4]([H:9])=[C-:5][N:6]1[H:10]"
O       -1.40285764       1.72977628       0.09208096
C       -0.59994918       0.83879012       0.06900766
C       -0.81149583      -0.66276526       0.12077475
N        0.53707893      -1.22724223       0.12544823
C        1.42962754      -0.23912320       0.04018425
N        0.78215695       0.96698749      -0.00691448
H       -1.35423036      -0.95258303       1.02145622
H       -1.38389220      -1.01152611      -0.73986850
H        1.55727813      -1.29955785      -0.66809648
H        1.24628367       1.85724378      -0.05407261
10
Frame=4 idx=000832 GeodesicLength=0.1538497152028675 rxn_smarts="[O:1]=[C:2]1[C:3]([H:7])([H:8])[N:4]=[C:5]([H:9])[N:6]1[H:10]>>[O:1]=[C:2]1[C:3]([H:7])([H:8])[N+:4]([H:9])=[C-:5][N:6]1[H:10]"
O       -1.40661285       1.73204546       0.10149771
C       -0.60312358       0.84167591       0.07170334
C       -0.81415687      -0.66042180       0.11803694
N        0.53363963      -1.22223074       0.10536736
C        1.42471202      -0.23645054       0.02367614
N        0.77830280       0.97070267      -0.00807330
H       -1.34902405      -0.95375287       1.02234882
H       -1.39508220      -1.00383938      -0.73912252
H        1.58876793      -1.32864910      -0.64208061
H        1.24257717       1.86092039      -0.05335388
10
Frame=5 idx=000832 GeodesicLength=0.19180824872067215 rxn_smarts="[O:1]=[C:2]1[C:3]([H:7])([H:8])[N:4]=[C:5]([H:9])[N:6]1[H:10]>>[O:1]=[C:2]1[C:3]([H:7])([H:8])[N+:4]([H:9])=[C-:5][N:6]1[H:10]"
O       -1.41040980       1.73433694       0.11176331
C       -0.60635905       0.84464272       0.07466911
C       -0.81685128      -0.65800570       0.11481564
N        0.52997759      -1.21701597       0.08253869
C        1.41950628      -0.23358068       0.00366132
N        0.77436515       0.97458335      -0.00904285
H       -1.34270893      -0.95546517       1.02311903
H       -1.40726142      -0.99555133      -0.73828018
H        1.62097698      -1.35871172      -0.61076493
H        1.23876450       1.86476757      -0.05247916
10
Frame=6 idx=000832 GeodesicLength=0.22948659213489273 rxn_smarts="[O:1]=[C:2]1[C:3]([H:7])([H:8])[N:4]=[C:5]([H:9])[N:6]1[H:10]>>[O:1]=[C:2]1[C:3]([H:7])([H:8])[N+:4]([H:9])=[C-:5][N:6]1[H:10]"
O       -1.41411135       1.73664906       0.12508683
C       -0.60956795       0.84770915       0.07909831
C       -0.81959007      -0.65551147       0.11058860
N        0.52603899      -1.21149771       0.05674674
C        1.41392021      -0.23040755      -0.02071086
N        0.77047951       0.97865807      -0.00788044
H       -1.33574053      -0.95868075       1.02262500
H       -1.42001804      -0.98574834      -0.73846442
H        1.65402166      -1.38990114      -0.57155213
H        1.23456758       1.86873067      -0.05553763
10
Frame=7 idx=000832 GeodesicLength=0.26682926018351927 rxn_smarts="[O:1]=[C:2]1[C:3]([H:7])([H:8])[N:4]=[C:5]([H:9])[N:6]1[H:10]>>[O:1]=[C:2]1[C:3]([H:7])([H:8])[N+:4]([H:9])=[C-:5][N:6]1[H:10]"
O       -1.41784151       1.73890608       0.13938134
C       -0.61290128       0.85084900       0.08234253
C       -0.82229400      -0.65291889       0.10565143
N        0.52173255      -1.20549863       0.02592693
C        1.40749993      -0.22668562      -0.05441789
N        0.76630253       0.98288165      -0.01038801
H       -1.32586984      -0.96197990       1.02278402
H       -1.43514119      -0.97589494      -0.73740653
H        1.68794201      -1.42275011      -0.52159789
H        1.23057080       1.87309137      -0.05227594
10
Frame=8 idx=000832 GeodesicLength=0.3032253746767691 rxn_smarts="[O:1]=[C:2]1[C:3]([H:7])([H:8])[N:4]=[C:5]([H:9])[N:6]1[H:10]>>[O:1]=[C:2]1[C:3]([H:7])([H:8])[N+:4]([H:9])=[C-:5][N:6]1[H:10]"
O       -1.42076383       1.74099751       0.16080605
C       -0.61590753       0.85388854       0.08826200
C       -0.82513283      -0.65036783       0.09851087
N        0.51657895      -1.19927123      -0.01211882
C        1.39985568      -0.22258266      -0.09777785
N        0.76227973       0.98687853      -0.01271307
H       -1.31404358      -0.96837176       1.02056530
H       -1.45222725      -0.96313787      -0.73799880
H        1.72306164      -1.45527354      -0.45308081
H        1.22629903       1.87724032      -0.05445488
10
Frame=9 idx=000832 GeodesicLength=0.33716667161548985 rxn_smarts="[O:1]=[C:2]1[C:3]([H:7])([H:8])[N:4]=[C:5]([H:9])[N:6]1[H:10]>>[O:1]=[C:2]1[C:3]([H:7])([H:8])[N+:4]([H:9])=[C-:5][N:6]1[H:10]"
O       -1.42270471       1.74241269       0.18190867
C       -0.61836165       0.85628939       0.09241430
C       -0.82748762      -0.64841036       0.09051021
N        0.51080867      -1.19321584      -0.05881037
C        1.39043957      -0.21831589      -0.15626302
N        0.75833669       0.99005216      -0.02312725
H       -1.29669336      -0.97525800       1.01971930
H       -1.47322401      -0.95121342      -0.73557283
H        1.75461908      -1.48239907      -0.36667967
H        1.22426734       1.88005833      -0.04409934
10
Frame=10 idx=000832 GeodesicLength=0.3684469089623298 rxn_smarts="[O:1]=[C:2]1[C:3]([H:7])([H:8])[N:4]=[C:5]([H:9])[N:6]1[H:10]>>[O:1]=[C:2]1[C:3]([H:7])([H:8])[N+:4]([H:9])=[C-:5][N:6]1[H:10]"
O       -1.42246059       1.74259163       0.20374822
C       -0.61919323       0.85730954       0.09667081
C       -0.82883167      -0.64771018       0.08162316
N        0.50486573      -1.18818324      -0.10988057
C        1.38018212      -0.21487617      -0.22101753
N        0.75602141       0.99121108      -0.03303372
H       -1.27663034      -0.98424810       1.01803485
H       -1.49458973      -0.93969375      -0.73245526
H        1.77619764      -1.49659086      -0.26977093
H        1.22443867       1.88019006      -0.03391903
10
Frame=11 idx=000832 GeodesicLength=0.3998450732221366 rxn_smarts="[O:1]=[C:2]1[C:3]([H:7])([H:8])[N:4]=[C:5]([H:9])[N:6]1[H:10]>>[O:1]=[C:2]1[C:3]([H:7])([H:8])[N+:4]([H:9])=[C-:5][N:6]1[H:10]"
O       -1.41988334       1.74128385       0.22445982
C       -0.61822881       0.85669631       0.10134237
C       -0.82893353      -0.64835359       0.07286854
N        0.49964861      -1.18444629      -0.15764469
C        1.37025380      -0.21254524      -0.28023619
N        0.75578632       0.98998342      -0.03817372
H       -1.25722378      -0.99434188       1.01488097
H       -1.51288972      -0.92951186      -0.72999604
H        1.78510883      -1.49634612      -0.17773920
H        1.22636161       1.87758140      -0.02976187
10
Frame=12 idx=000832 GeodesicLength=0.43312784486587286 rxn_smarts="[O:1]=[C:2]1[C:3]([H:7])([H:8])[N:4]=[C:5]([H:9])[N:6]1[H:10]>>[O:1]=[C:2]1[C:3]([H:7])([H:8])[N+:4]([H:9])=[C-:5][N:6]1[H:10]"
O       -1.41695143       1.73936850       0.23956614
C       -0.61642678       0.85540994       0.10502268
C       -0.82806979      -0.64972487       0.06589323
N        0.49590183      -1.18142036      -0.19658742
C        1.36256734      -0.21108856      -0.32571868
N        0.75690611       0.98777429      -0.04019179
H       -1.24062711      -1.00325235       1.01215983
H       -1.52675338      -0.92200011      -0.72739376
H        1.78475088      -1.48968802      -0.10497674
H        1.22870233       1.87462153      -0.02777350
10
Frame=13 idx=000832 GeodesicLength=0.4669142588468201 rxn_smarts="[O:1]=[C:2]1[C:3]([H:7])([H:8])[N:4]=[C:5]([H:9])[N:6]1[H:10]>>[O:1]=[C:2]1[C:3]([H:7])([H:8])[N+:4]([H:9])=[C-:5][N:6]1[H:10]"
O       -1.41432028       1.73751003       0.24883188
C       -0.61457532       0.85394303       0.10719066
C       -0.82676489      -0.65139566       0.06080766
N        0.49331830      -1.17893336      -0.22679760
C        1.35558784      -0.20997397      -0.36376116
N        0.75837928       0.98516992      -0.04103885
H       -1.22668743      -1.00987750       1.01065795
H       -1.53730235      -0.91716485      -0.72423200
H        1.78062721      -1.48030830      -0.04854922
H        1.23173765       1.87103066      -0.02310933
10
Frame=14 idx=000832 GeodesicLength=0.5010439051191927 rxn_smarts="[O:1]=[C:2]1[C:3]([H:7])([H:8])[N:4]=[C:5]([H:9])[N:6]1[H:10]>>[O:1]=[C:2]1[C:3]([H:7])([H:8])[N+:4]([H:9])=[C-:5][N:6]1[H:10]"
O       -1.41183790       1.73548768       0.25657582
C       -0.61256798       0.85240563       0.10925088
C       -0.82513135      -0.65314431       0.05635898
N        0.49130783      -1.17635248      -0.25360095
C        1.34994374      -0.20897962      -0.39461102
N        0.76010396       0.98259861      -0.04101234
H       -1.21394538      -1.01606048       1.00917343
H       -1.54596666      -0.91312800      -0.72130858
H        1.77369735      -1.47068307      -0.00041186
H        1.23439640       1.86785603      -0.02041435
10
Frame=15 idx=000832 GeodesicLength=0.5352449504394191 rxn_smarts="[O:1]=[C:2]1[C:3]([H:7])([H:8])[N:4]=[C:5]([H:9])[N:6]1[H:10]>>[O:1]=[C:2]1[C:3]([H:7])([H:8])[N+:4]([H:9])=[C-:5][N:6]1[H:10]"
O       -1.40959550       1.73358959       0.26192840
C       -0.61065859       0.85087553       0.11055895
C       -0.82338274      -0.65496558       0.05274840
N        0.48977437      -1.17399770      -0.27641591
C        1.34439820      -0.20806602      -0.42282074
N        0.76179393       0.97996754      -0.04122567
H       -1.20244097      -1.02109991       1.00829953
H       -1.55325203      -0.91026645      -0.71813152
H        1.76589913      -1.46034157       0.04082406
H        1.23746420       1.86430456      -0.01576549
10
Frame=16 idx=000832 GeodesicLength=0.5695863365788314 rxn_smarts="[O:1]=[C:2]1[C:3]([H:7])([H:8])[N:4]=[C:5]([H:9])[N:6]1[H:10]>>[O:1]=[C:2]1[C:3]([H:7])([H:8])[N+:4]([H:9])=[C-:5][N:6]1[H:10]"
O       -1.40744726       1.73163168       0.26668322
C       -0.60871111       0.84933847       0.11175407
C       -0.82146129      -0.65681137       0.04943078
N        0.48854015      -1.17155660      -0.29753464
C        1.33947712      -0.20714198      -0.44773971
N        0.76356279       0.97739857      -0.04111790
H       -1.19149308      -1.02587438       1.00743363
H       -1.55960279      -0.90782112      -0.71507132
H        1.75681129      -1.45014846       0.07814698
H        1.24032418       1.86098518      -0.01198511
