14
Frame=0 idx=006633 GeodesicLength=0.0 rxn_smarts="[O:1]=[C:2]([C@@:3]1([H:9])[C@@:4]2([H:10])[C:5]([H:11])([H:12])[C:6]([H:13])([H:14])[N:7]12)[H:8]>>[C:3]1([H:9])=[C:4]([H:10])[N:7]1[C:6]([C:5]([H:8])([H:11])[H:12])([H:13])[H:14].[O+:1]#[C-:2]"
O        2.01708769       1.87411638       0.84450736
C        1.14999260       1.14963487       0.55286732
C        0.21019729       1.22890947      -0.73611959
C        0.11941549       0.01195506      -1.37619617
C        0.11377951      -1.24270187       0.53255092
C       -1.17079392      -0.42605460       0.50742438
N       -1.05010661       0.43465200      -0.68036609
H        0.94004539      -0.23333935       0.69074920
H        0.19331314       2.22069155      -1.16495822
H        0.32252975      -0.44335363      -2.33102211
H        0.38576244      -1.63044298       1.52014707
H        0.13467113      -2.07297280      -0.16493913
H       -1.30312639       0.17617107       1.40835829
H       -2.06276753      -1.04726517       0.39699672
14
Frame=1 idx=006633 GeodesicLength=0.1273554056127439 rxn_smarts="[O:1]=[C:2]([C@@:3]1([H:9])[C@@:4]2([H:10])[C:5]([H:11])([H:12])[C:6]([H:13])([H:14])[N:7]12)[H:8]>>[C:3]1([H:9])=[C:4]([H:10])[N:7]1[C:6]([C:5]([H:8])([H:11])[H:12])([H:13])[H:14].[O+:1]#[C-:2]"
O        2.01637188       1.89014114       0.89017394
C        1.13686184       1.19134805       0.57901600
C        0.21215941       1.22295275      -0.74778377
C        0.10462429       0.00165180      -1.37619401
C        0.11737094      -1.24200249       0.51954914
C       -1.17055592      -0.42858912       0.51033171
N       -1.05491234       0.44491605      -0.66954604
H        0.97103600      -0.22670856       0.69213637
H        0.23006039       2.20049745      -1.20874250
H        0.28930023      -0.45232736      -2.33551615
H        0.38694493      -1.63855455       1.50419035
H        0.12564548      -2.07846187      -0.17162053
H       -1.30239283       0.16412140       1.41737304
H       -2.06251431      -1.04898470       0.39663243
14
Frame=2 idx=006633 GeodesicLength=0.2546560293984832 rxn_smarts="[O:1]=[C:2]([C@@:3]1([H:9])[C@@:4]2([H:10])[C:5]([H:11])([H:12])[C:6]([H:13])([H:14])[N:7]12)[H:8]>>[C:3]1([H:9])=[C:4]([H:10])[N:7]1[C:6]([C:5]([H:8])([H:11])[H:12])([H:13])[H:14].[O+:1]#[C-:2]"
O        2.01182619       1.90670309       0.94018405
C        1.12393993       1.23299202       0.60337105
C        0.21502992       1.21587987      -0.76009041
C        0.08878398      -0.00908188      -1.37721591
C        0.12113422      -1.24099436       0.50624044
C       -1.16994928      -0.43072686       0.51316575
N       -1.05918942       0.45561429      -0.65863586
H        1.00317476      -0.21947511       0.69210612
H        0.26884783       2.17770808      -1.25091684
H        0.25352150      -0.46191444      -2.34082721
H        0.38916568      -1.64546398       1.48795691
H        0.11645564      -2.08380440      -0.17808152
H       -1.30061792       0.15255537       1.42622269
H       -2.06212302      -1.04999168       0.39652074
14
Frame=3 idx=006633 GeodesicLength=0.3819209583080694 rxn_smarts="[O:1]=[C:2]([C@@:3]1([H:9])[C@@:4]2([H:10])[C:5]([H:11])([H:12])[C:6]([H:13])([H:14])[N:7]12)[H:8]>>[C:3]1([H:9])=[C:4]([H:10])[N:7]1[C:6]([C:5]([H:8])([H:11])[H:12])([H:13])[H:14].[O+:1]#[C-:2]"
O        2.00368126       1.92344289       0.99399726
C        1.11120450       1.27476190       0.62597886
C        0.21865648       1.20773851      -0.77293944
C        0.07193554      -0.02016018      -1.37914963
C        0.12502822      -1.23971342       0.49262909
C       -1.16900819      -0.43250442       0.51592033
N       -1.06291974       0.46667961      -0.64766381
H        1.03641314      -0.21157413       0.69076643
H        0.30954298       2.15235426      -1.29142293
H        0.21541822      -0.47191615      -2.34677850
H        0.39236068      -1.65123141       1.47147558
H        0.10717392      -2.08898336      -0.18434582
H       -1.29786583       0.14144369       1.43489561
H       -2.06162119      -1.05033780       0.39663695
14
Frame=4 idx=006633 GeodesicLength=0.5091239457741483 rxn_smarts="[O:1]=[C:2]([C@@:3]1([H:9])[C@@:4]2([H:10])[C:5]([H:11])([H:12])[C:6]([H:13])([H:14])[N:7]12)[H:8]>>[C:3]1([H:9])=[C:4]([H:10])[N:7]1[C:6]([C:5]([H:8])([H:11])[H:12])([H:13])[H:14].[O+:1]#[C-:2]"
O        1.99207463       1.93991480       1.05115225
C        1.09862843       1.31687142       0.64685105
C        0.22287767       1.19858020      -0.78625139
C        0.05413151      -0.03149490      -1.38188633
C        0.12901881      -1.23818168       0.47871320
C       -1.16775235      -0.43394394       0.51860284
N       -1.06609165       0.47803135      -0.63666412
H        1.07071200      -0.20293081       0.68819627
H        0.35201115       2.12442973      -1.33021534
H        0.17524329      -0.48213457      -2.35320136
H        0.39648234      -1.65589831       1.45475885
H        0.09785820      -2.09396956      -0.19044194
H       -1.29416974       0.13078082       1.44338574
H       -2.06102431      -1.05005453       0.39700029
14
Frame=5 idx=006633 GeodesicLength=0.636377590992957 rxn_smarts="[O:1]=[C:2]([C@@:3]1([H:9])[C@@:4]2([H:10])[C:5]([H:11])([H:12])[C:6]([H:13])([H:14])[N:7]12)[H:8]>>[C:3]1([H:9])=[C:4]([H:10])[N:7]1[C:6]([C:5]([H:8])([H:11])[H:12])([H:13])[H:14].[O+:1]#[C-:2]"
O        1.97664053       1.95590516       1.11166689
C        1.08638029       1.35947010       0.66587497
C        0.22758874       1.18845374      -0.80002021
C        0.03538873      -0.04304822      -1.38536281
C        0.13308731      -1.23647245       0.46444834
C       -1.16614161      -0.43500151       0.52125254
N       -1.06868478       0.48963498      -0.62567696
H        1.10615270      -0.19356353       0.68438638
H        0.39620976       2.09388191      -1.36736255
H        0.13310187      -0.49247565      -2.35998859
H        0.40154757      -1.65958034       1.43776232
H        0.08846119      -2.09881893      -0.19643496
H       -1.28938655       0.12067495       1.45172524
H       -2.06034574      -1.04906020       0.39772939
14
Frame=6 idx=006633 GeodesicLength=0.7635603520814613 rxn_smarts="[O:1]=[C:2]([C@@:3]1([H:9])[C@@:4]2([H:10])[C:5]([H:11])([H:12])[C:6]([H:13])([H:14])[N:7]12)[H:8]>>[C:3]1([H:9])=[C:4]([H:10])[N:7]1[C:6]([C:5]([H:8])([H:11])[H:12])([H:13])[H:14].[O+:1]#[C-:2]"
O        1.95736477       1.97078752       1.17510315
C        1.07441263       1.40281953       0.68302585
C        0.23261773       1.17742745      -0.81419056
C        0.01578336      -0.05471672      -1.38946237
C        0.13720245      -1.23458172       0.44982788
C       -1.16417066      -0.43568195       0.52389859
N       -1.07069389       0.50139567      -0.61473855
H        1.14270285      -0.18337609       0.67936269
H        0.44200101       2.06063559      -1.40280619
H        0.08932083      -0.50273073      -2.36696951
H        0.40752058      -1.66228536       1.42047457
H        0.07901581      -2.10347148      -0.20234870
H       -1.28350507       0.11114542       1.45991450
H       -2.05957240      -1.04736713       0.39890866
14
Frame=7 idx=006633 GeodesicLength=0.890618394210748 rxn_smarts="[O:1]=[C:2]([C@@:3]1([H:9])[C@@:4]2([H:10])[C:5]([H:11])([H:12])[C:6]([H:13])([H:14])[N:7]12)[H:8]>>[C:3]1([H:9])=[C:4]([H:10])[N:7]1[C:6]([C:5]([H:8])([H:11])[H:12])([H:13])[H:14].[O+:1]#[C-:2]"
O        1.93378938       1.98411070       1.24138788
C        1.06282327       1.44714369       0.69816042
C        0.23785386       1.16557502      -0.82876330
C       -0.00464280      -0.06643279      -1.39408259
C        0.14133577      -1.23254771       0.43480959
C       -1.16176598      -0.43594191       0.52659167
N       -1.07208377       0.51326686      -0.60387660
H        1.18041118      -0.17233968       0.67305759
H        0.48934332       2.02457576      -1.43657024
H        0.04408623      -0.51277045      -2.37398717
H        0.41440222      -1.66408818       1.40282167
H        0.06945158      -2.10793551      -0.20821634
H       -1.27634478       0.10228971       1.46796409
H       -2.05865948      -1.04490551       0.40070334
14
Frame=8 idx=006633 GeodesicLength=1.0175644866653577 rxn_smarts="[O:1]=[C:2]([C@@:3]1([H:9])[C@@:4]2([H:10])[C:5]([H:11])([H:12])[C:6]([H:13])([H:14])[N:7]12)[H:8]>>[C:3]1([H:9])=[C:4]([H:10])[N:7]1[C:6]([C:5]([H:8])([H:11])[H:12])([H:13])[H:14].[O+:1]#[C-:2]"
O        1.90515356       1.99544112       1.31038861
C        1.05178024       1.49263351       0.71118308
C        0.24322418       1.15296587      -0.84375520
C       -0.02584369      -0.07812116      -1.39916587
C        0.14547724      -1.23042211       0.41935383
C       -1.15883409      -0.43570485       0.52941281
N       -1.07281700       0.52524468      -0.59312203
H        1.21939071      -0.16047872       0.66540854
H        0.53825167       1.98552343      -1.46864938
H       -0.00243990      -0.52245540      -2.38097577
H        0.42222711      -1.66509578       1.38474751
H        0.05967524      -2.11222307      -0.21409302
H       -1.26767853       0.09423212       1.47595111
H       -2.05756675      -1.04153964       0.40331579
14
Frame=9 idx=006633 GeodesicLength=1.1447160764965383 rxn_smarts="[O:1]=[C:2]([C@@:3]1([H:9])[C@@:4]2([H:10])[C:5]([H:11])([H:12])[C:6]([H:13])([H:14])[N:7]12)[H:8]>>[C:3]1([H:9])=[C:4]([H:10])[N:7]1[C:6]([C:5]([H:8])([H:11])[H:12])([H:13])[H:14].[O+:1]#[C-:2]"
O        1.86934634       2.00450739       1.38255020
C        1.04194864       1.53936202       0.72184100
C        0.24881924       1.13958272      -0.85926884
C       -0.04783114      -0.08981725      -1.40473265
C        0.14969961      -1.22829336       0.40330361
C       -1.15517485      -0.43472751       0.53252395
N       -1.07281623       0.53742817      -0.58243067
H        1.26006591      -0.14795023       0.65618455
H        0.58896607       1.94312591      -1.49907290
H       -0.05044062      -0.53181554      -2.38798069
H        0.43120283      -1.66546858       1.36603025
H        0.04948230      -2.11641988      -0.22015834
H       -1.25699105       0.08734651       1.48406877
H       -2.05627705      -1.03686036       0.40714177
14
Frame=10 idx=006633 GeodesicLength=1.2718605345603127 rxn_smarts="[O:1]=[C:2]([C@@:3]1([H:9])[C@@:4]2([H:10])[C:5]([H:11])([H:12])[C:6]([H:13])([H:14])[N:7]12)[H:8]>>[C:3]1([H:9])=[C:4]([H:10])[N:7]1[C:6]([C:5]([H:8])([H:11])[H:12])([H:13])[H:14].[O+:1]#[C-:2]"
O        1.82620712       2.01050261       1.45659871
C        1.03319008       1.58768664       0.73028064
C        0.25451418       1.12559999      -0.87516178
C       -0.07046970      -0.10131463      -1.41057300
C        0.15391625      -1.22618352       0.38669863
C       -1.15073235      -0.43304594       0.53595910
N       -1.07202319       0.54977701      -0.57181552
H        1.30232792      -0.13465544       0.64546851
H        0.64136316       1.89727104      -1.52755079
H       -0.09940839      -0.54051724      -2.39475260
H        0.44119447      -1.66530404       1.34666925
H        0.03882574      -2.12046176      -0.22636505
H       -1.24422038       0.08156806       1.49228847
H       -2.05468492      -1.03092277       0.41225541
14
Frame=11 idx=006633 GeodesicLength=1.3987979148426768 rxn_smarts="[O:1]=[C:2]([C@@:3]1([H:9])[C@@:4]2([H:10])[C:5]([H:11])([H:12])[C:6]([H:13])([H:14])[N:7]12)[H:8]>>[C:3]1([H:9])=[C:4]([H:10])[N:7]1[C:6]([C:5]([H:8])([H:11])[H:12])([H:13])[H:14].[O+:1]#[C-:2]"
O        1.77516215       2.01300403       1.53087429
C        1.02551036       1.63781832       0.73671193
C        0.26032348       1.11117617      -0.89122283
C       -0.09360341      -0.11240398      -1.41643870
C        0.15801149      -1.22416734       0.36954914
C       -1.14540917      -0.43070201       0.53976281
N       -1.07029921       0.56229649      -0.56121663
H        1.34611749      -0.12059012       0.63338200
H        0.69548484       1.84783893      -1.55359434
H       -0.14896719      -0.54819287      -2.40102451
H        0.45201813      -1.66480169       1.32658537
H        0.02754001      -2.12431818      -0.23269622
H       -1.22921863       0.07678389       1.50058947
H       -2.05267035      -1.02374164       0.41873822
14
Frame=12 idx=006633 GeodesicLength=1.5260255647978032 rxn_smarts="[O:1]=[C:2]([C@@:3]1([H:9])[C@@:4]2([H:10])[C:5]([H:11])([H:12])[C:6]([H:13])([H:14])[N:7]12)[H:8]>>[C:3]1([H:9])=[C:4]([H:10])[N:7]1[C:6]([C:5]([H:8])([H:11])[H:12])([H:13])[H:14].[O+:1]#[C-:2]"
O        1.71620612       2.01221394       1.60337295
C        1.01886705       1.68999482       0.74174525
C        0.26624395       1.09648894      -0.90714527
C       -0.11710563      -0.12296870      -1.42217774
C        0.16190878      -1.22247785       0.35185884
C       -1.13921116      -0.42772082       0.54390938
N       -1.06763456       0.57509050      -0.55061639
H        1.39147728      -0.10587583       0.62034008
H        0.75124596       1.79479548      -1.57644902
H       -0.19885540      -0.55463325      -2.40675768
H        0.46357936      -1.66434592       1.30576079
H        0.01551982      -2.12822456      -0.23926820
H       -1.21198564       0.07296589       1.50899217
H       -2.05025595      -1.01530264       0.42643483
14
Frame=13 idx=006633 GeodesicLength=1.6533561997728794 rxn_smarts="[O:1]=[C:2]([C@@:3]1([H:9])[C@@:4]2([H:10])[C:5]([H:11])([H:12])[C:6]([H:13])([H:14])[N:7]12)[H:8]>>[C:3]1([H:9])=[C:4]([H:10])[N:7]1[C:6]([C:5]([H:8])([H:11])[H:12])([H:13])[H:14].[O+:1]#[C-:2]"
O        1.64821846       2.00815948       1.67200622
C        1.01345356       1.74377071       0.74582959
C        0.27249555       1.08130645      -0.92258769
C       -0.14066241      -0.13292110      -1.42759373
C        0.16563549      -1.22105333       0.33343527
C       -1.13210851      -0.42397128       0.54852417
N       -1.06391157       0.58811236      -0.53969589
H        1.43860015      -0.09072382       0.60654846
H        0.80846764       1.73772280      -1.59523931
H       -0.24882848      -0.55952784      -2.41180449
H        0.47585311      -1.66393232       1.28381584
H        0.00277596      -2.13185635      -0.24640852
H       -1.19251263       0.07010708       1.51765969
H       -2.04747632      -1.00519285       0.43551039
14
Frame=14 idx=006633 GeodesicLength=1.7810752846254736 rxn_smarts="[O:1]=[C:2]([C@@:3]1([H:9])[C@@:4]2([H:10])[C:5]([H:11])([H:12])[C:6]([H:13])([H:14])[N:7]12)[H:8]>>[C:3]1([H:9])=[C:4]([H:10])[N:7]1[C:6]([C:5]([H:8])([H:11])[H:12])([H:13])[H:14].[O+:1]#[C-:2]"
O        1.57637968       2.00218043       1.73286588
C        1.00760628       1.79962678       0.75044586
C        0.27874560       1.06611148      -0.93693138
C       -0.16402497      -0.14197953      -1.43243071
C        0.16877778      -1.22018814       0.31460333
C       -1.12467501      -0.42015861       0.55324214
N       -1.05941291       0.60115938      -0.52863163
H        1.48685169      -0.07491771       0.59305269
H        0.86669154       1.67730179      -1.60858379
H       -0.29789012      -0.56242532      -2.41609397
H        0.48817900      -1.66391536       1.26122247
H       -0.01061416      -2.13556243      -0.25397503
H       -1.17198338       0.06725844       1.52627333
H       -2.04463104      -0.99449119       0.44494083
14
Frame=15 idx=006633 GeodesicLength=1.9091681287169238 rxn_smarts="[O:1]=[C:2]([C@@:3]1([H:9])[C@@:4]2([H:10])[C:5]([H:11])([H:12])[C:6]([H:13])([H:14])[N:7]12)[H:8]>>[C:3]1([H:9])=[C:4]([H:10])[N:7]1[C:6]([C:5]([H:8])([H:11])[H:12])([H:13])[H:14].[O+:1]#[C-:2]"
O        1.50383944       1.99537119       1.78433319
C        1.00032153       1.85758243       0.75626682
C        0.28489007       1.05096741      -0.94992066
C       -0.18699048      -0.15010878      -1.43663076
C        0.17112227      -1.21998042       0.29543777
C       -1.11728430      -0.41663270       0.55788238
N       -1.05433528       0.61400782      -0.51746951
H        1.53604857      -0.05837174       0.58030944
H        0.92536273       1.61384235      -1.61553217
H       -0.34551531      -0.56319633      -2.41969958
H        0.50024919      -1.66433565       1.23809118
H       -0.02460963      -2.13941917      -0.26200391
H       -1.15110572       0.06392604       1.53468973
H       -2.04199308      -0.98365245       0.45424608
14
Frame=16 idx=006633 GeodesicLength=2.0376078908565325 rxn_smarts="[O:1]=[C:2]([C@@:3]1([H:9])[C@@:4]2([H:10])[C:5]([H:11])([H:12])[C:6]([H:13])([H:14])[N:7]12)[H:8]>>[C:3]1([H:9])=[C:4]([H:10])[N:7]1[C:6]([C:5]([H:8])([H:11])[H:12])([H:13])[H:14].[O+:1]#[C-:2]"
O        1.43266015       1.98855556       1.82627414
C        0.99101157       1.91760803       0.76346379
C        0.29094310       1.03581210      -0.96153909
C       -0.20941298      -0.15740084      -1.44025205
C        0.17253020      -1.22053244       0.27595919
C       -1.11014342      -0.41355749       0.56233041
N       -1.04878342       0.62649469      -0.50629496
H        1.58622602      -0.04110245       0.56850414
H        0.98369362       1.54773484      -1.61562168
H       -0.39139344      -0.56192518      -2.42277450
H        0.51190633      -1.66522356       1.21446635
H       -0.03926856      -2.14353627      -0.27051053
H       -1.13021766       0.05991333       1.54280171
H       -2.03975152      -0.97284031       0.46319309
