11
Frame=0 idx=004387 GeodesicLength=0.0 rxn_smarts="[O:1]=[C:2]1[N:3]([H:7])[C:4]([H:8])([H:9])[C:5]([H:10])=[C:6]1[H:11]>>[O:1]=[C:2]([N:3]([C:4]([H:8])([H:9])[H:10])[H:7])[C:6](=[C:5])[H:11]"
O        2.21516988      -1.07762572       0.10950447
C        1.17803468      -0.47181882       0.04200135
N       -0.07465512      -1.04746835      -0.00500846
C       -1.17588137      -0.21044360      -0.18503900
C       -0.18344501       1.59023890       0.10321653
C        1.00018129       1.00711918       0.04582264
H       -0.17187428      -2.00308544       0.29152616
H       -2.05282968      -0.50174951       0.39539689
H       -1.43266501       0.02833627      -1.21795398
H       -1.20006522       1.07368204       0.37779256
H        1.89802982       1.61281504       0.04274085
11
Frame=1 idx=004387 GeodesicLength=0.046054506075929855 rxn_smarts="[O:1]=[C:2]1[N:3]([H:7])[C:4]([H:8])([H:9])[C:5]([H:10])=[C:6]1[H:11]>>[O:1]=[C:2]([N:3]([C:4]([H:8])([H:9])[H:10])[H:7])[C:6](=[C:5])[H:11]"
O        2.21554858      -1.07851852       0.11341661
C        1.17857833      -0.47187434       0.04549166
N       -0.07397084      -1.04471004      -0.00367214
C       -1.17729831      -0.20495194      -0.17931911
C       -0.17932504       1.58899761       0.07083796
C        1.00531123       1.00797709       0.04524338
H       -0.16942625      -2.00776109       0.26784922
H       -2.04862017      -0.50160843       0.40714242
H       -1.44769362       0.01288131      -1.21367711
H       -1.20567617       1.08509212       0.38264828
H        1.90257226       1.61447624       0.06403883
11
Frame=2 idx=004387 GeodesicLength=0.09209433333485259 rxn_smarts="[O:1]=[C:2]1[N:3]([H:7])[C:4]([H:8])([H:9])[C:5]([H:10])=[C:6]1[H:11]>>[O:1]=[C:2]([N:3]([C:4]([H:8])([H:9])[H:10])[H:7])[C:6](=[C:5])[H:11]"
O        2.21597636      -1.07943050       0.11712160
C        1.17916706      -0.47203541       0.04811821
N       -0.07328832      -1.04209036      -0.00235364
C       -1.17868407      -0.19949057      -0.17360471
C       -0.17487418       1.58685678       0.03827125
C        1.01037033       1.00873529       0.04377256
H       -0.16692209      -2.01186899       0.24421199
H       -2.04400614      -0.50095522       0.41955290
H       -1.46304542      -0.00302928      -1.20879929
H       -1.21087030       1.09705959       0.38634182
H        1.90617679       1.61624868       0.08736731
11
Frame=3 idx=004387 GeodesicLength=0.13811145080025888 rxn_smarts="[O:1]=[C:2]1[N:3]([H:7])[C:4]([H:8])([H:9])[C:5]([H:10])=[C:6]1[H:11]>>[O:1]=[C:2]([N:3]([C:4]([H:8])([H:9])[H:10])[H:7])[C:6](=[C:5])[H:11]"
O        2.21644908      -1.08037284       0.12107489
C        1.17981041      -0.47232137       0.05007565
N       -0.07258919      -1.03962562      -0.00117623
C       -1.17998982      -0.19402690      -0.16797257
C       -0.17011378       1.58382923       0.00602395
C        1.01537607       1.00937562       0.04162064
H       -0.16441235      -2.01543136       0.22052724
H       -2.03902556      -0.49991336       0.43232689
H       -1.47853364      -0.01906365      -1.20334503
H       -1.21571381       1.10942540       0.38919933
H        1.90874258       1.61812485       0.11164524
11
Frame=4 idx=004387 GeodesicLength=0.1841052896438742 rxn_smarts="[O:1]=[C:2]1[N:3]([H:7])[C:4]([H:8])([H:9])[C:5]([H:10])=[C:6]1[H:11]>>[O:1]=[C:2]([N:3]([C:4]([H:8])([H:9])[H:10])[H:7])[C:6](=[C:5])[H:11]"
O        2.21694175      -1.08136305       0.12556285
C        1.18050314      -0.47273932       0.05172636
N       -0.07186076      -1.03732637      -0.00022100
C       -1.18117470      -0.18853858      -0.16252039
C       -0.16509272       1.57996173      -0.02531923
C        1.02031942       1.00989094       0.03918456
H       -0.16194613      -2.01846158       0.19677771
H       -2.03377356      -0.49864752       0.44506783
H       -1.49389472      -0.03488760      -1.19741506
H       -1.22032200       1.12200257       0.39157502
H        1.91030029       1.62010880       0.13558135
11
Frame=5 idx=004387 GeodesicLength=0.2300814007633229 rxn_smarts="[O:1]=[C:2]1[N:3]([H:7])[C:4]([H:8])([H:9])[C:5]([H:10])=[C:6]1[H:11]>>[O:1]=[C:2]([N:3]([C:4]([H:8])([H:9])[H:10])[H:7])[C:6](=[C:5])[H:11]"
O        2.21748670      -1.08247453       0.12988048
C        1.18119100      -0.47326549       0.05394577
N       -0.07111912      -1.03519162       0.00069521
C       -1.18220473      -0.18302886      -0.15740513
C       -0.15989439       1.57533823      -0.05511262
C        1.02515788       1.01029112       0.03734780
H       -0.15960055      -2.02093720       0.17335267
H       -2.02851044      -0.49732644       0.45712733
H       -1.50861739      -0.05026795      -1.19129211
H       -1.22495420       1.13461627       0.39369124
H        1.91106523       1.62224647       0.15776935
11
Frame=6 idx=004387 GeodesicLength=0.2759623885440124 rxn_smarts="[O:1]=[C:2]1[N:3]([H:7])[C:4]([H:8])([H:9])[C:5]([H:10])=[C:6]1[H:11]>>[O:1]=[C:2]([N:3]([C:4]([H:8])([H:9])[H:10])[H:7])[C:6](=[C:5])[H:11]"
O        2.21796736      -1.08350893       0.13556522
C        1.18188061      -0.47387901       0.05605223
N       -0.07034396      -1.03323261       0.00106873
C       -1.18312108      -0.17749100      -0.15255754
C       -0.15450948       1.57003534      -0.08338032
C        1.02988521       1.01050103       0.03521755
H       -0.15728682      -2.02290992       0.14978689
H       -2.02305899      -0.49607381       0.46879845
H       -1.52310230      -0.06499092      -1.18483317
H       -1.22942847       1.14714300       0.39595776
H        1.91111791       1.62440684       0.17832420
11
Frame=7 idx=004387 GeodesicLength=0.32185692989965653 rxn_smarts="[O:1]=[C:2]1[N:3]([H:7])[C:4]([H:8])([H:9])[C:5]([H:10])=[C:6]1[H:11]>>[O:1]=[C:2]([N:3]([C:4]([H:8])([H:9])[H:10])[H:7])[C:6](=[C:5])[H:11]"
O        2.21848119      -1.08467210       0.14103841
C        1.18254526      -0.47460098       0.05865913
N       -0.06956135      -1.03143223       0.00126133
C       -1.18392193      -0.17194505      -0.14807883
C       -0.14901509       1.56415180      -0.11021238
C        1.03452768       1.01065241       0.03343680
H       -0.15508160      -2.02434696       0.12684941
H       -2.01763333      -0.49486823       0.47974226
H       -1.53702021      -0.07922734      -1.17828433
H       -1.23397143       1.15956778       0.39819124
H        1.91065083       1.62672090       0.19739695
11
Frame=8 idx=004387 GeodesicLength=0.36772045357458444 rxn_smarts="[O:1]=[C:2]1[N:3]([H:7])[C:4]([H:8])([H:9])[C:5]([H:10])=[C:6]1[H:11]>>[O:1]=[C:2]([N:3]([C:4]([H:8])([H:9])[H:10])[H:7])[C:6](=[C:5])[H:11]"
O        2.21895489      -1.08588573       0.14701905
C        1.18320560      -0.47542137       0.06131119
N       -0.06875696      -1.02977500       0.00108327
C       -1.18462702      -0.16639104      -0.14386618
C       -0.14342934       1.55775445      -0.13598879
C        1.03915105       1.01071016       0.03141649
H       -0.15291114      -2.02532035       0.10413238
H       -2.01205757      -0.49368133       0.49032499
H       -1.55068851      -0.09302618      -1.17146730
H       -1.23846163       1.17193221       0.40045721
H        1.90962063       1.62910419       0.21557770
11
Frame=9 idx=004387 GeodesicLength=0.41357050891907293 rxn_smarts="[O:1]=[C:2]1[N:3]([H:7])[C:4]([H:8])([H:9])[C:5]([H:10])=[C:6]1[H:11]>>[O:1]=[C:2]([N:3]([C:4]([H:8])([H:9])[H:10])[H:7])[C:6](=[C:5])[H:11]"
O        2.21947727      -1.08718638       0.15228361
C        1.18380165      -0.47629969       0.06474355
N       -0.06795750      -1.02824550       0.00085231
C       -1.18523373      -0.16083557      -0.13999224
C       -0.13772623       1.55090268      -0.16059396
C        1.04369757       1.01066316       0.02945680
H       -0.15081252      -2.02583306       0.08216835
H       -2.00654469      -0.49251067       0.50021687
H       -1.56378348      -0.10644863      -1.16463073
H       -1.24303086       1.18422517       0.40268171
H        1.90811253       1.63156851       0.23281373
11
Frame=10 idx=004387 GeodesicLength=0.45940712611822493 rxn_smarts="[O:1]=[C:2]1[N:3]([H:7])[C:4]([H:8])([H:9])[C:5]([H:10])=[C:6]1[H:11]>>[O:1]=[C:2]([N:3]([C:4]([H:8])([H:9])[H:10])[H:7])[C:6](=[C:5])[H:11]"
O        2.22000611      -1.08855211       0.15693497
C        1.18432884      -0.47724487       0.06888803
N       -0.06716785      -1.02683478       0.00054449
C       -1.18576459      -0.15528019      -0.13644981
C       -0.13193939       1.54364687      -0.18410445
C        1.04817405       1.01054248       0.02773640
H       -0.14876009      -2.02595141       0.06088712
H       -2.00110221      -0.49137293       0.50944641
H       -1.57634081      -0.11950281      -1.15778254
H       -1.24771732       1.19642319       0.40490230
H        1.90628325       1.63412658       0.24899709
11
Frame=11 idx=004387 GeodesicLength=0.5052367383309436 rxn_smarts="[O:1]=[C:2]1[N:3]([H:7])[C:4]([H:8])([H:9])[C:5]([H:10])=[C:6]1[H:11]>>[O:1]=[C:2]([N:3]([C:4]([H:8])([H:9])[H:10])[H:7])[C:6](=[C:5])[H:11]"
O        2.22047670      -1.08997054       0.16228314
C        1.18482637      -0.47825338       0.07306594
N       -0.06636256      -1.02552871      -0.00018357
C       -1.18623710      -0.14972495      -0.13313806
C       -0.12609082       1.53603663      -0.20673397
C        1.05263939       1.01032415       0.02579362
H       -0.14670130      -2.02570179       0.03969014
H       -1.99552614      -0.49032518       0.51836872
H       -1.58873018      -0.13212017      -1.15071419
H       -1.25238038       1.20851082       0.40732322
H        1.90408603       1.63675312       0.26424501
11
Frame=12 idx=004387 GeodesicLength=0.5510868294163124 rxn_smarts="[O:1]=[C:2]1[N:3]([H:7])[C:4]([H:8])([H:9])[C:5]([H:10])=[C:6]1[H:11]>>[O:1]=[C:2]([N:3]([C:4]([H:8])([H:9])[H:10])[H:7])[C:6](=[C:5])[H:11]"
O        2.22084537      -1.09142382       0.16868366
C        1.18532183      -0.47932977       0.07701105
N       -0.06552210      -1.02432652      -0.00137902
C       -1.18665963      -0.14415824      -0.12997702
C       -0.12017731       1.52808901      -0.22877221
C        1.05711081       1.01002692       0.02338956
H       -0.14457638      -2.02514085       0.01827134
H       -1.98970928      -0.48930561       0.52724193
H       -1.60113127      -0.14437079      -1.14330724
H       -1.25695071       1.22054590       0.40990807
H        1.90144867       1.63939377       0.27892990
11
Frame=13 idx=004387 GeodesicLength=0.5969395864216976 rxn_smarts="[O:1]=[C:2]1[N:3]([H:7])[C:4]([H:8])([H:9])[C:5]([H:10])=[C:6]1[H:11]>>[O:1]=[C:2]([N:3]([C:4]([H:8])([H:9])[H:10])[H:7])[C:6](=[C:5])[H:11]"
O        2.22102174      -1.09290148       0.17711435
C        1.18585262      -0.48048299       0.08024859
N       -0.06463391      -1.02322345      -0.00326952
C       -1.18702735      -0.13857735      -0.12687867
C       -0.11420920       1.51981417      -0.25039427
C        1.06165618       1.00962791       0.02024403
H       -0.14235338      -2.02427162      -0.00389740
H       -1.98346823      -0.48833304       0.53632843
H       -1.61378784      -0.15621785      -1.13536756
H       -1.26129563       1.23252168       0.41278886
H        1.89824500       1.64204401       0.29308315
11
Frame=14 idx=004387 GeodesicLength=0.6427859794657886 rxn_smarts="[O:1]=[C:2]1[N:3]([H:7])[C:4]([H:8])([H:9])[C:5]([H:10])=[C:6]1[H:11]>>[O:1]=[C:2]([N:3]([C:4]([H:8])([H:9])[H:10])[H:7])[C:6](=[C:5])[H:11]"
O        2.22116179      -1.09444824       0.18510432
C        1.18630360      -0.48168280       0.08397921
N       -0.06375346      -1.02220219      -0.00519151
C       -1.18733368      -0.13299608      -0.12401572
C       -0.10817531       1.51124640      -0.27136097
C        1.06616601       1.00914891       0.01713738
H       -0.14011291      -2.02308568      -0.02564918
H       -1.97721816      -0.48734593       0.54498583
H       -1.62605354      -0.16782984      -1.12734972
H       -1.26572604       1.24445162       0.41569606
H        1.89474170       1.64474383       0.30666431
11
Frame=15 idx=004387 GeodesicLength=0.6886551321284914 rxn_smarts="[O:1]=[C:2]1[N:3]([H:7])[C:4]([H:8])([H:9])[C:5]([H:10])=[C:6]1[H:11]>>[O:1]=[C:2]([N:3]([C:4]([H:8])([H:9])[H:10])[H:7])[C:6](=[C:5])[H:11]"
O        2.22120329      -1.09604961       0.19358135
C        1.18670180      -0.48293177       0.08789093
N       -0.06287315      -1.02126455      -0.00731212
C       -1.18759830      -0.12741289      -0.12130833
C       -0.10209522       1.50240261      -0.29175208
C        1.07067115       1.00858668       0.01392476
H       -0.13779946      -2.02159336      -0.04756334
H       -1.97086030      -0.48639068       0.55342092
H       -1.63812384      -0.17914435      -1.11911527
H       -1.27018527       1.25631325       0.41878172
H        1.89095931       1.64748467       0.31945147
11
Frame=16 idx=004387 GeodesicLength=0.7345409544645585 rxn_smarts="[O:1]=[C:2]1[N:3]([H:7])[C:4]([H:8])([H:9])[C:5]([H:10])=[C:6]1[H:11]>>[O:1]=[C:2]([N:3]([C:4]([H:8])([H:9])[H:10])[H:7])[C:6](=[C:5])[H:11]"
O        2.22108085      -1.09769273       0.20300010
C        1.18706915      -0.48423812       0.09170413
N       -0.06197596      -1.02041045      -0.00974474
C       -1.18781170      -0.12182496      -0.11869725
C       -0.09596557       1.49327909      -0.31175625
C        1.07519722       1.00793014       0.01041373
H       -0.13537830      -2.01979007      -0.06991778
H       -1.96426495      -0.48544458       0.56183499
H       -1.65015934      -0.19018269      -1.11053829
H       -1.27459625       1.26813230       0.42205463
H        1.88680484       1.65024208       0.33164674
