13
Frame=0 idx=004989 GeodesicLength=0.0 rxn_smarts="[C:1]1([H:7])([H:8])[C:2]([H:9])([H:10])[O:3][C:4]([H:11])=[N:5][C:6]1([H:12])[H:13]>>[C:1]([C:6](/[N:5]=[C:4](\[O+:3]=[C-:2][H:9])[H:11])([H:12])[H:13])([H:7])([H:8])[H:10]"
C        0.59280467      -0.82789855       0.68930061
C       -1.29871209      -0.98155183      -0.38120989
O       -1.77498613       0.22858104       0.01868763
C       -1.04361091       1.35146070      -0.27657794
N        0.19860604       1.44712407      -0.38269200
C        1.10350223       0.33953944      -0.12633449
H        0.35825601      -0.54620197       1.71674149
H        1.28790658      -1.66709118       0.66655773
H       -0.71974203      -0.85930728      -1.30924730
H       -0.46729878      -1.46701192       0.46470192
H       -1.69025396       2.21670991      -0.39044070
H        1.96168392       0.77272185       0.39783065
H        1.49184447      -0.00707425      -1.08731775
13
Frame=1 idx=004989 GeodesicLength=0.04696863689332574 rxn_smarts="[C:1]1([H:7])([H:8])[C:2]([H:9])([H:10])[O:3][C:4]([H:11])=[N:5][C:6]1([H:12])[H:13]>>[C:1]([C:6](/[N:5]=[C:4](\[O+:3]=[C-:2][H:9])[H:11])([H:12])[H:13])([H:7])([H:8])[H:10]"
C        0.58960201      -0.82740212       0.68619485
C       -1.29494504      -0.98011434      -0.38182157
O       -1.77474811       0.22920490       0.01544869
C       -1.04163377       1.35319433      -0.27538011
N        0.20066763       1.45026760      -0.37761930
C        1.10546007       0.34133565      -0.12594818
H        0.35887580      -0.54219046       1.71381656
H        1.29121870      -1.66159078       0.66897066
H       -0.72790646      -0.86331423      -1.31801906
H       -0.47415554      -1.48585233       0.47594813
H       -1.68925216       2.21754093      -0.39073955
H        1.96498977       0.77168612       0.39787563
H        1.49182710      -0.00276528      -1.08872674
13
Frame=2 idx=004989 GeodesicLength=0.09393431913649503 rxn_smarts="[C:1]1([H:7])([H:8])[C:2]([H:9])([H:10])[O:3][C:4]([H:11])=[N:5][C:6]1([H:12])[H:13]>>[C:1]([C:6](/[N:5]=[C:4](\[O+:3]=[C-:2][H:9])[H:11])([H:12])[H:13])([H:7])([H:8])[H:10]"
C        0.58646767      -0.82694833       0.68302590
C       -1.29102725      -0.97872046      -0.38229430
O       -1.77447345       0.22980877       0.01217149
C       -1.03963970       1.35491966      -0.27416252
N        0.20274152       1.45344301      -0.37238388
C        1.10747160       0.34319325      -0.12548649
H        0.35958681      -0.53837316       1.71085085
H        1.29439703      -1.65618629       0.67116025
H       -0.73642335      -0.86738448      -1.32671937
H       -0.48100092      -1.50441799       0.48729032
H       -1.68826242       2.21828398      -0.39140914
H        1.96831876       0.77067883       0.39804545
H        1.49184371       0.00170322      -1.09008856
13
Frame=3 idx=004989 GeodesicLength=0.14090989290927847 rxn_smarts="[C:1]1([H:7])([H:8])[C:2]([H:9])([H:10])[O:3][C:4]([H:11])=[N:5][C:6]1([H:12])[H:13]>>[C:1]([C:6](/[N:5]=[C:4](\[O+:3]=[C-:2][H:9])[H:11])([H:12])[H:13])([H:7])([H:8])[H:10]"
C        0.58340237      -0.82652611       0.67980467
C       -1.28697129      -0.97737410      -0.38265594
O       -1.77416375       0.23038625       0.00884140
C       -1.03762887       1.35663158      -0.27295114
N        0.20482909       1.45664575      -0.36700954
C        1.10953877       0.34511246      -0.12495639
H        0.36036849      -0.53472998       1.70785257
H        1.29744891      -1.65086973       0.67315234
H       -0.74528776      -0.87153995      -1.33534932
H       -0.48783914      -1.52272300       0.49871624
H       -1.68727331       2.21895512      -0.39236677
H        1.97167526       0.76971025       0.39832880
H        1.49190125       0.00632144      -1.09140692
13
Frame=4 idx=004989 GeodesicLength=0.1878826801083603 rxn_smarts="[C:1]1([H:7])([H:8])[C:2]([H:9])([H:10])[O:3][C:4]([H:11])=[N:5][C:6]1([H:12])[H:13]>>[C:1]([C:6](/[N:5]=[C:4](\[O+:3]=[C-:2][H:9])[H:11])([H:12])[H:13])([H:7])([H:8])[H:10]"
C        0.58040437      -0.82612226       0.67653750
C       -1.28277810      -0.97607557      -0.38293466
O       -1.77381432       0.23093420       0.00543649
C       -1.03560066       1.35832320      -0.27177881
N        0.20692754       1.45986684      -0.36152350
C        1.11165796       0.34708991      -0.12436560
H        0.36119708      -0.53123462       1.70481704
H        1.30037726      -1.64563095       0.67497333
H       -0.75448486      -0.87580594      -1.34390180
H       -0.49466843      -1.54077593       0.51021605
H       -1.68627247       2.21957273      -0.39350932
H        1.97505160       0.76878596       0.39871172
H        1.49200303       0.01107242      -1.09267844
13
Frame=5 idx=004989 GeodesicLength=0.2348648227924713 rxn_smarts="[C:1]1([H:7])([H:8])[C:2]([H:9])([H:10])[O:3][C:4]([H:11])=[N:5][C:6]1([H:12])[H:13]>>[C:1]([C:6](/[N:5]=[C:4](\[O+:3]=[C-:2][H:9])[H:11])([H:12])[H:13])([H:7])([H:8])[H:10]"
C        0.57747950      -0.82573578       0.67322622
C       -1.27846275      -0.97481770      -0.38313880
O       -1.77342193       0.23145647       0.00196982
C       -1.03355438       1.35999742      -0.27064078
N        0.20903637       1.46310915      -0.35591242
C        1.11382946       0.34912652      -0.12371188
H        0.36207343      -0.52789212       1.70174975
H        1.30319821      -1.64046806       0.67662322
H       -0.76402480      -0.88018597      -1.35236890
H       -0.50149562      -1.55859583       0.52177881
H       -1.68525802       2.22013473      -0.39486501
H        1.97845152       0.76790559       0.39919411
H        1.49214901       0.01596558      -1.09390416
13
Frame=6 idx=004989 GeodesicLength=0.28185463730269283 rxn_smarts="[C:1]1([H:7])([H:8])[C:2]([H:9])([H:10])[O:3][C:4]([H:11])=[N:5][C:6]1([H:12])[H:13]>>[C:1]([C:6](/[N:5]=[C:4](\[O+:3]=[C-:2][H:9])[H:11])([H:12])[H:13])([H:7])([H:8])[H:10]"
C        0.57462900      -0.82536046       0.66987401
C       -1.27403332      -0.97359746      -0.38328722
O       -1.77298547       0.23195257      -0.00156064
C       -1.03148931       1.36165284      -0.26954780
N        0.21115595       1.46637045      -0.35018478
C        1.11605344       0.35122228      -0.12299836
H        0.36298691      -0.52469341       1.69865165
H        1.30591759      -1.63537719       0.67811295
H       -0.77390618      -0.88469329      -1.36074159
H       -0.50832243      -1.57619551       0.53339616
H       -1.68422511       2.22064771      -0.39640139
H        1.98187525       0.76707359       0.39977109
H        1.49234368       0.02099789      -1.09508408
13
Frame=7 idx=004989 GeodesicLength=0.32885116185845653 rxn_smarts="[C:1]1([H:7])([H:8])[C:2]([H:9])([H:10])[O:3][C:4]([H:11])=[N:5][C:6]1([H:12])[H:13]>>[C:1]([C:6](/[N:5]=[C:4](\[O+:3]=[C-:2][H:9])[H:11])([H:12])[H:13])([H:7])([H:8])[H:10]"
C        0.57185490      -0.82499118       0.66648292
C       -1.26949714      -0.97241065      -0.38339448
O       -1.77250159       0.23242351      -0.00515426
C       -1.02940430       1.36328908      -0.26850799
N        0.21328507       1.46964881      -0.34434663
C        1.11832912       0.35337732      -0.12222663
H        0.36392978      -0.52163211       1.69552329
H        1.30854307      -1.63035470       0.67944957
H       -0.78412900      -0.88933929      -1.36901098
H       -0.51515247      -1.59358926       0.54505952
H       -1.68316882       2.22111708      -0.39809731
H        1.98532102       0.76629343       0.40043953
H        1.49259034       0.02616797      -1.09621653
13
Frame=8 idx=004989 GeodesicLength=0.37585645631945774 rxn_smarts="[C:1]1([H:7])([H:8])[C:2]([H:9])([H:10])[O:3][C:4]([H:11])=[N:5][C:6]1([H:12])[H:13]>>[C:1]([C:6](/[N:5]=[C:4](\[O+:3]=[C-:2][H:9])[H:11])([H:12])[H:13])([H:7])([H:8])[H:10]"
C        0.56915958      -0.82462405       0.66305392
C       -1.26486172      -0.97125229      -0.38347320
O       -1.77196762       0.23287112      -0.00880704
C       -1.02729822       1.36490702      -0.26752490
N        0.21542299       1.47294370      -0.33839954
C        1.12065630       0.35559252      -0.12139723
H        0.36489700      -0.51870493       1.69236568
H        1.31108252      -1.62539815       0.68063660
H       -0.79469539      -0.89413347      -1.37716752
H       -0.52199021      -1.61079273       0.55676153
H       -1.68208569       2.22154611      -0.39994579
H        1.98878862       0.76556805       0.40119778
H        1.49289185       0.03147711      -1.09730028
13
Frame=9 idx=004989 GeodesicLength=0.42286379237905725 rxn_smarts="[C:1]1([H:7])([H:8])[C:2]([H:9])([H:10])[O:3][C:4]([H:11])=[N:5][C:6]1([H:12])[H:13]>>[C:1]([C:6](/[N:5]=[C:4](\[O+:3]=[C-:2][H:9])[H:11])([H:12])[H:13])([H:7])([H:8])[H:10]"
C        0.56654537      -0.82425641       0.65958722
C       -1.26013422      -0.97011681      -0.38353419
O       -1.77138081       0.23329718      -0.01251185
C       -1.02516977       1.36650778      -0.26659813
N        0.21756889       1.47625493      -0.33234239
C        1.12303466       0.35786870      -0.12050989
H        0.36588559      -0.51591174       1.68917965
H        1.31354317      -1.62050566       0.68167581
H       -0.80561011      -0.89908082      -1.38519960
H       -0.52883794      -1.62781937       0.56849351
H       -1.68097286       2.22193492      -0.40195186
H        1.99227773       0.76489914       0.40204551
H        1.49325030       0.03692816      -1.09833379
13
Frame=10 idx=004989 GeodesicLength=0.4698765871026979 rxn_smarts="[C:1]1([H:7])([H:8])[C:2]([H:9])([H:10])[O:3][C:4]([H:11])=[N:5][C:6]1([H:12])[H:13]>>[C:1]([C:6](/[N:5]=[C:4](\[O+:3]=[C-:2][H:9])[H:11])([H:12])[H:13])([H:7])([H:8])[H:10]"
C        0.56401104      -0.82387905       0.65608559
C       -1.25531858      -0.96900506      -0.38359658
O       -1.77073963       0.23370064      -0.01628432
C       -1.02301772       1.36808763      -0.26575858
N        0.21972231       1.47957658      -0.32620450
C        1.12546457       0.36020564      -0.11957088
H        0.36688110      -0.51323528       1.68596452
H        1.31592772      -1.61567055       0.68258229
H       -0.81686418      -0.90420580      -1.39310230
H       -0.53570348      -1.64468214       0.58025210
H       -1.67982428       2.22230107      -0.40403210
H        1.99578272       0.76429685       0.40297928
H        1.49367841       0.04250947      -1.09931452
13
Frame=11 idx=004989 GeodesicLength=0.5168891768688579 rxn_smarts="[C:1]1([H:7])([H:8])[C:2]([H:9])([H:10])[O:3][C:4]([H:11])=[N:5][C:6]1([H:12])[H:13]>>[C:1]([C:6](/[N:5]=[C:4](\[O+:3]=[C-:2][H:9])[H:11])([H:12])[H:13])([H:7])([H:8])[H:10]"
C        0.56155534      -0.82348362       0.65255125
C       -1.25041756      -0.96791685      -0.38367774
O       -1.77004131       0.23408075      -0.02013925
C       -1.02084038       1.36964273      -0.26503564
N        0.22188235       1.48290242      -0.32001511
C        1.12794601       0.36260240      -0.11858600
H        0.36787040      -0.51065993       1.68271930
H        1.31823863      -1.61088569       0.68337123
H       -0.82844963      -0.90952927      -1.40086881
H       -0.54259331      -1.66139189       0.59203160
H       -1.67863592       2.22266028      -0.40610788
H        1.99929721       0.76376961       0.40399645
H        1.49418818       0.04820907      -1.10023938
13
Frame=12 idx=004989 GeodesicLength=0.5639008479627949 rxn_smarts="[C:1]1([H:7])([H:8])[C:2]([H:9])([H:10])[O:3][C:4]([H:11])=[N:5][C:6]1([H:12])[H:13]>>[C:1]([C:6](/[N:5]=[C:4](\[O+:3]=[C-:2][H:9])[H:11])([H:12])[H:13])([H:7])([H:8])[H:10]"
C        0.55917991      -0.82306818       0.64898282
C       -1.24543639      -0.96684765      -0.38378731
O       -1.76928406       0.23443950      -0.02407136
C       -1.01863583       1.37117507      -0.26442989
N        0.22404913       1.48623366      -0.31377287
C        1.13047968       0.36506052      -0.11755494
H        0.36885188      -0.50818569       1.67944400
H        1.32048222      -1.60614975       0.68404247
H       -0.84037112      -0.91505859      -1.40848847
H       -0.54951319      -1.67796290       0.60382786
H       -1.67740746       2.22301406      -0.40818312
H        2.00282188       0.76331957       0.40509825
H        1.49478337       0.05403037      -1.10110745
13
Frame=13 idx=004989 GeodesicLength=0.6109116561358413 rxn_smarts="[C:1]1([H:7])([H:8])[C:2]([H:9])([H:10])[O:3][C:4]([H:11])=[N:5][C:6]1([H:12])[H:13]>>[C:1]([C:6](/[N:5]=[C:4](\[O+:3]=[C-:2][H:9])[H:11])([H:12])[H:13])([H:7])([H:8])[H:10]"
C        0.55688650      -0.82263078       0.64537838
C       -1.24037896      -0.96579249      -0.38393406
O       -1.76846531       0.23477929      -0.02807664
C       -1.01640208       1.37268642      -0.26394335
N        0.22622223       1.48957107      -0.30747710
C        1.13306594       0.36758152      -0.11647729
H        0.36982445      -0.50581255       1.67613812
H        1.32266480      -1.60146115       0.68459551
H       -0.85263342      -0.92080125      -1.41595005
H       -0.55646982      -1.69440980       0.61563738
H       -1.67613844       2.22336414      -0.41026003
H        2.00635645       0.76294872       0.40628634
H        1.49546768       0.05997685      -1.10191722
13
Frame=14 idx=004989 GeodesicLength=0.6579216297776229 rxn_smarts="[C:1]1([H:7])([H:8])[C:2]([H:9])([H:10])[O:3][C:4]([H:11])=[N:5][C:6]1([H:12])[H:13]>>[C:1]([C:6](/[N:5]=[C:4](\[O+:3]=[C-:2][H:9])[H:11])([H:12])[H:13])([H:7])([H:8])[H:10]"
C        0.55467651      -0.82216939       0.64173571
C       -1.23524842      -0.96474718      -0.38412689
O       -1.76758275       0.23510223      -0.03215265
C       -1.01413705       1.37417830      -0.26357968
N        0.22840135       1.49291533      -0.30112816
C        1.13570538       0.37016703      -0.11535282
H        0.37078690      -0.50354006       1.67280085
H        1.32479226      -1.59681812       0.68503001
H       -0.86524148      -0.92676577      -1.42324235
H       -0.56347059      -1.71074656       0.62745756
H       -1.67482825       2.22371293      -0.41233714
H        2.00990050       0.76265945       0.40756272
H        1.49624564       0.06605181      -1.10266716
13
Frame=15 idx=004989 GeodesicLength=0.7049307586958881 rxn_smarts="[C:1]1([H:7])([H:8])[C:2]([H:9])([H:10])[O:3][C:4]([H:11])=[N:5][C:6]1([H:12])[H:13]>>[C:1]([C:6](/[N:5]=[C:4](\[O+:3]=[C-:2][H:9])[H:11])([H:12])[H:13])([H:7])([H:8])[H:10]"
C        0.55255209      -0.82168318       0.63805170
C       -1.23004797      -0.96370647      -0.38437280
O       -1.76663411       0.23541103      -0.03629281
C       -1.01183872       1.37565337      -0.26333687
N        0.23058599       1.49626815      -0.29472140
C        1.13839861       0.37281923      -0.11418003
H        0.37174056      -0.50137123       1.66943150
H        1.32687096      -1.59222020       0.68534203
H       -0.87820290      -0.93295753      -1.43035246
H       -0.57052275      -1.72698775       0.63928561
H       -1.67347656       2.22405985      -0.41442945
H        2.01345428       0.76245337       0.40893057
H        1.49712052       0.07226135      -1.10335558
13
Frame=16 idx=004989 GeodesicLength=0.751939120163163 rxn_smarts="[C:1]1([H:7])([H:8])[C:2]([H:9])([H:10])[O:3][C:4]([H:11])=[N:5][C:6]1([H:12])[H:13]>>[C:1]([C:6](/[N:5]=[C:4](\[O+:3]=[C-:2][H:9])[H:11])([H:12])[H:13])([H:7])([H:8])[H:10]"
C        0.55051520      -0.82117123       0.63432292
C       -1.22478011      -0.96266555      -0.38467880
O       -1.76561719       0.23570829      -0.04049167
C       -1.00950500       1.37711405      -0.26321407
N        0.23277563       1.49963112      -0.28825272
C        1.14114628       0.37554044      -0.11295744
H        0.37268677      -0.49930890       1.66602904
H        1.32890707      -1.58766675       0.68552758
H       -0.89152581      -0.93938256      -1.43726706
H       -0.57763404      -1.74314768       0.65111928
H       -1.67208265       2.22440475      -0.41654988
H        2.01701780       0.76233235       0.41039344
H        1.49809606       0.07861167      -1.10398062
