15
Frame=0 idx=000981 GeodesicLength=0.0 rxn_smarts="[C:1]([N:2]([C:3]([H:10])([H:11])[H:12])[C:4]([C:5](=[O:6])[H:15])([H:13])[H:14])([H:7])([H:8])[H:9]>>[C:1]([N:2]1[C:3]([H:10])([H:12])[C:5]([O:6][H:11])([H:15])[C:4]1([H:13])[H:14])([H:7])([H:8])[H:9]"
C       -1.62738590      -0.93096387      -0.22239670
N       -0.45312078      -0.38317502       0.41199128
C       -0.27309684       1.05408128       0.32620887
C        0.84012570      -0.80093367      -0.10567001
C        1.52982752       0.48895159       0.32681204
O        2.25681265       1.23238092      -0.48817380
H       -1.66430791      -0.71947285      -1.30377531
H       -2.52367753      -0.51534717       0.24104658
H       -1.64695394      -2.01342600      -0.08386272
H       -0.61174270       1.62553929       1.18950652
H        0.98930990       1.52847791      -0.22186295
H       -0.66501087       1.49736599      -0.60925636
H        0.87396183      -0.87390423      -1.20265745
H        1.23426481      -1.71878032       0.33701138
H        1.74099406       0.52920613       1.40507864
15
Frame=1 idx=000981 GeodesicLength=0.08583937764072995 rxn_smarts="[C:1]([N:2]([C:3]([H:10])([H:11])[H:12])[C:4]([C:5](=[O:6])[H:15])([H:13])[H:14])([H:7])([H:8])[H:9]>>[C:1]([N:2]1[C:3]([H:10])([H:12])[C:5]([O:6][H:11])([H:15])[C:4]1([H:13])[H:14])([H:7])([H:8])[H:9]"
C       -1.62752654      -0.93304285      -0.21625832
N       -0.45234999      -0.38036392       0.41146403
C       -0.27378794       1.05726469       0.31870908
C        0.83864398      -0.79897321      -0.11165182
C        1.53746441       0.48136727       0.33150101
O        2.26774122       1.22633125      -0.47671532
H       -1.66967247      -0.72485350      -1.29814953
H       -2.52259151      -0.51761754       0.24976136
H       -1.64341102      -2.01519859      -0.07477171
H       -0.63022177       1.62670469       1.17640355
H        0.99652305       1.55650710      -0.21575398
H       -0.66508143       1.49057480      -0.62144489
H        0.87242575      -0.86409117      -1.20914821
H        1.22683339      -1.72196868       0.32539352
H        1.74501087       0.51735966       1.41066123
15
Frame=2 idx=000981 GeodesicLength=0.17163221524405758 rxn_smarts="[C:1]([N:2]([C:3]([H:10])([H:11])[H:12])[C:4]([C:5](=[O:6])[H:15])([H:13])[H:14])([H:7])([H:8])[H:9]>>[C:1]([N:2]1[C:3]([H:10])([H:12])[C:5]([O:6][H:11])([H:15])[C:4]1([H:13])[H:14])([H:7])([H:8])[H:9]"
C       -1.62759562      -0.93503233      -0.21013412
N       -0.45153611      -0.37756181       0.41096661
C       -0.27431596       1.06040939       0.31122204
C        0.83717333      -0.79715782      -0.11753160
C        1.54524638       0.47335848       0.33619306
O        2.27782871       1.22065318      -0.46535387
H       -1.67487003      -0.73016171      -1.29250985
H       -2.52141777      -0.51970545       0.25839247
H       -1.63988314      -2.01685974      -0.06569642
H       -0.64858950       1.62776504       1.16293490
H        1.00346000       1.58497050      -0.20953907
H       -0.66500108       1.48369914      -0.63352305
H        0.87098061      -0.85443407      -1.21547885
H        1.21931664      -1.72524918       0.31386005
H        1.74920354       0.50530638       1.41619770
15
Frame=3 idx=000981 GeodesicLength=0.2573974599126934 rxn_smarts="[C:1]([N:2]([C:3]([H:10])([H:11])[H:12])[C:4]([C:5](=[O:6])[H:15])([H:13])[H:14])([H:7])([H:8])[H:9]>>[C:1]([N:2]1[C:3]([H:10])([H:12])[C:5]([O:6][H:11])([H:15])[C:4]1([H:13])[H:14])([H:7])([H:8])[H:9]"
C       -1.62759242      -0.93693009      -0.20401896
N       -0.45067229      -0.37476723       0.41049655
C       -0.27466955       1.06351643       0.30374425
C        0.83571684      -0.79549401      -0.12331442
C        1.55318677       0.46489870       0.34090166
O        2.28707855       1.21537569      -0.45404077
H       -1.67990473      -0.73539754      -1.28685266
H       -2.52015350      -0.52160608       0.26694790
H       -1.63637286      -2.01840748      -0.05662812
H       -0.66681738       1.62872032       1.14909579
H        1.01008434       1.61389461      -0.20329756
H       -0.66478320       1.47673602      -0.64548530
H        0.86963436      -0.84493084      -1.22165499
H        1.21170659      -1.72863585       0.30239771
H        1.75355848       0.49302734       1.42170892
15
Frame=4 idx=000981 GeodesicLength=0.3431684148801463 rxn_smarts="[C:1]([N:2]([C:3]([H:10])([H:11])[H:12])[C:4]([C:5](=[O:6])[H:15])([H:13])[H:14])([H:7])([H:8])[H:9]>>[C:1]([N:2]1[C:3]([H:10])([H:12])[C:5]([O:6][H:11])([H:15])[C:4]1([H:13])[H:14])([H:7])([H:8])[H:9]"
C       -1.62751564      -0.93873300      -0.19790675
N       -0.44975023      -0.37197792       0.41005121
C       -0.27483362       1.06658742       0.29627052
C        0.83427810      -0.79398907      -0.12900630
C        1.56130417       0.45595406       0.34564415
O        2.29548927       1.21053304      -0.44271351
H       -1.68478028      -0.74056085      -1.28117324
H       -2.51879447      -0.52331269       0.27543685
H       -1.63288262      -2.01983880      -0.04755611
H       -0.68487073       1.62957069       1.13488017
H        1.01634701       1.64330830      -0.19712864
H       -0.66444216       1.46968132      -0.65732472
H        0.86839644      -0.83557552      -1.22768337
H        1.20399364      -1.73214495       0.29098897
H        1.75806113       0.48049799       1.42722077
15
Frame=5 idx=000981 GeodesicLength=0.4289426164379326 rxn_smarts="[C:1]([N:2]([C:3]([H:10])([H:11])[H:12])[C:4]([C:5](=[O:6])[H:15])([H:13])[H:14])([H:7])([H:8])[H:9]>>[C:1]([N:2]1[C:3]([H:10])([H:12])[C:5]([O:6][H:11])([H:15])[C:4]1([H:13])[H:14])([H:7])([H:8])[H:9]"
C       -1.62736262      -0.94043684      -0.19179223
N       -0.44876172      -0.36919202       0.40962836
C       -0.27479192       1.06962380       0.28879814
C        0.83286184      -0.79264914      -0.13461167
C        1.56961129       0.44648768       0.35043809
O        2.30304568       1.20616103      -0.43130198
H       -1.68949809      -0.74565017      -1.27546759
H       -2.51733456      -0.52481699       0.28386752
H       -1.62941319      -2.02114984      -0.03847105
H       -0.70271068       1.63031541       1.12029196
H        1.02221106       1.67324033      -0.19115296
H       -0.66399655       1.46253150      -0.66903120
H        0.86727928      -0.82636274      -1.23356743
H        1.19616964      -1.73579005       0.27961590
H        1.76269052       0.46768806       1.43275615
15
Frame=6 idx=000981 GeodesicLength=0.5147122587861384 rxn_smarts="[C:1]([N:2]([C:3]([H:10])([H:11])[H:12])[C:4]([C:5](=[O:6])[H:15])([H:13])[H:14])([H:7])([H:8])[H:9]>>[C:1]([N:2]1[C:3]([H:10])([H:12])[C:5]([O:6][H:11])([H:15])[C:4]1([H:13])[H:14])([H:7])([H:8])[H:9]"
C       -1.62713200      -0.94203895      -0.18566823
N       -0.44769799      -0.36640795       0.40922587
C       -0.27453167       1.07262694       0.28132359
C        0.83147138      -0.79147977      -0.14013809
C        1.57812722       0.43646727       0.35529885
O        2.30974919       1.20228883      -0.41972956
H       -1.69406301      -0.75066443      -1.26972937
H       -2.51576955      -0.52611379       0.29225125
H       -1.62596678      -2.02233824      -0.02936332
H       -0.72030003       1.63095445       1.10533016
H        1.02762294       1.70372291      -0.18548512
H       -0.66345737       1.45528263      -0.68059836
H        0.86629267      -0.81728281      -1.23931475
H        1.18822476      -1.73958578       0.26825653
H        1.76743024       0.45456869       1.43834055
15
Frame=7 idx=000981 GeodesicLength=0.6004962841069571 rxn_smarts="[C:1]([N:2]([C:3]([H:10])([H:11])[H:12])[C:4]([C:5](=[O:6])[H:15])([H:13])[H:14])([H:7])([H:8])[H:9]>>[C:1]([N:2]1[C:3]([H:10])([H:12])[C:5]([O:6][H:11])([H:15])[C:4]1([H:13])[H:14])([H:7])([H:8])[H:9]"
C       -1.62682039      -0.94353555      -0.17952721
N       -0.44654879      -0.36362405       0.40884089
C       -0.27403527       1.07559787       0.27384298
C        0.83011195      -0.79048631      -0.14559377
C        1.58686680       0.42585134       0.36024417
O        2.31559251       1.19894112      -0.40790351
H       -1.69847814      -0.75560312      -1.26395193
H       -2.51409214      -0.52719570       0.30060049
H       -1.62254226      -2.02340040      -0.02022125
H       -0.73759385       1.63148622       1.09000262
H        1.03253437       1.73480709      -0.18026865
H       -0.66284511       1.44792962      -0.69201694
H        0.86544994      -0.80832393      -1.24493180
H        1.18014923      -1.74354738       0.25688475
H        1.77225115       0.44110318       1.44399915
15
Frame=8 idx=000981 GeodesicLength=0.6862842243143159 rxn_smarts="[C:1]([N:2]([C:3]([H:10])([H:11])[H:12])[C:4]([C:5](=[O:6])[H:15])([H:13])[H:14])([H:7])([H:8])[H:9]>>[C:1]([N:2]1[C:3]([H:10])([H:12])[C:5]([O:6][H:11])([H:15])[C:4]1([H:13])[H:14])([H:7])([H:8])[H:9]"
C       -1.62642440      -0.94492233      -0.17336149
N       -0.44530327      -0.36083848       0.40847183
C       -0.27328563       1.07853838       0.26635477
C        0.82878850      -0.78967323      -0.15098619
C        1.59585186       0.41459660       0.36529380
O        2.32056058       1.19615267      -0.39571610
H       -1.70274588      -0.76046340      -1.25812817
H       -2.51229471      -0.52805502       0.30892755
H       -1.61914035      -2.02433255      -0.01103538
H       -0.75454405       1.63191085       1.07432010
H        1.03688583       1.76652961      -0.17567494
H       -0.66217627       1.44046892      -0.70327425
H        0.86476597      -0.79947065      -1.25042410
H        1.17193192      -1.74768873       0.24547121
H        1.77712993       0.42724735       1.44976137
15
Frame=9 idx=000981 GeodesicLength=0.7721117130185883 rxn_smarts="[C:1]([N:2]([C:3]([H:10])([H:11])[H:12])[C:4]([C:5](=[O:6])[H:15])([H:13])[H:14])([H:7])([H:8])[H:9]>>[C:1]([N:2]1[C:3]([H:10])([H:12])[C:5]([O:6][H:11])([H:15])[C:4]1([H:13])[H:14])([H:7])([H:8])[H:9]"
C       -1.62593935      -0.94619638      -0.16716581
N       -0.44395324      -0.35805428       0.40811853
C       -0.27226913       1.08144504       0.25886714
C        0.82750605      -0.78904384      -0.15632079
C        1.60508643       0.40265985       0.37045592
O        2.32464864       1.19392226      -0.38306690
H       -1.70686640      -0.76524024      -1.25225267
H       -2.51036928      -0.52868733       0.31724264
H       -1.61575679      -2.02513249      -0.00180175
H       -0.77110554       1.63222130       1.05830992
H        1.04063882       1.79897762      -0.17187095
H       -0.66146801       1.43289588      -0.71435643
H        0.86425188      -0.79071642      -1.25579303
H        1.16356821      -1.75201338       0.23399269
H        1.78202769       0.41296242       1.45564148
15
Frame=10 idx=000981 GeodesicLength=0.8579295109489091 rxn_smarts="[C:1]([N:2]([C:3]([H:10])([H:11])[H:12])[C:4]([C:5](=[O:6])[H:15])([H:13])[H:14])([H:7])([H:8])[H:9]>>[C:1]([N:2]1[C:3]([H:10])([H:12])[C:5]([O:6][H:11])([H:15])[C:4]1([H:13])[H:14])([H:7])([H:8])[H:9]"
C       -1.62535892      -0.94735102      -0.16092856
N       -0.44248316      -0.35526620       0.40777843
C       -0.27096274       1.08432357       0.25137453
C        0.82627289      -0.78859999      -0.16160902
C        1.61459945       0.38998863       0.37575962
O        2.32782024       1.19229810      -0.36980516
H       -1.71084106      -0.76993224      -1.24631434
H       -2.50830266      -0.52908044       0.32556368
H       -1.61238933      -2.02579364       0.00749627
H       -0.78721893       1.63242244       1.04198667
H        1.04372189       1.83217230      -0.16908378
H       -0.66074425       1.42520628      -0.72525079
H        0.86393050      -0.78202894      -1.26104756
H        1.15504294      -1.75653873       0.22240203
H        1.78691314       0.39817990       1.46167797
15
Frame=11 idx=000981 GeodesicLength=0.9437051130914482 rxn_smarts="[C:1]([N:2]([C:3]([H:10])([H:11])[H:12])[C:4]([C:5](=[O:6])[H:15])([H:13])[H:14])([H:7])([H:8])[H:9]>>[C:1]([N:2]1[C:3]([H:10])([H:12])[C:5]([O:6][H:11])([H:15])[C:4]1([H:13])[H:14])([H:7])([H:8])[H:9]"
C       -1.62467667      -0.94838066      -0.15463812
N       -0.44087865      -0.35247094       0.40744943
C       -0.26934870       1.08717832       0.24387539
C        0.82509629      -0.78834170      -0.16686354
C        1.62441514       0.37653510       0.38122619
O        2.33004869       1.19130874      -0.35577545
H       -1.71467272      -0.77453623      -1.24030155
H       -2.50608330      -0.52922607       0.33390950
H       -1.60903280      -2.02631050       0.01687278
H       -0.80283164       1.63251540       1.02537417
H        1.04606763       1.86615594      -0.16754294
H       -0.66002096       1.41739731      -0.73594524
H        0.86382141      -0.77337756      -1.26619665
H        1.14634461      -1.76127852       0.21065333
H        1.79175168       0.38283137       1.46790269
15
Frame=12 idx=000981 GeodesicLength=1.0294220688212485 rxn_smarts="[C:1]([N:2]([C:3]([H:10])([H:11])[H:12])[C:4]([C:5](=[O:6])[H:15])([H:13])[H:14])([H:7])([H:8])[H:9]>>[C:1]([N:2]1[C:3]([H:10])([H:12])[C:5]([O:6][H:11])([H:15])[C:4]1([H:13])[H:14])([H:7])([H:8])[H:9]"
C       -1.62388378      -0.94927850      -0.14828366
N       -0.43912375      -0.34966507       0.40713074
C       -0.26740652       1.09001367       0.23637329
C        0.82398608      -0.78826565      -0.17209544
C        1.63455419       0.36224496       0.38687781
O        2.33129395       1.19097976      -0.34080004
H       -1.71836076      -0.77904672      -1.23420315
H       -2.50369610      -0.52911471       0.34229889
H       -1.60567937      -2.02667678       0.02633985
H       -0.81788571       1.63250119       1.00851049
H        1.04761289       1.90097670      -0.16752300
H       -0.65932254       1.40946701      -0.74642173
H        0.86394858      -0.76472939      -1.27124584
H        1.13746334      -1.76624030       0.19869628
H        1.79649950       0.36683382       1.47434550
15
Frame=13 idx=000981 GeodesicLength=1.11506354872564 rxn_smarts="[C:1]([N:2]([C:3]([H:10])([H:11])[H:12])[C:4]([C:5](=[O:6])[H:15])([H:13])[H:14])([H:7])([H:8])[H:9]>>[C:1]([N:2]1[C:3]([H:10])([H:12])[C:5]([O:6][H:11])([H:15])[C:4]1([H:13])[H:14])([H:7])([H:8])[H:9]"
C       -1.62297222      -0.95003871      -0.14185160
N       -0.43720210      -0.34684379       0.40682132
C       -0.26512115       1.09283622       0.22886965
C        0.82295059      -0.78836617      -0.17731993
C        1.64504348       0.34707179       0.39273336
O        2.33153125       1.19132846      -0.32468556
H       -1.72190826      -0.78345935      -1.22800494
H       -2.50112652      -0.52873969       0.35075514
H       -1.60232005      -2.02688706       0.03591184
H       -0.83232776       1.63238355       0.99142909
H        1.04827739       1.93667625      -0.16930039
H       -0.65866588       1.40141497      -0.75666603
H        0.86433363      -0.75604214      -1.27620514
H        1.12838894      -1.77143088       0.18647372
H        1.80111866       0.35009654       1.48103945
15
Frame=14 idx=000981 GeodesicLength=1.2006315904264477 rxn_smarts="[C:1]([N:2]([C:3]([H:10])([H:11])[H:12])[C:4]([C:5](=[O:6])[H:15])([H:13])[H:14])([H:7])([H:8])[H:9]>>[C:1]([N:2]1[C:3]([H:10])([H:12])[C:5]([O:6][H:11])([H:15])[C:4]1([H:13])[H:14])([H:7])([H:8])[H:9]"
C       -1.62193052      -0.95065449      -0.13532945
N       -0.43509659      -0.34400392       0.40652291
C       -0.26247786       1.09565241       0.22137746
C        0.82200130      -0.78863313      -0.18254910
C        1.65590243       0.33096298       0.39881589
O        2.33070394       1.19237173      -0.30721029
H       -1.72531274      -0.78776508      -1.22169293
H       -2.49835750      -0.52809536       0.35930075
H       -1.59894061      -2.02693537       0.04559807
H       -0.84610154       1.63216519       0.97418492
H        1.04800942       1.97329651      -0.17322178
H       -0.65807732       1.39324389      -0.76665434
H        0.86500492      -0.74726646      -1.28107790
H        1.11911429      -1.77684831       0.17392372
H        1.80555838       0.33250942       1.48801208
15
Frame=15 idx=000981 GeodesicLength=1.2861497400210795 rxn_smarts="[C:1]([N:2]([C:3]([H:10])([H:11])[H:12])[C:4]([C:5](=[O:6])[H:15])([H:13])[H:14])([H:7])([H:8])[H:9]>>[C:1]([N:2]1[C:3]([H:10])([H:12])[C:5]([O:6][H:11])([H:15])[C:4]1([H:13])[H:14])([H:7])([H:8])[H:9]"
C       -1.62074654      -0.95111861      -0.12870247
N       -0.43278849      -0.34113903       0.40623568
C       -0.25946524       1.09847182       0.21390373
C        0.82114934      -0.78905247      -0.18779956
C        1.66715733       0.31387609       0.40514501
O        2.32877454       1.19411532      -0.28813846
H       -1.72857473      -0.79195616      -1.21525087
H       -2.49537064      -0.52717694       0.36796219
H       -1.59552514      -2.02681528       0.05541100
H       -0.85915705       1.63185167       0.95683139
H        1.04673228       2.01087078      -0.17963091
H       -0.65758030       1.38495816      -0.77636639
H        0.86598956      -0.73834675      -1.28587346
H        1.10963060      -1.78249256       0.16097814
H        1.80977449       0.31395397       1.49529498
15
Frame=16 idx=000981 GeodesicLength=1.3716750086193854 rxn_smarts="[C:1]([N:2]([C:3]([H:10])([H:11])[H:12])[C:4]([C:5](=[O:6])[H:15])([H:13])[H:14])([H:7])([H:8])[H:9]>>[C:1]([N:2]1[C:3]([H:10])([H:12])[C:5]([O:6][H:11])([H:15])[C:4]1([H:13])[H:14])([H:7])([H:8])[H:9]"
C       -1.61940514      -0.95142286      -0.12195492
N       -0.43025783      -0.33824022       0.40596247
C       -0.25607296       1.10130859       0.20646293
C        0.82040874      -0.78960235      -0.19308635
C        1.67883390       0.29576426       0.41174158
O        2.32567510       1.19656927      -0.26719036
H       -1.73169079      -0.79602257      -1.20866124
H       -2.49214505      -0.52598099       0.37676730
H       -1.59205209      -2.02651954       0.06536244
H       -0.87144335       1.63145109       0.93943729
H        1.04438291       2.04941587      -0.18894647
H       -0.65720451       1.37656586      -0.78577492
H        0.86732164      -0.72921264      -1.29059513
H        1.09993186      -1.78835297       0.14755867
H        1.81371757       0.29427920       1.50291670
