18
Frame=0 idx=008959 GeodesicLength=0.0 rxn_smarts="[C:1]([C:2]([N:3]1[C:4]([H:13])([H:14])[C@:5]1([C:6]([O:7][H:18])([H:16])[H:17])[H:15])([H:11])[H:12])([H:8])([H:9])[H:10]>>[C:1]([C:2]([C:4](/[N:3]=[C:5](/[C:6]([O:7][H:18])([H:16])[H:17])[H:15])([H:13])[H:14])([H:11])[H:12])([H:8])([H:9])[H:10]"
C       -2.12948515      -0.96976249      -0.27128580
C       -1.55163853       0.20779884       0.46922457
N       -0.11468425       0.38701060      -0.74665072
C        0.23496185       0.54681605       0.89213302
C        1.06359191       0.96453258      -0.26252634
C        2.33114471       0.14119106      -0.51598963
O        2.05225620      -1.23054350      -0.47310607
H       -3.13980740      -1.15340278       0.10835023
H       -1.53694347      -1.86793172      -0.09239963
H       -2.16829332      -0.78847495      -1.34221560
H       -2.02153783       1.15442582       0.22627628
H       -1.68927012       0.01664795       1.53740576
H       -0.07329366       1.38596147       1.50622777
H        0.56425561      -0.34757236       1.40557018
H        1.21788576       2.04474902      -0.38386066
H        2.73073633       0.43577044      -1.49620711
H        3.09211456       0.36626071       0.23620000
H        1.13800681      -1.29347668      -0.79714623
18
Frame=1 idx=008959 GeodesicLength=0.09635303313863529 rxn_smarts="[C:1]([C:2]([N:3]1[C:4]([H:13])([H:14])[C@:5]1([C:6]([O:7][H:18])([H:16])[H:17])[H:15])([H:11])[H:12])([H:8])([H:9])[H:10]>>[C:1]([C:2]([C:4](/[N:3]=[C:5](/[C:6]([O:7][H:18])([H:16])[H:17])[H:15])([H:13])[H:14])([H:11])[H:12])([H:8])([H:9])[H:10]"
C       -2.15430247      -0.96520691      -0.27063664
C       -1.55815371       0.20432653       0.47030783
N       -0.10075477       0.35099540      -0.71843714
C        0.23001279       0.53108172       0.90372583
C        1.07110362       0.95431065      -0.26309030
C        2.34915689       0.15428478      -0.52826621
O        2.09836985      -1.22268625      -0.48158536
H       -3.17462219      -1.12405544       0.09240191
H       -1.58411679      -1.87526584      -0.07898920
H       -2.17434449      -0.78996097      -1.34339397
H       -2.01074263       1.15791609       0.21817491
H       -1.71729820       0.02256210       1.53737152
H       -0.06643030       1.37843123       1.51284267
H        0.56297803      -0.35812726       1.42452704
H        1.20029692       2.03715625      -0.38729173
H        2.73451286       0.45490060      -1.51243801
H        3.11323931       0.39568326       0.21593534
H        1.18109529      -1.30634594      -0.79115848
18
Frame=2 idx=008959 GeodesicLength=0.19185332732603638 rxn_smarts="[C:1]([C:2]([N:3]1[C:4]([H:13])([H:14])[C@:5]1([C:6]([O:7][H:18])([H:16])[H:17])[H:15])([H:11])[H:12])([H:8])([H:9])[H:10]>>[C:1]([C:2]([C:4](/[N:3]=[C:5](/[C:6]([O:7][H:18])([H:16])[H:17])[H:15])([H:13])[H:14])([H:11])[H:12])([H:8])([H:9])[H:10]"
C       -2.17836313      -0.96016128      -0.27069179
C       -1.56418394       0.20064895       0.47156993
N       -0.08640952       0.31415537      -0.68851833
C        0.22522604       0.51503740       0.91682693
C        1.07814690       0.94353680      -0.26324956
C        2.36628808       0.16743741      -0.54131895
O        2.14436352      -1.21428400      -0.49007511
H       -3.20833448      -1.09341579       0.07432004
H       -1.63191906      -1.88189879      -0.06560578
H       -2.17847837      -0.79165676      -1.34504848
H       -1.99900116       1.16092486       0.21006798
H       -1.74564814       0.02888567       1.53698926
H       -0.05946396       1.37085970       1.52020972
H        0.56185556      -0.36865077       1.44537495
H        1.18170475       2.02842571      -0.39084889
H        2.73599871       0.47338775      -1.52994835
H        3.13379795       0.42600589       0.19388654
H        1.22442025      -1.31923811      -0.78394011
18
Frame=3 idx=008959 GeodesicLength=0.2864679607390983 rxn_smarts="[C:1]([C:2]([N:3]1[C:4]([H:13])([H:14])[C@:5]1([C:6]([O:7][H:18])([H:16])[H:17])[H:15])([H:11])[H:12])([H:8])([H:9])[H:10]>>[C:1]([C:2]([C:4](/[N:3]=[C:5](/[C:6]([O:7][H:18])([H:16])[H:17])[H:15])([H:13])[H:14])([H:11])[H:12])([H:8])([H:9])[H:10]"
C       -2.20144589      -0.95464092      -0.27153160
C       -1.56967424       0.19676644       0.47303178
N       -0.07164347       0.27665224      -0.65676866
C        0.22058254       0.49879195       0.93153799
C        1.08469832       0.93222190      -0.26296285
C        2.38235396       0.18054404      -0.55519978
O        2.18996131      -1.20537400      -0.49864386
H       -3.24059692      -1.06163259       0.05398359
H       -1.68009814      -1.88773193      -0.05241385
H       -2.18050636      -0.79355942      -1.34717225
H       -1.98631676       1.16341797       0.20202777
H       -1.77426580       0.03559341       1.53619772
H       -0.05242511       1.36337998       1.52835721
H        0.56087388      -0.37898176       1.46827545
H        1.16215809       2.01852621      -0.39442958
H        2.73499016       0.49105725      -1.54875232
H        3.15360166       0.45705973       0.16991358
H        1.26775276      -1.33209048      -0.77545036
18
Frame=4 idx=008959 GeodesicLength=0.38017393829056795 rxn_smarts="[C:1]([C:2]([N:3]1[C:4]([H:13])([H:14])[C@:5]1([C:6]([O:7][H:18])([H:16])[H:17])[H:15])([H:11])[H:12])([H:8])([H:9])[H:10]>>[C:1]([C:2]([C:4](/[N:3]=[C:5](/[C:6]([O:7][H:18])([H:16])[H:17])[H:15])([H:13])[H:14])([H:11])[H:12])([H:8])([H:9])[H:10]"
C       -2.22330868      -0.94868034      -0.27322715
C       -1.57456854       0.19267909       0.47471923
N       -0.05645783       0.23870088      -0.62307062
C        0.21605302       0.48248308       0.94796218
C        1.09074278       0.92038877      -0.26218134
C        2.39716273       0.19348415      -0.56995658
O        2.23486199      -1.19601413      -0.50738540
H       -3.27105442      -1.02887729       0.03126344
H       -1.72837228      -1.89268196      -0.03960008
H       -2.18022011      -0.79567143      -1.34974804
H       -1.97270701       1.16536560       0.19414336
H       -1.80309307       0.04264159       1.53493720
H       -0.04534811       1.35614249       1.53730977
H        0.56000602      -0.38892931       1.49338196
H        1.14174192       2.00744447      -0.39790341
H        2.73127611       0.50772012      -1.56886215
H        3.17244379       0.48864116       0.14387524
H        1.31084169      -1.34483692      -0.76565762
18
Frame=5 idx=008959 GeodesicLength=0.47297363034834555 rxn_smarts="[C:1]([C:2]([N:3]1[C:4]([H:13])([H:14])[C@:5]1([C:6]([O:7][H:18])([H:16])[H:17])[H:15])([H:11])[H:12])([H:8])([H:9])[H:10]>>[C:1]([C:2]([C:4](/[N:3]=[C:5](/[C:6]([O:7][H:18])([H:16])[H:17])[H:15])([H:13])[H:14])([H:11])[H:12])([H:8])([H:9])[H:10]"
C       -2.24372159      -0.94231069      -0.27584465
C       -1.57882768       0.18838781       0.47665801
N       -0.04085185       0.20052225      -0.58732045
C        0.21160012       0.46625350       0.96617406
C        1.09627437       0.90808126      -0.26085851
C        2.41054315       0.20613658      -0.58563715
O        2.27877387      -1.18627129      -0.51641166
H       -3.29937706      -0.99535183       0.00606340
H       -1.77646221      -1.89667503      -0.02733896
H       -2.17741833      -0.79797042      -1.35275957
H       -1.95819990       1.16674774       0.18651020
H       -1.83206856       0.04998725       1.53315438
H       -0.03826295       1.34927226       1.54708792
H        0.55921212      -0.39830866       1.52079783
H        1.12051895       1.99518868      -0.40113016
H        2.72467998       0.52318776      -1.59026365
H        3.19015181       0.52053818       0.11565570
H        1.35343576      -1.35741535      -0.75453675
18
Frame=6 idx=008959 GeodesicLength=0.5648550657769092 rxn_smarts="[C:1]([C:2]([N:3]1[C:4]([H:13])([H:14])[C@:5]1([C:6]([O:7][H:18])([H:16])[H:17])[H:15])([H:11])[H:12])([H:8])([H:9])[H:10]>>[C:1]([C:2]([C:4](/[N:3]=[C:5](/[C:6]([O:7][H:18])([H:16])[H:17])[H:15])([H:13])[H:14])([H:11])[H:12])([H:8])([H:9])[H:10]"
C       -2.26240280      -0.93558758      -0.27945911
C       -1.58240499       0.18390391       0.47888332
N       -0.02483983       0.16241075      -0.54941107
C        0.20717339       0.45028581       0.98626828
C        1.10129515       0.89535232      -0.25892277
C        2.42227901       0.21834264      -0.60228565
O        2.32131637      -1.17625156      -0.52586187
H       -3.32513480      -0.96131282      -0.02172298
H       -1.82399802      -1.89965497      -0.01585983
H       -2.17185590      -0.80044668      -1.35616688
H       -1.94286209       1.16755197       0.17924991
H       -1.86113088       0.05755497       1.53077902
H       -0.03122219       1.34296763       1.55771318
H        0.55843601      -0.40687746       1.55066958
H        1.09865349       1.98180973      -0.40394757
H        2.71497558       0.53725307      -1.61292480
H        3.20649915       0.55243954       0.08511850
H        1.39522334      -1.36974128      -0.74211928
18
Frame=7 idx=008959 GeodesicLength=0.6558521516431127 rxn_smarts="[C:1]([C:2]([N:3]1[C:4]([H:13])([H:14])[C@:5]1([C:6]([O:7][H:18])([H:16])[H:17])[H:15])([H:11])[H:12])([H:8])([H:9])[H:10]>>[C:1]([C:2]([C:4](/[N:3]=[C:5](/[C:6]([O:7][H:18])([H:16])[H:17])[H:15])([H:13])[H:14])([H:11])[H:12])([H:8])([H:9])[H:10]"
C       -2.27908848      -0.92855713      -0.28412149
C       -1.58526801       0.17923866       0.48142308
N       -0.00843809       0.12466292      -0.50925211
C        0.20271103       0.43475131       1.00831907
C        1.10581554       0.88225990      -0.25630498
C        2.43218580       0.22995874      -0.61993131
O        2.36213418      -1.16606567      -0.53590348
H       -3.34794749      -0.92700559      -0.05216572
H       -1.87063094      -1.90157841      -0.00537082
H       -2.16330799      -0.80309771      -1.35992477
H       -1.92675803       1.16777816       0.17246660
H       -1.89022097       0.06527271       1.52773884
H       -0.02426845       1.33738872       1.56920926
H        0.55759894      -0.41442486       1.58309492
H        1.07629186       1.96737131      -0.40617760
H        2.70198168       0.54973159      -1.63680229
H        3.22129303       0.58405453       0.05215245
H        1.43591638      -1.38173919      -0.72844966
18
Frame=8 idx=008959 GeodesicLength=0.7460328002915296 rxn_smarts="[C:1]([C:2]([N:3]1[C:4]([H:13])([H:14])[C@:5]1([C:6]([O:7][H:18])([H:16])[H:17])[H:15])([H:11])[H:12])([H:8])([H:9])[H:10]>>[C:1]([C:2]([C:4](/[N:3]=[C:5](/[C:6]([O:7][H:18])([H:16])[H:17])[H:15])([H:13])[H:14])([H:11])[H:12])([H:8])([H:9])[H:10]"
C       -2.29350008      -0.92126664      -0.28986218
C       -1.58738842       0.17440008       0.48430700
N        0.00832273       0.08758609      -0.46676893
C        0.19812287       0.41983185       1.03238526
C        1.10985010       0.86887036      -0.25294101
C        2.44008291       0.24083197      -0.63860846
O        2.40087455      -1.15586382      -0.54673535
H       -3.36739395      -0.89266724      -0.08532113
H       -1.91599514      -1.90241897       0.00391444
H       -2.15153156      -0.80588949      -1.36394105
H       -1.90997730       1.16742447       0.16626957
H       -1.91926616       0.07305256       1.52395862
H       -0.01747163       1.33270497       1.58158883
H        0.55658515      -0.42072765       1.61814950
H        1.05359602       1.95196302      -0.40763020
H        2.68551654       0.56045738      -1.66180986
H        3.23434177       0.61507579       0.01667513
H        1.47523160      -1.39336474      -0.71363017
18
Frame=9 idx=008959 GeodesicLength=0.8351764174232524 rxn_smarts="[C:1]([C:2]([N:3]1[C:4]([H:13])([H:14])[C@:5]1([C:6]([O:7][H:18])([H:16])[H:17])[H:15])([H:11])[H:12])([H:8])([H:9])[H:10]>>[C:1]([C:2]([C:4](/[N:3]=[C:5](/[C:6]([O:7][H:18])([H:16])[H:17])[H:15])([H:13])[H:14])([H:11])[H:12])([H:8])([H:9])[H:10]"
C       -2.30531874      -0.91385234      -0.29667203
C       -1.58871717       0.16937156       0.48752439
N        0.02543477       0.05146096      -0.42200056
C        0.19340501       0.40578913       1.05833202
C        1.11350986       0.85531486      -0.24881392
C        2.44563994       0.25083216      -0.65818505
O        2.43679621      -1.14578538      -0.55863374
H       -3.38309569      -0.85844623      -0.12099665
H       -1.95966502      -1.90229181       0.01175576
H       -2.13616748      -0.80915424      -1.36824072
H       -1.89270486       1.16644070       0.16073107
H       -1.94816788       0.08086080       1.51951222
H       -0.01079992       1.32914889       1.59474803
H        0.55538687      -0.42541104       1.65575757
H        1.03113914       1.93584923      -0.40803691
H        2.66530801       0.56938327      -1.68760984
H        3.24529123       0.64499259      -0.02103137
H        1.51272572      -1.40450311      -0.69814027
18
Frame=10 idx=008959 GeodesicLength=0.9236726624946701 rxn_smarts="[C:1]([C:2]([N:3]1[C:4]([H:13])([H:14])[C@:5]1([C:6]([O:7][H:18])([H:16])[H:17])[H:15])([H:11])[H:12])([H:8])([H:9])[H:10]>>[C:1]([C:2]([C:4](/[N:3]=[C:5](/[C:6]([O:7][H:18])([H:16])[H:17])[H:15])([H:13])[H:14])([H:11])[H:12])([H:8])([H:9])[H:10]"
C       -2.31437008      -0.90632641      -0.30463508
C       -1.58926031       0.16420907       0.49113965
N        0.04290143       0.01667099      -0.37482627
C        0.18842433       0.39274121       1.08639247
C        1.11677455       0.84164452      -0.24375702
C        2.44884464       0.25980745      -0.67882685
O        2.46988899      -1.13601284      -0.57172847
H       -3.39476343      -0.82468707      -0.15943352
H       -2.00135092      -1.90113950       0.01796566
H       -2.11713511      -0.81256031      -1.37268681
H       -1.87491737       1.16494861       0.15598379
H       -1.97693748       0.08854122       1.51420884
H       -0.00436175       1.32678476       1.60885772
H        0.55380882      -0.42844993       1.69604005
H        1.00870085       1.91904397      -0.40726577
H        2.64125885       0.57632556      -1.71435146
H        3.25422277       0.67365459      -0.06140677
H        1.54827119      -1.41519590      -0.68167016
18
Frame=11 idx=008959 GeodesicLength=1.0116338824147095 rxn_smarts="[C:1]([C:2]([N:3]1[C:4]([H:13])([H:14])[C@:5]1([C:6]([O:7][H:18])([H:16])[H:17])[H:15])([H:11])[H:12])([H:8])([H:9])[H:10]>>[C:1]([C:2]([C:4](/[N:3]=[C:5](/[C:6]([O:7][H:18])([H:16])[H:17])[H:15])([H:13])[H:14])([H:11])[H:12])([H:8])([H:9])[H:10]"
C       -2.32038753      -0.89877258      -0.31379992
C       -1.58899218       0.15892886       0.49517205
N        0.06073493      -0.01642897      -0.32519596
C        0.18312280       0.38089509       1.11662136
C        1.11969907       0.82797644      -0.23766252
C        2.44951307       0.26761509      -0.70055074
O        2.49974155      -1.12675082      -0.58621639
H       -3.40211575      -0.79165593      -0.20067282
H       -2.04063312      -1.89903288       0.02235893
H       -2.09417313      -0.81606843      -1.37723540
H       -1.85670385       1.16299489       0.15213204
H       -2.00552728       0.09595061       1.50797568
H        0.00180097       1.32576787       1.62396289
H        0.55175695      -0.42963867       1.73901638
H        0.98649322       1.90173387      -0.40509757
H        2.61316397       0.58120037      -1.74192431
H        3.26101872       0.70069500      -0.10455132
H        1.58148758      -1.42540981      -0.66433237
18
Frame=12 idx=008959 GeodesicLength=1.099208220638014 rxn_smarts="[C:1]([C:2]([N:3]1[C:4]([H:13])([H:14])[C@:5]1([C:6]([O:7][H:18])([H:16])[H:17])[H:15])([H:11])[H:12])([H:8])([H:9])[H:10]>>[C:1]([C:2]([C:4](/[N:3]=[C:5](/[C:6]([O:7][H:18])([H:16])[H:17])[H:15])([H:13])[H:14])([H:11])[H:12])([H:8])([H:9])[H:10]"
C       -2.32307943      -0.89129545      -0.32421823
C       -1.58787837       0.15355167       0.49963538
N        0.07895136      -0.04746478      -0.27305544
C        0.17743179       0.37047798       1.14908269
C        1.12235937       0.81446333      -0.23038706
C        2.44742906       0.27409093      -0.72339227
O        2.52588647      -1.11824216      -0.60232349
H       -3.40480733      -0.75959041      -0.24476200
H       -2.07708983      -1.89609411       0.02469805
H       -2.06694601      -0.81965897      -1.38183313
H       -1.83815240       1.16063798       0.14927413
H       -2.03390936       0.10293414       1.50073920
H        0.00763039       1.32627679       1.64013508
H        0.54913553      -0.42874439       1.78471117
H        0.96477680       1.88416275      -0.40124864
H        2.58071537       0.58393284      -1.77018973
H        3.26554598       0.72571433      -0.15061598
H        1.61200062      -1.43515245      -0.64624976
18
Frame=13 idx=008959 GeodesicLength=1.186580648585521 rxn_smarts="[C:1]([C:2]([N:3]1[C:4]([H:13])([H:14])[C@:5]1([C:6]([O:7][H:18])([H:16])[H:17])[H:15])([H:11])[H:12])([H:8])([H:9])[H:10]>>[C:1]([C:2]([C:4](/[N:3]=[C:5](/[C:6]([O:7][H:18])([H:16])[H:17])[H:15])([H:13])[H:14])([H:11])[H:12])([H:8])([H:9])[H:10]"
C       -2.32207395      -0.88396755      -0.33595501
C       -1.58588299       0.14810318       0.50457231
N        0.09753609      -0.07598832      -0.21834747
C        0.17123875       0.36175457       1.18383051
C        1.12478184       0.80129203      -0.22179541
C        2.44236600       0.27905504      -0.74736536
O        2.54778690      -1.11078315      -0.62027922
H       -3.40241206      -0.72877245      -0.29176927
H       -2.11021488      -1.89243825       0.02475790
H       -2.03500985      -0.82322632      -1.38639801
H       -1.81938400       1.15793797       0.14754697
H       -2.06201757       0.10924239       1.49243866
H        0.01303119       1.32847935       1.65744446
H        0.54581452      -0.42550565       1.83312078
H        0.94376588       1.86661945      -0.39544979
H        2.54360719       0.58441362      -1.79902271
H        3.26773172       0.74825641      -0.19972642
H        1.63933525      -1.44447233      -0.62760293
18
Frame=14 idx=008959 GeodesicLength=1.2739919336280972 rxn_smarts="[C:1]([C:2]([N:3]1[C:4]([H:13])([H:14])[C@:5]1([C:6]([O:7][H:18])([H:16])[H:17])[H:15])([H:11])[H:12])([H:8])([H:9])[H:10]>>[C:1]([C:2]([C:4](/[N:3]=[C:5](/[C:6]([O:7][H:18])([H:16])[H:17])[H:15])([H:13])[H:14])([H:11])[H:12])([H:8])([H:9])[H:10]"
C       -2.31713523      -0.87687748      -0.34903494
C       -1.58296349       0.14261372       0.50998059
N        0.11653405      -0.10175692      -0.16102345
C        0.16448038       0.35489754       1.22093147
C        1.12707907       0.78857392      -0.21174217
C        2.43412157       0.28239486      -0.77247414
O        2.56501000      -1.10462041      -0.64032584
H       -3.39464637      -0.69940610      -0.34164950
H       -2.13962089      -1.88821581       0.02224837
H       -1.99816891      -0.82674214      -1.39089203
H       -1.80045848       1.15497701       0.14701197
H       -2.08985217       0.11475630       1.48297564
H        0.01795861       1.33253310       1.67595974
H        0.54168444      -0.41973436       1.88430041
H        0.92376875       1.84934715      -0.38743629
H        2.50153637       0.58265362      -1.82824715
H        3.26744523       0.76801042      -0.25199309
H        1.66322709      -1.45340442      -0.60858959
18
Frame=15 idx=008959 GeodesicLength=1.3617109113840808 rxn_smarts="[C:1]([C:2]([N:3]1[C:4]([H:13])([H:14])[C@:5]1([C:6]([O:7][H:18])([H:16])[H:17])[H:15])([H:11])[H:12])([H:8])([H:9])[H:10]>>[C:1]([C:2]([C:4](/[N:3]=[C:5](/[C:6]([O:7][H:18])([H:16])[H:17])[H:15])([H:13])[H:14])([H:11])[H:12])([H:8])([H:9])[H:10]"
C       -2.30796078      -0.87009325      -0.36349659
C       -1.57907396       0.13710566       0.51587184
N        0.13596798      -0.12445222      -0.10102424
C        0.15705288       0.35012857       1.26044067
C        1.12931822       0.77647659      -0.20007713
C        2.42249423       0.28397278      -0.79870586
O        2.57704324      -1.10005558      -0.66273030
H       -3.38116427      -0.67175108      -0.39433579
H       -2.16483347      -1.88358552       0.01686995
H       -1.95614602      -0.83010097      -1.39526721
H       -1.78146268       1.15182455       0.14775253
H       -2.11737182       0.11928533       1.47227038
H        0.02232261       1.33860516       1.69576428
H        0.53661221      -0.41119696       1.93827405
H        0.90504115       1.83264782      -0.37695153
H        2.45422953       0.57862909      -1.85768338
H        3.26461762       0.78458833      -0.30748564
H        1.68331333      -1.46202831      -0.58948603
18
Frame=16 idx=008959 GeodesicLength=1.450095190850203 rxn_smarts="[C:1]([C:2]([N:3]1[C:4]([H:13])([H:14])[C@:5]1([C:6]([O:7][H:18])([H:16])[H:17])[H:15])([H:11])[H:12])([H:8])([H:9])[H:10]>>[C:1]([C:2]([C:4](/[N:3]=[C:5](/[C:6]([O:7][H:18])([H:16])[H:17])[H:15])([H:13])[H:14])([H:11])[H:12])([H:8])([H:9])[H:10]"
C       -2.29423857      -0.86369178      -0.37940744
C       -1.57414516       0.13160460       0.52225197
N        0.15589722      -0.14375822      -0.03825727
C        0.14887740       0.34766958       1.30243886
C        1.13160353       0.76517986      -0.18660265
C        2.40721516       0.28364983      -0.82607039
O        2.58335065      -1.09742435      -0.68774630
H       -3.36161436      -0.64598070      -0.44983953
H       -2.18540081      -1.87873664       0.00828298
H       -1.90857888      -0.83324630      -1.39951328
H       -1.76243479       1.14857990       0.14986277
H       -2.14455764       0.12264319       1.46025216
H        0.02605371       1.34684701       1.71698395
H        0.53047667      -0.39967218       1.99508357
H        0.88786371       1.81683891      -0.36368956
H        2.40119835       0.57232762      -1.88714571
H        3.25912533       0.79765036      -0.36636497
H        1.69930848      -1.47048071      -0.57051918
