14
Frame=0 idx=002382 GeodesicLength=0.0 rxn_smarts="[C:1]([C:2]([O:3][C:4]([C:5]#[C:6][H:14])([H:12])[H:13])([H:10])[H:11])([H:7])([H:8])[H:9]>>[C:1]([C:2]([O:3][C:4]([C:6](=[C:5])[H:14])([H:12])[H:13])([H:10])[H:11])([H:7])([H:8])[H:9]"
C        2.14425251       0.38387282      -0.26556904
C        0.76334970      -0.22177352      -0.19709385
O       -0.01251197       0.53485075       0.71301571
C       -1.29926026       0.09903144       0.88486212
C       -2.34733625       0.94596920      -0.22496855
C       -2.35558131      -0.21765561      -0.67352555
H        2.76886632      -0.18528155      -0.95570691
H        2.08995706       1.41505107      -0.61516032
H        2.61785800       0.37647240       0.71673547
H        0.80922215      -1.26661336       0.14199625
H        0.28423430      -0.20777404      -1.18376698
H       -1.71669574       0.52839524       1.78854049
H       -1.34382507      -0.99527657       0.99204207
H       -2.40252947      -1.18926826      -1.12140092
14
Frame=1 idx=002382 GeodesicLength=0.10022899457330592 rxn_smarts="[C:1]([C:2]([O:3][C:4]([C:5]#[C:6][H:14])([H:12])[H:13])([H:10])[H:11])([H:7])([H:8])[H:9]>>[C:1]([C:2]([O:3][C:4]([C:6](=[C:5])[H:14])([H:12])[H:13])([H:10])[H:11])([H:7])([H:8])[H:9]"
C        2.15385714       0.40039932      -0.26606813
C        0.79166060      -0.24367974      -0.17690872
O       -0.01374791       0.53119517       0.68956581
C       -1.29445989       0.07464626       0.86582506
C       -2.33841489       0.97688709      -0.21658211
C       -2.40859903      -0.18275741      -0.66508733
H        2.80223237      -0.18259194      -0.92188049
H        2.07136645       1.41092309      -0.66680319
H        2.61887078       0.45716646       0.71875756
H        0.86643164      -1.26806350       0.21528802
H        0.31851374      -0.29174062      -1.16560774
H       -1.69186162       0.46760542       1.79593497
H       -1.33840632      -1.02204473       0.94487464
H       -2.53744307      -1.12794487      -1.15130835
14
Frame=2 idx=002382 GeodesicLength=0.19602004637477127 rxn_smarts="[C:1]([C:2]([O:3][C:4]([C:5]#[C:6][H:14])([H:12])[H:13])([H:10])[H:11])([H:7])([H:8])[H:9]>>[C:1]([C:2]([O:3][C:4]([C:6](=[C:5])[H:14])([H:12])[H:13])([H:10])[H:11])([H:7])([H:8])[H:9]"
C        2.16324354       0.41604776      -0.26659964
C        0.82018910      -0.26391598      -0.15631631
O       -0.01559047       0.52707770       0.66407170
C       -1.28988896       0.04950006       0.84452136
C       -2.33103323       1.00409516      -0.20847541
C       -2.46171413      -0.14963418      -0.65394020
H        2.83593400      -0.17885145      -0.88622017
H        2.05483234       1.40249599      -0.71801932
H        2.61641048       0.53675072       0.71801817
H        0.92138439      -1.26423894       0.28852174
H        0.35602552      -0.37390851      -1.14455271
H       -1.66635601       0.40458516       1.79943867
H       -1.33217564      -1.04897024       0.89458666
H       -2.67126094      -1.06103325      -1.17503453
14
Frame=3 idx=002382 GeodesicLength=0.288307135710817 rxn_smarts="[C:1]([C:2]([O:3][C:4]([C:5]#[C:6][H:14])([H:12])[H:13])([H:10])[H:11])([H:7])([H:8])[H:9]>>[C:1]([C:2]([O:3][C:4]([C:6](=[C:5])[H:14])([H:12])[H:13])([H:10])[H:11])([H:7])([H:8])[H:9]"
C        2.17279229       0.43080040      -0.26675191
C        0.84892121      -0.28224705      -0.13574870
O       -0.01812634       0.52271377       0.63561509
C       -1.28547948       0.02369142       0.82052499
C       -2.32558878       1.02755215      -0.20100542
C       -2.51614930      -0.11886550      -0.63915680
H        2.87033016      -0.17400722      -0.84811550
H        2.04140488       1.38998219      -0.76813052
H        2.61052414       0.61467071       0.71510430
H        0.97349311      -1.25513872       0.36096566
H        0.39715428      -0.45356702      -1.12123380
H       -1.63968754       0.33955473       1.79864489
H       -1.32489275      -1.07588528       0.84080705
H       -2.80469589      -0.98925458      -1.19151934
14
Frame=4 idx=002382 GeodesicLength=0.37782849809067537 rxn_smarts="[C:1]([C:2]([O:3][C:4]([C:5]#[C:6][H:14])([H:12])[H:13])([H:10])[H:11])([H:7])([H:8])[H:9]>>[C:1]([C:2]([O:3][C:4]([C:6](=[C:5])[H:14])([H:12])[H:13])([H:10])[H:11])([H:7])([H:8])[H:9]"
C        2.18255566       0.44469264      -0.26647868
C        0.87777875      -0.29883546      -0.11519709
O       -0.02152598       0.51803763       0.60336542
C       -1.28124188      -0.00287566       0.79367592
C       -2.32256515       1.04747013      -0.19375606
C       -2.57330946      -0.09047006      -0.61918108
H        2.90555401      -0.16818328      -0.80683139
H        2.03137238       1.37314888      -0.81769981
H        2.60103200       0.69151532       0.70997837
H        1.02249636      -1.24076107       0.43306059
H        0.44212414      -0.53133931      -1.09562645
H       -1.61116986       0.27231337       1.79352933
H       -1.31667009      -1.10280114       0.78299017
H       -2.93643088      -0.91191200      -1.20182925
14
Frame=5 idx=002382 GeodesicLength=0.46540375454020516 rxn_smarts="[C:1]([C:2]([O:3][C:4]([C:5]#[C:6][H:14])([H:12])[H:13])([H:10])[H:11])([H:7])([H:8])[H:9]>>[C:1]([C:2]([O:3][C:4]([C:6](=[C:5])[H:14])([H:12])[H:13])([H:10])[H:11])([H:7])([H:8])[H:9]"
C        2.19374713       0.45830337      -0.26436147
C        0.90773304      -0.31345410      -0.09506327
O       -0.02522892       0.51247099       0.56642199
C       -1.27694364      -0.03053284       0.76130087
C       -2.32048571       1.06463428      -0.18956645
C       -2.63122924      -0.06324322      -0.59759352
H        2.94295684      -0.16002646      -0.76101867
H        2.02658752       1.35315566      -0.86443767
H        2.58850540       0.76675183       0.70444110
H        1.06858062      -1.22127908       0.50387024
H        0.49294140      -0.60641317      -1.06855325
H       -1.58143539       0.20151505       1.78116004
H       -1.30749591      -1.12986876       0.71711302
H       -3.07823315      -0.83201355      -1.19371296
14
Frame=6 idx=002382 GeodesicLength=0.5507430379582712 rxn_smarts="[C:1]([C:2]([O:3][C:4]([C:5]#[C:6][H:14])([H:12])[H:13])([H:10])[H:11])([H:7])([H:8])[H:9]>>[C:1]([C:2]([O:3][C:4]([C:6](=[C:5])[H:14])([H:12])[H:13])([H:10])[H:11])([H:7])([H:8])[H:9]"
C        2.20554369       0.47123061      -0.26111269
C        0.93769522      -0.32632397      -0.07525345
O       -0.02980397       0.50621077       0.52379499
C       -1.27283347      -0.05899329       0.72454631
C       -2.32097286       1.07864549      -0.18646701
C       -2.69277602      -0.03802139      -0.56940602
H        2.98133065      -0.15041739      -0.71057741
H        2.02670486       1.32911330      -0.90988844
H        2.57226905       0.84073916       0.69730311
H        1.11035386      -1.19653946       0.57408048
H        0.54840239      -0.67968970      -1.03940727
H       -1.54919257       0.12803556       1.76271391
H       -1.29775083      -1.15655998       0.64445340
H       -3.21897001      -0.74742970      -1.17477992
14
Frame=7 idx=002382 GeodesicLength=0.6339760113035586 rxn_smarts="[C:1]([C:2]([O:3][C:4]([C:5]#[C:6][H:14])([H:12])[H:13])([H:10])[H:11])([H:7])([H:8])[H:9]>>[C:1]([C:2]([O:3][C:4]([C:6](=[C:5])[H:14])([H:12])[H:13])([H:10])[H:11])([H:7])([H:8])[H:9]"
C        2.21862907       0.48368042      -0.25561664
C        0.96785982      -0.33723143      -0.05619606
O       -0.03483327       0.49893271       0.47439761
C       -1.26882266      -0.08811298       0.68144839
C       -2.32309763       1.08979800      -0.18705611
C       -2.75643578      -0.01430399      -0.53621502
H        3.02106096      -0.13874107      -0.65437005
H        2.03340966       1.30191297      -0.95211375
H        2.55267008       0.91254714       0.68995028
H        1.14697073      -1.16680351       0.64267947
H        0.60939451      -0.75029317      -1.00872921
H       -1.51490662       0.05174576       1.73576278
H       -1.28761280      -1.18237848       0.56221710
H       -3.36428604      -0.66075239      -1.13615880
14
Frame=8 idx=002382 GeodesicLength=0.7149216399494245 rxn_smarts="[C:1]([C:2]([O:3][C:4]([C:5]#[C:6][H:14])([H:12])[H:13])([H:10])[H:11])([H:7])([H:8])[H:9]>>[C:1]([C:2]([O:3][C:4]([C:6](=[C:5])[H:14])([H:12])[H:13])([H:10])[H:11])([H:7])([H:8])[H:9]"
C        2.23175181       0.49564074      -0.24897473
C        0.99731979      -0.34665601      -0.03713811
O       -0.04052173       0.48991017       0.41827393
C       -1.26508500      -0.11829106       0.63324057
C       -2.32747703       1.09811967      -0.18869576
C       -2.82222641       0.00826596      -0.49444636
H        3.06070742      -0.12513586      -0.59217068
H        2.04526330       1.27008439      -0.99358522
H        2.52861758       0.98406843       0.67996635
H        1.17778600      -1.13159297       0.71117974
H        0.67476767      -0.82005683      -0.97452273
H       -1.47790094      -0.02805811       1.70137117
H       -1.27785300      -1.20718136       0.47058230
H       -3.50514945      -0.56911716      -1.08508048
14
Frame=9 idx=002382 GeodesicLength=0.7926761181326781 rxn_smarts="[C:1]([C:2]([O:3][C:4]([C:5]#[C:6][H:14])([H:12])[H:13])([H:10])[H:11])([H:7])([H:8])[H:9]>>[C:1]([C:2]([O:3][C:4]([C:6](=[C:5])[H:14])([H:12])[H:13])([H:10])[H:11])([H:7])([H:8])[H:9]"
C        2.24664328       0.50718762      -0.23811296
C        1.02643568      -0.35389886      -0.01922407
O       -0.04546012       0.47929802       0.35462572
C       -1.26148977      -0.14831804       0.57504891
C       -2.33099098       1.10441176      -0.20066626
C       -2.88430184       0.03062533      -0.45391934
H        3.10085375      -0.10892395      -0.52279985
H        2.06580371       1.23680663      -1.02806463
H        2.50191992       1.05134900       0.67202083
H        1.20097833      -1.09239390       0.77627415
H        0.74569961      -0.88559780      -0.93883592
H       -1.44156671      -0.11034484       1.65353623
H       -1.26823479      -1.22915250       0.36430373
H       -3.65629007      -0.48104847      -0.99418655
14
Frame=10 idx=002382 GeodesicLength=0.867438762984214 rxn_smarts="[C:1]([C:2]([O:3][C:4]([C:5]#[C:6][H:14])([H:12])[H:13])([H:10])[H:11])([H:7])([H:8])[H:9]>>[C:1]([C:2]([O:3][C:4]([C:6](=[C:5])[H:14])([H:12])[H:13])([H:10])[H:11])([H:7])([H:8])[H:9]"
C        2.25883127       0.51829188      -0.22826193
C        1.05255915      -0.36002793      -0.00031199
O       -0.05089925       0.46560497       0.28698307
C       -1.25840962      -0.17997071       0.51520439
C       -2.33662717       1.10740960      -0.20971763
C       -2.94516331       0.05175100      -0.40061538
H        3.13683702      -0.09032999      -0.44964562
H        2.08811259       1.19775843      -1.06391534
H        2.46993854       1.11925498       0.65711048
H        1.21694199      -1.04759383       0.84161743
H        0.81679250      -0.95084294      -0.89634014
H       -1.40308983      -0.19676572       1.60078324
H       -1.26013621      -1.24916282       0.25105081
H       -3.78568768      -0.38537692      -0.90394139
14
Frame=11 idx=002382 GeodesicLength=0.9383355480339104 rxn_smarts="[C:1]([C:2]([O:3][C:4]([C:5]#[C:6][H:14])([H:12])[H:13])([H:10])[H:11])([H:7])([H:8])[H:9]>>[C:1]([C:2]([O:3][C:4]([C:6](=[C:5])[H:14])([H:12])[H:13])([H:10])[H:11])([H:7])([H:8])[H:9]"
C        2.27072550       0.52848866      -0.21534203
C        1.07582724      -0.36405547       0.01778754
O       -0.05510315       0.45038485       0.21487741
C       -1.25571427      -0.21066189       0.44804414
C       -2.34092673       1.10788618      -0.23007964
C       -2.99821939       0.07210104      -0.34862806
H        3.16938605      -0.07003252      -0.37189544
H        2.11663156       1.15752306      -1.09271221
H        2.43594033       1.18171653       0.64231325
H        1.22335234      -0.99978962       0.90246805
H        0.88816594      -1.01091891      -0.85061398
H       -1.36728874      -0.28360292       1.53642570
H       -1.25265596      -1.26429114       0.12692752
H       -3.91012073      -0.29474785      -0.77957226
14
Frame=12 idx=002382 GeodesicLength=1.0065170566306723 rxn_smarts="[C:1]([C:2]([O:3][C:4]([C:5]#[C:6][H:14])([H:12])[H:13])([H:10])[H:11])([H:7])([H:8])[H:9]>>[C:1]([C:2]([O:3][C:4]([C:6](=[C:5])[H:14])([H:12])[H:13])([H:10])[H:11])([H:7])([H:8])[H:9]"
C        2.27900668       0.53816573      -0.20382958
C        1.09476932      -0.36666565       0.03699584
O       -0.05885120       0.43244599       0.14406634
C       -1.25347631      -0.24255044       0.38117992
C       -2.34538938       1.10535751      -0.24907121
C       -3.04338773       0.09127675      -0.28978830
H        3.19520453      -0.04726522      -0.29432282
H        2.14478496       1.11353538      -1.12045749
H        2.39897164       1.24219386       0.62048129
H        1.22235538      -0.94801386       0.96128228
H        0.95514899      -1.06775309      -0.79785379
H       -1.33288800      -0.37401883       1.46809580
H       -1.24641259      -1.27570086      -0.00106808
H       -4.00983627      -0.20100727      -0.65571018
14
Frame=13 idx=002382 GeodesicLength=1.0720459401080853 rxn_smarts="[C:1]([C:2]([O:3][C:4]([C:5]#[C:6][H:14])([H:12])[H:13])([H:10])[H:11])([H:7])([H:8])[H:9]>>[C:1]([C:2]([O:3][C:4]([C:6](=[C:5])[H:14])([H:12])[H:13])([H:10])[H:11])([H:7])([H:8])[H:9]"
C        2.28508784       0.54658289      -0.19180237
C        1.10913562      -0.36725014       0.05637272
O       -0.06160742       0.41380959       0.07448573
C       -1.25170614      -0.27359213       0.31223282
C       -2.34968516       1.10047077      -0.27355230
C       -3.07850619       0.10918912      -0.23175059
H        3.21485600      -0.02369188      -0.21700922
H        2.17441198       1.06798671      -1.14324286
H        2.36141653       1.29746391       0.59550792
H        1.21290975      -0.89367326       1.01588742
H        1.01677469      -1.11911076      -0.74010282
H       -1.30201669      -0.46499758       1.39316909
H       -1.24034906      -1.28130065      -0.13312254
H       -4.09072175      -0.11188657      -0.51707299
14
Frame=14 idx=002382 GeodesicLength=1.136351719664596 rxn_smarts="[C:1]([C:2]([O:3][C:4]([C:5]#[C:6][H:14])([H:12])[H:13])([H:10])[H:11])([H:7])([H:8])[H:9]>>[C:1]([C:2]([O:3][C:4]([C:6](=[C:5])[H:14])([H:12])[H:13])([H:10])[H:11])([H:7])([H:8])[H:9]"
C        2.28828196       0.55418661      -0.18022747
C        1.11892497      -0.36608709       0.07613758
O       -0.06372606       0.39432100       0.00791884
C       -1.25016547      -0.30506372       0.24323839
C       -2.35415005       1.09222820      -0.30056344
C       -3.10385223       0.12480151      -0.17310890
H        3.22790451       0.00112513      -0.14103917
H        2.20392340       1.02068471      -1.16241165
H        2.32339247       1.34860535       0.56618999
H        1.19610711      -0.83677107       1.06664028
H        1.07161939      -1.16497451      -0.67747695
H       -1.27413698      -0.55744537       1.31371587
H       -1.23401074      -1.28218362      -0.26603271
H       -4.15011227      -0.02342713      -0.37298066
14
Frame=15 idx=002382 GeodesicLength=1.199821926407828 rxn_smarts="[C:1]([C:2]([O:3][C:4]([C:5]#[C:6][H:14])([H:12])[H:13])([H:10])[H:11])([H:7])([H:8])[H:9]>>[C:1]([C:2]([O:3][C:4]([C:6](=[C:5])[H:14])([H:12])[H:13])([H:10])[H:11])([H:7])([H:8])[H:9]"
C        2.28894388       0.56080557      -0.16854450
C        1.12403759      -0.36311913       0.09583047
O       -0.06542149       0.37478327      -0.05615642
C       -1.24882652      -0.33657537       0.17369982
C       -2.35956161       1.08046404      -0.33158834
C       -3.11972465       0.13778520      -0.11581232
H        3.23463678       0.02647023      -0.06637319
H        2.23354962       0.97234364      -1.17703979
H        2.28564528       1.39501831       0.53396078
H        1.17169751      -0.77777001       1.11291700
H        1.11915842      -1.20497478      -0.61116963
H       -1.24911310      -0.64969640       1.22952527
H       -1.22678671      -1.27856165      -0.39819798
H       -4.18823502       0.06302709      -0.22105118
14
Frame=16 idx=002382 GeodesicLength=1.263003464401467 rxn_smarts="[C:1]([C:2]([O:3][C:4]([C:5]#[C:6][H:14])([H:12])[H:13])([H:10])[H:11])([H:7])([H:8])[H:9]>>[C:1]([C:2]([O:3][C:4]([C:6](=[C:5])[H:14])([H:12])[H:13])([H:10])[H:11])([H:7])([H:8])[H:9]"
C        2.28712070       0.56631054      -0.15677337
C        1.12435687      -0.35844150       0.11503145
O       -0.06703190       0.35554389      -0.11824904
C       -1.24772179      -0.36789033       0.10421009
C       -2.36679872       1.06565404      -0.36464289
C       -3.12673079       0.14895958      -0.05769441
H        3.23524230       0.05200436       0.00697325
H        2.26301492       0.92298040      -1.18720075
H        2.24828957       1.43683439       0.49903032
H        1.13979378      -0.71701457       1.15425134
H        1.15894176      -1.23928060      -0.54203550
H       -1.22575637      -0.74079004       1.14148571
H       -1.21889180      -1.27072727      -0.52787995
H       -4.20382854       0.14585712      -0.06650627
