13
Frame=0 idx=003629 GeodesicLength=0.0 rxn_smarts="[O:1]([N:2]=[C:3]1[C:4]([H:8])([H:9])[C:5]([H:10])([H:11])[C:6]1([H:12])[H:13])[H:7]>>[O:1]([N:2]=[C:3]=[C:6]([C:5]([C:4]([H:8])([H:9])[H:12])([H:10])[H:11])[H:13])[H:7]"
O        2.53659649      -0.34456233      -0.58678751
N        1.79502181       0.27260961       0.44055814
C        0.52333252       0.34411039       0.02133226
C       -0.50135219      -0.88078156      -0.22999026
C       -1.64469668       0.07460113       0.11355068
C       -0.60887363       1.06373809       0.56561304
H        3.43427926      -0.28818776      -0.25597202
H       -0.43958471      -1.32708849      -1.21823634
H       -0.32988402      -1.62829001       0.53835684
H       -2.30681419       0.39465782      -0.69405806
H       -2.27069544      -0.30020988       0.92928397
H        0.46701728       0.82675930      -0.99165221
H       -0.65434648       1.79264368       1.36800149
13
Frame=1 idx=003629 GeodesicLength=0.14359227859723508 rxn_smarts="[O:1]([N:2]=[C:3]1[C:4]([H:8])([H:9])[C:5]([H:10])([H:11])[C:6]1([H:12])[H:13])[H:7]>>[O:1]([N:2]=[C:3]=[C:6]([C:5]([C:4]([H:8])([H:9])[H:12])([H:10])[H:11])[H:13])[H:7]"
O        2.54938712      -0.33971538      -0.57172729
N        1.80610100       0.27774113       0.45287310
C        0.53719326       0.34276049       0.04836926
C       -0.50546988      -0.88210025      -0.24564376
C       -1.64052941       0.07497048       0.12039894
C       -0.60212899       1.07350645       0.55069612
H        3.44662143      -0.28344933      -0.23943528
H       -0.46399130      -1.32452809      -1.23672952
H       -0.33308460      -1.64256488       0.51030895
H       -2.31249039       0.39389766      -0.67942298
H       -2.25618352      -0.29720808       0.94462853
H        0.42663483       0.80414156      -1.00717236
H       -0.65205956       1.80254824       1.35285629
13
Frame=2 idx=003629 GeodesicLength=0.2861341780175184 rxn_smarts="[O:1]([N:2]=[C:3]1[C:4]([H:8])([H:9])[C:5]([H:10])([H:11])[C:6]1([H:12])[H:13])[H:7]>>[O:1]([N:2]=[C:3]=[C:6]([C:5]([C:4]([H:8])([H:9])[H:12])([H:10])[H:11])[H:13])[H:7]"
O        2.56237994      -0.33454628      -0.55568254
N        1.81612505       0.28240432       0.46573664
C        0.55059556       0.34206264       0.07356427
C       -0.50954690      -0.88305712      -0.26252814
C       -1.63601842       0.07484292       0.12795050
C       -0.59490567       1.08293772       0.53473411
H        3.45860446      -0.27980827      -0.22016076
H       -0.49049925      -1.32173162      -1.25603221
H       -0.33501227      -1.65628936       0.48050691
H       -2.31921925       0.39247442      -0.66274279
H       -2.23958220      -0.29517582       0.96150826
H        0.38642280       0.78253618      -1.02262019
H       -0.64934385       1.81335027       1.33576591
13
Frame=3 idx=003629 GeodesicLength=0.4280666216785911 rxn_smarts="[O:1]([N:2]=[C:3]1[C:4]([H:8])([H:9])[C:5]([H:10])([H:11])[C:6]1([H:12])[H:13])[H:7]>>[O:1]([N:2]=[C:3]=[C:6]([C:5]([C:4]([H:8])([H:9])[H:12])([H:10])[H:11])[H:13])[H:7]"
O        2.57551229      -0.32909673      -0.53876392
N        1.82530405       0.28662939       0.47918432
C        0.56362247       0.34193647       0.09733406
C       -0.51361921      -0.88369895      -0.28047715
C       -1.63109599       0.07427398       0.13606420
C       -0.58726301       1.09198673       0.51788279
H        3.47025151      -0.27715836      -0.19858611
H       -0.51901129      -1.31881992      -1.27580182
H       -0.33582215      -1.66941540       0.44922281
H       -2.32665700       0.39051233      -0.64426881
H       -2.22103266      -0.29400467       0.97954451
H        0.34615495       0.76209667      -1.03823609
H       -0.64634396       1.82475845       1.31690121
13
Frame=4 idx=003629 GeodesicLength=0.5698285713355244 rxn_smarts="[O:1]([N:2]=[C:3]1[C:4]([H:8])([H:9])[C:5]([H:10])([H:11])[C:6]1([H:12])[H:13])[H:7]>>[O:1]([N:2]=[C:3]=[C:6]([C:5]([C:4]([H:8])([H:9])[H:12])([H:10])[H:11])[H:13])[H:7]"
O        2.58872305      -0.32344788      -0.52103823
N        1.83382766       0.29040048       0.49328786
C        0.57635212       0.34227263       0.12010718
C       -0.51772006      -0.88405984      -0.29934389
C       -1.62570184       0.07331776       0.14459268
C       -0.57922522       1.10061353       0.50025723
H        3.48160634      -0.27528905      -0.17516059
H       -0.54943315      -1.31589868      -1.29572498
H       -0.33568348      -1.68189812       0.41669694
H       -2.33448827       0.38812512      -0.62425646
H       -2.20067583      -0.29359085       0.99837793
H        0.30556609       0.74292093      -1.05423974
H       -0.64314740       1.83653398       1.29644407
13
Frame=5 idx=003629 GeodesicLength=0.7117956686224304 rxn_smarts="[O:1]([N:2]=[C:3]1[C:4]([H:8])([H:9])[C:5]([H:10])([H:11])[C:6]1([H:12])[H:13])[H:7]>>[O:1]([N:2]=[C:3]=[C:6]([C:5]([C:4]([H:8])([H:9])[H:12])([H:10])[H:11])[H:13])[H:7]"
O        2.60193111      -0.31762440      -0.50260454
N        1.84185391       0.29373489       0.50809887
C        0.58882844       0.34292081       0.14237098
C       -0.52185241      -0.88417617      -0.31898909
C       -1.61979930       0.07202164       0.15339391
C       -0.57079205       1.10876361       0.48196302
H        3.49265997      -0.27401802      -0.15032654
H       -0.58160157      -1.31306613      -1.31550903
H       -0.33475930      -1.69372715       0.38316193
H       -2.34242456       0.38542622      -0.60298181
H       -2.17871049      -0.29383724       1.01766979
H        0.26444412       0.72507416      -1.07084154
H       -0.63977786       1.84850777       1.27459404
13
Frame=6 idx=003629 GeodesicLength=0.8543117373386011 rxn_smarts="[O:1]([N:2]=[C:3]1[C:4]([H:8])([H:9])[C:5]([H:10])([H:11])[C:6]1([H:12])[H:13])[H:7]>>[O:1]([N:2]=[C:3]=[C:6]([C:5]([C:4]([H:8])([H:9])[H:12])([H:10])[H:11])[H:13])[H:7]"
O        2.61507830      -0.31166970      -0.48351450
N        1.84954034       0.29654534       0.52374171
C        0.60111102       0.34369899       0.16461536
C       -0.52602275      -0.88405420      -0.33932091
C       -1.61333208       0.07042459       0.16235203
C       -0.56192258       1.11638378       0.46307378
H        3.50347324      -0.27313483      -0.12446651
H       -0.61539071      -1.31036969      -1.33490734
H       -0.33319197      -1.70487603       0.34875034
H       -2.35020755       0.38251256      -0.58063445
H       -2.15525760      -0.29466992       1.03713480
H        0.22239818       0.70863932      -1.08817381
H       -0.63627584       1.86056977       1.25134950
13
Frame=7 idx=003629 GeodesicLength=0.9973572076749414 rxn_smarts="[O:1]([N:2]=[C:3]1[C:4]([H:8])([H:9])[C:5]([H:10])([H:11])[C:6]1([H:12])[H:13])[H:7]>>[O:1]([N:2]=[C:3]=[C:6]([C:5]([C:4]([H:8])([H:9])[H:12])([H:10])[H:11])[H:13])[H:7]"
O        2.62809979      -0.30560419      -0.46381450
N        1.85699251       0.29880495       0.54029684
C        0.61322084       0.34445409       0.18726982
C       -0.53021382      -0.88369718      -0.36027401
C       -1.60626230       0.06856135       0.17136364
C       -0.55255681       1.12341007       0.44363996
H        3.51404595      -0.27246976      -0.09789728
H       -0.65065424      -1.30787182      -1.35370718
H       -0.33107691      -1.71534549       0.31357856
H       -2.35763310       0.37947493      -0.55739267
H       -2.13046829      -0.29601747       1.05653710
H        0.17913062       0.69365661      -1.10637840
H       -0.63262424       1.87264389       1.22677811
13
Frame=8 idx=003629 GeodesicLength=1.1410804551218838 rxn_smarts="[O:1]([N:2]=[C:3]1[C:4]([H:8])([H:9])[C:5]([H:10])([H:11])[C:6]1([H:12])[H:13])[H:7]>>[O:1]([N:2]=[C:3]=[C:6]([C:5]([C:4]([H:8])([H:9])[H:12])([H:10])[H:11])[H:13])[H:7]"
O        2.64092998      -0.29940352      -0.44355711
N        1.86432970       0.30044228       0.55789112
C        0.62518064       0.34499082       0.21084819
C       -0.53439655      -0.88308134      -0.38179279
C       -1.59853873       0.06646368       0.18033548
C       -0.54259453       1.12977974       0.42366715
H        3.52440667      -0.27189791      -0.07089829
H       -0.68723123      -1.30559934      -1.37171462
H       -0.32849065      -1.72509070       0.27772867
H       -2.36450097       0.37639815      -0.53340494
H       -2.10444995      -0.29781951       1.07564931
H        0.13415310       0.68019072      -1.12555756
H       -0.62879748       1.88462692       1.20080539
13
Frame=9 idx=003629 GeodesicLength=1.2854993773059895 rxn_smarts="[O:1]([N:2]=[C:3]1[C:4]([H:8])([H:9])[C:5]([H:10])([H:11])[C:6]1([H:12])[H:13])[H:7]>>[O:1]([N:2]=[C:3]=[C:6]([C:5]([C:4]([H:8])([H:9])[H:12])([H:10])[H:11])[H:13])[H:7]"
O        2.65365989      -0.29353124      -0.42219891
N        1.87149297       0.30112033       0.57690454
C        0.63700732       0.34514867       0.23555253
C       -0.53855594      -0.88209933      -0.40421947
C       -1.59003249       0.06414590       0.18937256
C       -0.53184275       1.13554044       0.40267528
H        3.53475199      -0.27075289      -0.04335227
H       -0.72533276      -1.30340313      -1.38908215
H       -0.32547482      -1.73428037       0.24064342
H       -2.37097119       0.37318917      -0.50822560
H       -2.07679663      -0.30005790       1.09472534
H        0.08670882       0.66814692      -1.14580189
H       -0.62461441       1.89683343       1.17300663
13
Frame=10 idx=003629 GeodesicLength=1.4307599531130715 rxn_smarts="[O:1]([N:2]=[C:3]1[C:4]([H:8])([H:9])[C:5]([H:10])([H:11])[C:6]1([H:12])[H:13])[H:7]>>[O:1]([N:2]=[C:3]=[C:6]([C:5]([C:4]([H:8])([H:9])[H:12])([H:10])[H:11])[H:13])[H:7]"
O        2.66601433      -0.28728825      -0.40042188
N        1.87872394       0.30109570       0.59724738
C        0.64864282       0.34473663       0.26234602
C       -0.54256932      -0.88073606      -0.42720318
C       -1.58073606       0.06162679       0.19823882
C       -0.52016890       1.14044084       0.38107907
H        3.54482809      -0.26973895      -0.01575138
H       -0.76438788      -1.30144704      -1.40533835
H       -0.32200023      -1.74266583       0.20289480
H       -2.37653764       0.37007962      -0.48247373
H       -2.04805803      -0.30270029       1.11316609
H        0.03639338       0.65774619      -1.16718831
H       -0.62014451       1.90885063       1.14340463
13
Frame=11 idx=003629 GeodesicLength=1.5768250248203979 rxn_smarts="[O:1]([N:2]=[C:3]1[C:4]([H:8])([H:9])[C:5]([H:10])([H:11])[C:6]1([H:12])[H:13])[H:7]>>[O:1]([N:2]=[C:3]=[C:6]([C:5]([C:4]([H:8])([H:9])[H:12])([H:10])[H:11])[H:13])[H:7]"
O        2.67783328      -0.28050037      -0.37823370
N        1.88600109       0.30026242       0.61914705
C        0.65997752       0.34355665       0.29188566
C       -0.54631323      -0.87894026      -0.45079860
C       -1.57056468       0.05892859       0.20690103
C       -0.50727334       1.14431620       0.35876964
H        3.55449740      -0.26877728       0.01176202
H       -0.80419185      -1.29974732      -1.42038925
H       -0.31800137      -1.75023414       0.16440773
H       -2.38105810       0.36718128      -0.45617900
H       -2.01828822      -0.30570324       1.13089498
H       -0.01745929       0.64897732      -1.18993668
H       -0.61515920       1.92068017       1.11176912
13
Frame=12 idx=003629 GeodesicLength=1.7233190219009584 rxn_smarts="[O:1]([N:2]=[C:3]1[C:4]([H:8])([H:9])[C:5]([H:10])([H:11])[C:6]1([H:12])[H:13])[H:7]>>[O:1]([N:2]=[C:3]=[C:6]([C:5]([C:4]([H:8])([H:9])[H:12])([H:10])[H:11])[H:13])[H:7]"
O        2.68900687      -0.27302322      -0.35562258
N        1.89335896       0.29854966       0.64278995
C        0.67097683       0.34150849       0.32467439
C       -0.54966914      -0.87656866      -0.47510113
C       -1.55942749       0.05602852       0.21534114
C       -0.49290359       1.14702100       0.33562814
H        3.56371272      -0.26807596       0.03918454
H       -0.84458738      -1.29829045      -1.43410345
H       -0.31326701      -1.75682320       0.12506171
H       -2.38442775       0.36452052      -0.42929908
H       -1.98748792      -0.30913413       1.14782759
H       -0.07575612       0.64197689      -1.21404907
H       -0.60952898       1.93231054       1.07766784
13
Frame=13 idx=003629 GeodesicLength=1.869970253212284 rxn_smarts="[O:1]([N:2]=[C:3]1[C:4]([H:8])([H:9])[C:5]([H:10])([H:11])[C:6]1([H:12])[H:13])[H:7]>>[O:1]([N:2]=[C:3]=[C:6]([C:5]([C:4]([H:8])([H:9])[H:12])([H:10])[H:11])[H:13])[H:7]"
O        2.69929627      -0.26510128      -0.33222641
N        1.90056801       0.29534349       0.66866870
C        0.68143333       0.33826106       0.36135579
C       -0.55254001      -0.87351816      -0.50029509
C       -1.54717805       0.05295965       0.22357951
C       -0.47653186       1.14823148       0.31140220
H        3.57237970      -0.26660964       0.06629229
H       -0.88550914      -1.29706108      -1.44643883
H       -0.30771850      -1.76240157       0.08460173
H       -2.38648978       0.36231322      -0.40167477
H       -1.95560874      -0.31294886       1.16396952
H       -0.13946552       0.63678269      -1.23968767
H       -0.60263573       1.94374900       1.04045303
13
Frame=14 idx=003629 GeodesicLength=2.0160298657587417 rxn_smarts="[O:1]([N:2]=[C:3]1[C:4]([H:8])([H:9])[C:5]([H:10])([H:11])[C:6]1([H:12])[H:13])[H:7]>>[O:1]([N:2]=[C:3]=[C:6]([C:5]([C:4]([H:8])([H:9])[H:12])([H:10])[H:11])[H:13])[H:7]"
O        2.70861215      -0.25763238      -0.30741362
N        1.90751781       0.29026149       0.69711288
C        0.69128905       0.33390076       0.40200402
C       -0.55492373      -0.86953149      -0.52671122
C       -1.53367785       0.04970480       0.23164489
C       -0.45777706       1.14774600       0.28570018
H        3.58072913      -0.26359543       0.09314137
H       -0.92707874      -1.29600126      -1.45734974
H       -0.30097340      -1.76662906       0.04261148
H       -2.38724878       0.36060325      -0.37295967
H       -1.92240621      -0.31727451       1.17934900
H       -0.20986887       0.63348073      -1.26663349
H       -0.59419351       1.95496711       0.99950392
13
Frame=15 idx=003629 GeodesicLength=2.160925499157806 rxn_smarts="[O:1]([N:2]=[C:3]1[C:4]([H:8])([H:9])[C:5]([H:10])([H:11])[C:6]1([H:12])[H:13])[H:7]>>[O:1]([N:2]=[C:3]=[C:6]([C:5]([C:4]([H:8])([H:9])[H:12])([H:10])[H:11])[H:13])[H:7]"
O        2.71675061      -0.25227487      -0.28009169
N        1.91386261       0.28246829       0.72866445
C        0.70037759       0.32841668       0.44661366
C       -0.55692399      -0.86434664      -0.55482509
C       -1.51872844       0.04626983       0.23963893
C       -0.43611208       1.14519727       0.25798123
H        3.58908722      -0.25696372       0.11969379
H       -0.96957886      -1.29498238      -1.46687298
H       -0.29273369      -1.76923830      -0.00157944
H       -2.38667720       0.35955832      -0.34254698
H       -1.88748991      -0.32221325       1.19409829
H       -0.28830686       0.63216008      -1.29457688
H       -0.58352699       1.96594869       0.95380270
13
Frame=16 idx=003629 GeodesicLength=2.304428798343947 rxn_smarts="[O:1]([N:2]=[C:3]1[C:4]([H:8])([H:9])[C:5]([H:10])([H:11])[C:6]1([H:12])[H:13])[H:7]>>[O:1]([N:2]=[C:3]=[C:6]([C:5]([C:4]([H:8])([H:9])[H:12])([H:10])[H:11])[H:13])[H:7]"
O        2.72351231      -0.25189744      -0.24861453
N        1.91928961       0.27109380       0.76391721
C        0.70867001       0.32209004       0.49483415
C       -0.55887060      -0.85764094      -0.58529348
C       -1.50211888       0.04268204       0.24764750
C       -0.41099589       1.14020686       0.22754779
H        3.59815282      -0.24364185       0.14579649
H       -1.01360102      -1.29386073      -1.47508435
H       -0.28269590      -1.76983687      -0.04886572
H       -2.38477073       0.35941463      -0.30970595
H       -1.85035805      -0.32793113       1.20833042
H       -0.37619234       0.63280102      -1.32275056
H       -0.57002136       1.97652056       0.90224104
