16
Frame=0 idx=004128 GeodesicLength=0.0 rxn_smarts="[C:1]([O:2][C@@:3]([C:4]([H:11])([H:12])[H:13])([C:5]([O:6][H:16])([H:14])[H:15])[H:10])([H:7])([H:8])[H:9]>>[C:1]([O:2][C:3]([C:4]([H:11])([H:12])[H:13])=[C:5]([H:14])[H:15])([H:7])([H:8])[H:9].[O:6]([H:10])[H:16]"
C        1.80783214       0.83102137       0.57819549
O        0.56726494       0.41862013       1.09497225
C       -0.24272277      -0.26966410       0.17634788
C        0.17009299      -1.69167184      -0.11787436
C       -1.60101051       0.09482599       0.24243795
O       -1.57447626       1.09462889      -1.36771135
H        2.44921608      -0.01848821       0.31635059
H        1.68082059       1.45807446      -0.31327735
H        2.30339597       1.41041001       1.35663520
H       -0.52179417       0.51809281      -0.95992446
H        1.14938719      -1.73455910      -0.59759065
H       -0.54067793      -2.16049467      -0.80006933
H        0.21888148      -2.28833429       0.79775011
H       -2.36912455      -0.58567962      -0.09782418
H       -1.91488542       0.87257020       0.92747918
H       -1.58219973       2.05064801      -1.23589690
16
Frame=1 idx=004128 GeodesicLength=0.052974146565297045 rxn_smarts="[C:1]([O:2][C@@:3]([C:4]([H:11])([H:12])[H:13])([C:5]([O:6][H:16])([H:14])[H:15])[H:10])([H:7])([H:8])[H:9]>>[C:1]([O:2][C:3]([C:4]([H:11])([H:12])[H:13])=[C:5]([H:14])[H:15])([H:7])([H:8])[H:9].[O:6]([H:10])[H:16]"
C        1.80433480       0.82931221       0.57020751
O        0.55582934       0.43305858       1.08117277
C       -0.24889355      -0.26948961       0.17037084
C        0.17200665      -1.69054164      -0.11240822
C       -1.61010186       0.08770922       0.23477060
O       -1.56956896       1.12438017      -1.36337213
H        2.44657111      -0.02778874       0.33743622
H        1.68927083       1.43621919      -0.33657765
H        2.29138610       1.42548763       1.34125908
H       -0.51735762       0.51104966      -0.98116240
H        1.14742709      -1.72979209      -0.60028675
H       -0.54034007      -2.17285305      -0.78331653
H        0.23308759      -2.27575381       0.80968686
H       -2.37075909      -0.59674434      -0.11494216
H       -1.93088260       0.84131222       0.94351803
H       -1.55200978       2.07443441      -1.19635608
16
Frame=2 idx=004128 GeodesicLength=0.1058687319784154 rxn_smarts="[C:1]([O:2][C@@:3]([C:4]([H:11])([H:12])[H:13])([C:5]([O:6][H:16])([H:14])[H:15])[H:10])([H:7])([H:8])[H:9]>>[C:1]([O:2][C:3]([C:4]([H:11])([H:12])[H:13])=[C:5]([H:14])[H:15])([H:7])([H:8])[H:9].[O:6]([H:10])[H:16]"
C        1.80088411       0.82753887       0.56253676
O        0.54455859       0.44727380       1.06718179
C       -0.25503263      -0.26901143       0.16418535
C        0.17372438      -1.68903245      -0.10728309
C       -1.61909993       0.08103704       0.22749968
O       -1.56411537       1.15332445      -1.35877901
H        2.44341050      -0.03646598       0.35857880
H        1.69784242       1.41429541      -0.35872350
H        2.27971497       1.44000733       1.32587257
H       -0.51293322       0.50468331      -1.00230537
H        1.14523489      -1.72488914      -0.60318180
H       -0.54010030      -2.18436533      -0.76688603
H        0.24676209      -2.26275929       0.82097996
H       -2.37231994      -0.60745748      -0.13100686
H       -1.94604132       0.81014459       0.95902209
H       -1.52248924       2.09567631      -1.15769134
16
Frame=3 idx=004128 GeodesicLength=0.15873134958998436 rxn_smarts="[C:1]([O:2][C@@:3]([C:4]([H:11])([H:12])[H:13])([C:5]([O:6][H:16])([H:14])[H:15])[H:10])([H:7])([H:8])[H:9]>>[C:1]([O:2][C:3]([C:4]([H:11])([H:12])[H:13])=[C:5]([H:14])[H:15])([H:7])([H:8])[H:9].[O:6]([H:10])[H:16]"
C        1.79750666       0.82566614       0.55520883
O        0.53345872       0.46128018       1.05301075
C       -0.26113391      -0.26823471       0.15779342
C        0.17526383      -1.68714951      -0.10251309
C       -1.62800188       0.07480524       0.22060864
O       -1.55818192       1.18146808      -1.35403721
H        2.43977484      -0.04461442       0.37992563
H        1.70663469       1.39217714      -0.37978595
H        2.26835760       1.45403372       1.31048178
H       -0.50846499       0.49904523      -1.02332994
H        1.14282047      -1.71983500      -0.60631889
H       -0.53996568      -2.19506875      -0.75076625
H        0.25997944      -2.24935928       0.83162545
H       -2.37381879      -0.61785943      -0.14598919
H       -1.96034226       0.77909327       0.97402515
H       -1.49388683       2.11455210      -1.11993912
16
Frame=4 idx=004128 GeodesicLength=0.2116172886327006 rxn_smarts="[C:1]([O:2][C@@:3]([C:4]([H:11])([H:12])[H:13])([C:5]([O:6][H:16])([H:14])[H:15])[H:10])([H:7])([H:8])[H:9]>>[C:1]([O:2][C:3]([C:4]([H:11])([H:12])[H:13])=[C:5]([H:14])[H:15])([H:7])([H:8])[H:9].[O:6]([H:10])[H:16]"
C        1.79421217       0.82368453       0.54823536
O        0.52253187       0.47509018       1.03867727
C       -0.26720392      -0.26717223       0.15120720
C        0.17663674      -1.68490363      -0.09811449
C       -1.63682069       0.06899448       0.21410009
O       -1.55187189       1.20883653      -1.34919263
H        2.43568097      -0.05228853       0.40161784
H        1.71569452       1.36974331      -0.39984380
H        2.25728327       1.46767985       1.29504598
H       -0.50392451       0.49416154      -1.04421885
H        1.14020138      -1.71462022      -0.60972068
H       -0.53993384      -2.20498976      -0.73498136
H        0.27277194      -2.23558370       0.84161198
H       -2.37527142      -0.62800910      -0.15986528
H       -1.97377765       0.74811416       0.98862522
H       -1.46620895       2.13126257      -1.08318386
16
Frame=5 idx=004128 GeodesicLength=0.26449109830795525 rxn_smarts="[C:1]([O:2][C@@:3]([C:4]([H:11])([H:12])[H:13])([C:5]([O:6][H:16])([H:14])[H:15])[H:10])([H:7])([H:8])[H:9]>>[C:1]([O:2][C:3]([C:4]([H:11])([H:12])[H:13])=[C:5]([H:14])[H:15])([H:7])([H:8])[H:9].[O:6]([H:10])[H:16]"
C        1.79101326       0.82159699       0.54165388
O        0.51181155       0.48866772       1.02423703
C       -0.27322829      -0.26583785       0.14445993
C        0.17784632      -1.68231290      -0.09409471
C       -1.64553555       0.06362883       0.20800363
O       -1.54527872       1.23532527      -1.34439596
H        2.43113497      -0.05947429       0.42349224
H        1.72496472       1.34715352      -0.41877300
H        2.24657123       1.48081032       1.27969416
H       -0.49923955       0.49003179      -1.06494257
H        1.13740612      -1.70925616      -0.61335748
H       -0.53999346      -2.21411651      -0.71959684
H        0.28509626      -2.22150413       0.85091860
H       -2.37669078      -0.63793627      -0.17248467
H       -1.98627492       0.71733081       1.00283702
H       -1.43960317       2.14589286      -1.04765125
16
Frame=6 idx=004128 GeodesicLength=0.317328977127336 rxn_smarts="[C:1]([O:2][C@@:3]([C:4]([H:11])([H:12])[H:13])([C:5]([O:6][H:16])([H:14])[H:15])[H:10])([H:7])([H:8])[H:9]>>[C:1]([O:2][C:3]([C:4]([H:11])([H:12])[H:13])=[C:5]([H:14])[H:15])([H:7])([H:8])[H:9].[O:6]([H:10])[H:16]"
C        1.78789591       0.81941777       0.53548782
O        0.50131863       0.50197406       1.00974788
C       -0.27919983      -0.26425164       0.13759002
C        0.17888983      -1.67939512      -0.09045359
C       -1.65412335       0.05871794       0.20235745
O       -1.53849952       1.26085125      -1.33977913
H        2.42611744      -0.06615927       0.44535560
H        1.73434114       1.32461114      -0.43647153
H        2.23627130       1.49330061       1.26455842
H       -0.49434557       0.48662853      -1.08548251
H        1.13445199      -1.70374569      -0.61719411
H       -0.54013344      -2.22243124      -0.70468116
H        0.29690231      -2.20719952       0.85953778
H       -2.37807633      -0.64768020      -0.18370741
H       -1.99774972       0.68681375       1.01672374
H       -1.41406079       2.15854762      -1.01358927
16
Frame=7 idx=004128 GeodesicLength=0.37015059891843394 rxn_smarts="[C:1]([O:2][C@@:3]([C:4]([H:11])([H:12])[H:13])([C:5]([O:6][H:16])([H:14])[H:15])[H:10])([H:7])([H:8])[H:9]>>[C:1]([O:2][C:3]([C:4]([H:11])([H:12])[H:13])=[C:5]([H:14])[H:15])([H:7])([H:8])[H:9].[O:6]([H:10])[H:16]"
C        1.78485709       0.81712299       0.52971389
O        0.49104560       0.51503349       0.99518115
C       -0.28511956      -0.26242822       0.13058221
C        0.17979224      -1.67617124      -0.08716364
C       -1.66259245       0.05423529       0.19711487
O       -1.53154012       1.28555984      -1.33535278
H        2.42065243      -0.07240834       0.46733063
H        1.74386763       1.30196298      -0.45305745
H        2.22633074       1.50524312       1.24956136
H       -0.48921542       0.48391878      -1.10586771
H        1.13135631      -1.69810827      -0.62121533
H       -0.54034313      -2.23001211      -0.69016238
H        0.30827230      -2.19265995       0.86752077
H       -2.37942554      -0.65725303      -0.19365425
H       -2.00824461       0.65648543       1.03030232
H       -1.38969351       2.16947923      -0.98083364
16
Frame=8 idx=004128 GeodesicLength=0.42302479935543646 rxn_smarts="[C:1]([O:2][C@@:3]([C:4]([H:11])([H:12])[H:13])([C:5]([O:6][H:16])([H:14])[H:15])[H:10])([H:7])([H:8])[H:9]>>[C:1]([O:2][C:3]([C:4]([H:11])([H:12])[H:13])=[C:5]([H:14])[H:15])([H:7])([H:8])[H:9].[O:6]([H:10])[H:16]"
C        1.78188496       0.81473309       0.52431164
O        0.48097446       0.52787082       0.98053850
C       -0.29100707      -0.26038648       0.12343771
C        0.18055396      -1.67266838      -0.08421650
C       -1.67097234       0.05014107       0.19227357
O       -1.52444449       1.30955129      -1.33109700
H        2.41473381      -0.07823196       0.48949965
H        1.75355510       1.27913232      -0.46862506
H        2.21670817       1.51676768       1.23463158
H       -0.48383422       0.48186574      -1.12612578
H        1.12812945      -1.69235321      -0.62542581
H       -0.54062666      -2.23692547      -0.67603023
H        0.31921710      -2.17790788       0.87489899
H       -2.38075133      -0.66670467      -0.20239394
H       -2.01778853       0.62621289       1.04367845
H       -1.36633235       2.17890315      -0.94935578
16
Frame=9 idx=004128 GeodesicLength=0.4759882089203006 rxn_smarts="[C:1]([O:2][C@@:3]([C:4]([H:11])([H:12])[H:13])([C:5]([O:6][H:16])([H:14])[H:15])[H:10])([H:7])([H:8])[H:9]>>[C:1]([O:2][C:3]([C:4]([H:11])([H:12])[H:13])=[C:5]([H:14])[H:15])([H:7])([H:8])[H:9].[O:6]([H:10])[H:16]"
C        1.77897413       0.81223404       0.51926252
O        0.47109362       0.54051149       0.96579740
C       -0.29686954      -0.25813754       0.11614179
C        0.18119136      -1.66890134      -0.08159782
C       -1.67927702       0.04640752       0.18780789
O       -1.51721140       1.33295091      -1.32699673
H        2.40836277      -0.08366032       0.51199860
H        1.76344782       1.25595435      -0.48326966
H        2.20735483       1.52798150       1.21966795
H       -0.47819081       0.48044019      -1.14628856
H        1.12477620      -1.68648933      -0.62983911
H       -0.54098436      -2.24324070      -0.66222060
H        0.32980844      -2.16292632       0.88170893
H       -2.38205314      -0.67604200      -0.21003823
H       -2.02641762       0.59590063       1.05687467
H       -1.34400529       2.18701692      -0.91900903
16
Frame=10 idx=004128 GeodesicLength=0.5290803101161948 rxn_smarts="[C:1]([O:2][C@@:3]([C:4]([H:11])([H:12])[H:13])([C:5]([O:6][H:16])([H:14])[H:15])[H:10])([H:7])([H:8])[H:9]>>[C:1]([O:2][C:3]([C:4]([H:11])([H:12])[H:13])=[C:5]([H:14])[H:15])([H:7])([H:8])[H:9].[O:6]([H:10])[H:16]"
C        1.77609598       0.80962382       0.51454529
O        0.46138778       0.55296376       0.95094330
C       -0.30271823      -0.25569088       0.10868701
C        0.18171339      -1.66487395      -0.07929733
C       -1.68751353       0.04300841       0.18371490
O       -1.50987949       1.35584965      -1.32301745
H        2.40149781      -0.08869773       0.53492516
H        1.77353570       1.23231316      -0.49705591
H        2.19821497       1.53896663       1.20456641
H       -0.47228573       0.47962415      -1.16637424
H        1.12130421      -1.68051034      -0.63444089
H       -0.54140277      -2.24898385      -0.64871112
H        0.34006956      -2.14771576       0.88797162
H       -2.38331227      -0.68527569      -0.21665677
H       -2.03412000       0.56541696       1.06994757
H       -1.32258739       2.19398165      -0.88974756
16
Frame=11 idx=004128 GeodesicLength=0.5822576801679878 rxn_smarts="[C:1]([O:2][C@@:3]([C:4]([H:11])([H:12])[H:13])([C:5]([O:6][H:16])([H:14])[H:15])[H:10])([H:7])([H:8])[H:9]>>[C:1]([O:2][C:3]([C:4]([H:11])([H:12])[H:13])=[C:5]([H:14])[H:15])([H:7])([H:8])[H:9].[O:6]([H:10])[H:16]"
C        1.77324152       0.80691044       0.51016460
O        0.45187224       0.56520194       0.93600830
C       -0.30854478      -0.25306451       0.10109350
C        0.18212022      -1.66061438      -0.07729035
C       -1.69566417       0.03994563       0.18001303
O       -1.50243805       1.37821838      -1.31925071
H        2.39414416      -0.09332756       0.55806041
H        1.78372860       1.20840291      -0.50989217
H        2.18934904       1.54958038       1.18944401
H       -0.46605811       0.47936590      -1.18638715
H        1.11771930      -1.67444290      -0.63920005
H       -0.54188016      -2.25417799      -0.63549721
H        0.34999042      -2.13232082       0.89371582
H       -2.38452793      -0.69440065      -0.22221189
H       -2.04087068       0.53485265       1.08285307
H       -1.30218163       2.19987056      -0.86162320
16
Frame=12 idx=004128 GeodesicLength=0.6355661636639297 rxn_smarts="[C:1]([O:2][C@@:3]([C:4]([H:11])([H:12])[H:13])([C:5]([O:6][H:16])([H:14])[H:15])[H:10])([H:7])([H:8])[H:9]>>[C:1]([O:2][C:3]([C:4]([H:11])([H:12])[H:13])=[C:5]([H:14])[H:15])([H:7])([H:8])[H:9].[O:6]([H:10])[H:16]"
C        1.77040616       0.80410240       0.50610856
O        0.44253341       0.57724967       0.92098045
C       -0.31436433      -0.25026440       0.09334953
C        0.18241359      -1.65613088      -0.07557794
C       -1.70375286       0.03719092       0.17670865
O       -1.49492746       1.40012809      -1.31566383
H        2.38628212      -0.09754805       0.58151244
H        1.79405737       1.18410872      -0.52183614
H        2.18072911       1.55992608       1.17420795
H       -0.45950601       0.47964682      -1.20634686
H        1.11403585      -1.66828974      -0.64411498
H       -0.54241882      -2.25885785      -0.62257320
H        0.35957887      -2.11674259       0.89895176
H       -2.38570711      -0.70343368      -0.22676741
H       -2.04667352       0.50409446       1.09564328
H       -1.28268638       2.20482004      -0.83458225
16
Frame=13 idx=004128 GeodesicLength=0.6889719078987133 rxn_smarts="[C:1]([O:2][C@@:3]([C:4]([H:11])([H:12])[H:13])([C:5]([O:6][H:16])([H:14])[H:15])[H:10])([H:7])([H:8])[H:9]>>[C:1]([O:2][C:3]([C:4]([H:11])([H:12])[H:13])=[C:5]([H:14])[H:15])([H:7])([H:8])[H:9].[O:6]([H:10])[H:16]"
C        1.76757693       0.80121045       0.50238154
O        0.43338050       0.58908521       0.90589448
C       -0.32017527      -0.24730873       0.08547953
C        0.18259778      -1.65144747      -0.07414482
C       -1.71177160       0.03474037       0.17383465
O       -1.48736274       1.42154818      -1.31232418
H        2.37792139      -0.10135135       0.60510403
H        1.80442615       1.15960136      -0.53282410
H        2.17239524       1.56989308       1.15896868
H       -0.45259016       0.48040791      -1.22625665
H        1.11026070      -1.66206583      -0.64917117
H       -0.54301311      -2.26304005      -0.60994972
H        0.36883518      -2.10102816       0.90369766
H       -2.38685319      -0.71236661      -0.23029042
H       -2.05150843       0.47323314       1.10828873
H       -1.26411939       2.20888850      -0.80868827
16
Frame=14 idx=004128 GeodesicLength=0.7424419060068634 rxn_smarts="[C:1]([O:2][C@@:3]([C:4]([H:11])([H:12])[H:13])([C:5]([O:6][H:16])([H:14])[H:15])[H:10])([H:7])([H:8])[H:9]>>[C:1]([O:2][C:3]([C:4]([H:11])([H:12])[H:13])=[C:5]([H:14])[H:15])([H:7])([H:8])[H:9].[O:6]([H:10])[H:16]"
C        1.76474149       0.79824857       0.49898637
O        0.42441692       0.60069549       0.89077485
C       -0.32597833      -0.24421152       0.07750315
C        0.18267108      -1.64658007      -0.07298404
C       -1.71971297       0.03258282       0.17142993
O       -1.47977097       1.44244034      -1.30928919
H        2.36906684      -0.10473860       0.62869631
H        1.81476154       1.13503133      -0.54281433
H        2.16437408       1.57940003       1.14382423
H       -0.44527153       0.48159438      -1.24611596
H        1.10640428      -1.65577605      -0.65434638
H       -0.54365763      -2.26672587      -0.59766072
H        0.37773386      -2.08522491       0.90795962
H       -2.38796629      -0.72120278      -0.23273632
H       -2.05534594       0.44234091       1.12078179
H       -1.24646644       2.21212591      -0.78400930
16
Frame=15 idx=004128 GeodesicLength=0.795946320352368 rxn_smarts="[C:1]([O:2][C@@:3]([C:4]([H:11])([H:12])[H:13])([C:5]([O:6][H:16])([H:14])[H:15])[H:10])([H:7])([H:8])[H:9]>>[C:1]([O:2][C:3]([C:4]([H:11])([H:12])[H:13])=[C:5]([H:14])[H:15])([H:7])([H:8])[H:9].[O:6]([H:10])[H:16]"
C        1.76189043       0.79522945       0.49592504
O        0.41564447       0.61207251       0.87564246
C       -0.33177567      -0.24098684       0.06943775
C        0.18263418      -1.64154648      -0.07208972
C       -1.72757318       0.03070286       0.16953269
O       -1.47218088       1.46277442      -1.30661033
H        2.35973390      -0.10772259       0.65216711
H        1.82500049       1.11053717      -0.55178411
H        2.15668494       1.58838136       1.12887528
H       -0.43751664       0.48315011      -1.26592725
H        1.10247835      -1.64942682      -0.65962370
H       -0.54434677      -2.26992413      -0.58573928
H        0.38625898      -2.06937859       0.91174633
H       -2.38905030      -0.72994506      -0.23407169
H       -2.05816841       0.41149942       1.13311588
H       -1.22971389       2.21458321      -0.76059649
16
Frame=16 idx=004128 GeodesicLength=0.8494585243443268 rxn_smarts="[C:1]([O:2][C@@:3]([C:4]([H:11])([H:12])[H:13])([C:5]([O:6][H:16])([H:14])[H:15])[H:10])([H:7])([H:8])[H:9]>>[C:1]([O:2][C:3]([C:4]([H:11])([H:12])[H:13])=[C:5]([H:14])[H:15])([H:7])([H:8])[H:9].[O:6]([H:10])[H:16]"
C        1.75901578       0.79216240       0.49319726
O        0.40706270       0.62321313       0.86051118
C       -0.33756997      -0.23764775       0.06129734
C        0.18248833      -1.63636274      -0.07145741
C       -1.73534810       0.02908037       0.16817933
O       -1.46461569       1.48252773      -1.30433139
H        2.34994153      -0.11032498       0.67542123
H        1.83509615       1.08623203      -0.55973034
H        2.14933591       1.59679011       1.11421225
H       -0.42929234       0.48502208      -1.28569410
H        1.09849345      -1.64302212      -0.66499117
H       -0.54507505      -2.27264665      -0.57421577
H        0.39439993      -2.05352963       0.91506702
H       -2.39010754      -0.73859548      -0.23427466
H       -2.05996712       0.38079085       1.14528710
H       -1.21385795       2.21631064      -0.73847787
