11
Frame=0 idx=000635 GeodesicLength=0.0 rxn_smarts="[O:1]=[C:2]([N:3]([C:4]([C:5]#[C:6][H:11])([H:9])[H:10])[H:8])[H:7]>>[O+:1]1=[C:2]([H:7])[N:3]([H:8])[C:4]([H:9])([H:10])[C:5]([H:11])=[C-:6]1"
O       -2.09265162       0.52420242      -0.70197425
C       -1.63047876       0.56345775       0.41093244
N       -0.30205555       0.54076527       0.69670665
C        0.68900649       0.36063231      -0.33778706
C        1.07175077      -1.07096080      -0.55698592
C        0.99921949      -2.10698468      -1.30326075
H       -2.25473872       0.63995206       1.31801607
H       -0.02326112       0.49928768       1.66082836
H        0.26703473       0.74432381      -1.26468594
H        1.57493437       0.94783656      -0.09694896
H        1.70123991      -1.64251238       0.17515935
11
Frame=1 idx=000635 GeodesicLength=0.08435086075808312 rxn_smarts="[O:1]=[C:2]([N:3]([C:4]([C:5]#[C:6][H:11])([H:9])[H:10])[H:8])[H:7]>>[O+:1]1=[C:2]([H:7])[N:3]([H:8])[C:4]([H:9])([H:10])[C:5]([H:11])=[C-:6]1"
O       -2.08090357       0.46525115      -0.70719133
C       -1.62599808       0.55130470       0.40758763
N       -0.29998141       0.54318982       0.69780576
C        0.69581498       0.37843139      -0.33592106
C        1.07857681      -1.04989553      -0.56323385
C        0.93395536      -2.10382656      -1.26999226
H       -2.25607841       0.65892052       1.30703036
H       -0.02600263       0.48699246       1.66268374
H        0.28575558       0.77089565      -1.26497878
H        1.57804246       0.96622960      -0.08366863
H        1.71681892      -1.66749321       0.14987843
11
Frame=2 idx=000635 GeodesicLength=0.16884401864856569 rxn_smarts="[O:1]=[C:2]([N:3]([C:4]([C:5]#[C:6][H:11])([H:9])[H:10])[H:8])[H:7]>>[O+:1]1=[C:2]([H:7])[N:3]([H:8])[C:4]([H:9])([H:10])[C:5]([H:11])=[C-:6]1"
O       -2.06848911       0.41296717      -0.71117007
C       -1.62153932       0.54137107       0.40427841
N       -0.29802315       0.54657765       0.69867477
C        0.70171533       0.39493000      -0.33452058
C        1.08309255      -1.03099935      -0.56825332
C        0.87347664      -2.09839030      -1.23447977
H       -2.25783319       0.67153462       1.29590549
H       -0.02836465       0.47647457       1.66400741
H        0.30351722       0.79517306      -1.26591462
H        1.58062976       0.98312724      -0.07218827
H        1.73181792      -1.69276572       0.12366056
11
Frame=3 idx=000635 GeodesicLength=0.2533518228300949 rxn_smarts="[O:1]=[C:2]([N:3]([C:4]([C:5]#[C:6][H:11])([H:9])[H:10])[H:8])[H:7]>>[O+:1]1=[C:2]([H:7])[N:3]([H:8])[C:4]([H:9])([H:10])[C:5]([H:11])=[C-:6]1"
O       -2.05578636       0.36560934      -0.71413581
C       -1.61731290       0.53275341       0.40104995
N       -0.29640423       0.55033093       0.69946056
C        0.70672053       0.41023016      -0.33329434
C        1.08579105      -1.01388414      -0.57212971
C        0.81779360      -2.09112811      -1.19747141
H       -2.25998226       0.68130786       1.28475200
H       -0.03068581       0.46706686       1.66496961
H        0.32041250       0.81742071      -1.26718179
H        1.58251064       0.99872755      -0.06183433
H        1.74694322      -1.71843458       0.09581525
11
Frame=4 idx=000635 GeodesicLength=0.3378097856634052 rxn_smarts="[O:1]=[C:2]([N:3]([C:4]([C:5]#[C:6][H:11])([H:9])[H:10])[H:8])[H:7]>>[O+:1]1=[C:2]([H:7])[N:3]([H:8])[C:4]([H:9])([H:10])[C:5]([H:11])=[C-:6]1"
O       -2.04291785       0.32225622      -0.71628916
C       -1.61334842       0.52531677       0.39791323
N       -0.29513025       0.55446286       0.70021840
C        0.71097240       0.42455967      -0.33215304
C        1.08698627      -0.99822747      -0.57487420
C        0.76655987      -2.08245189      -1.15940366
H       -2.26249847       0.68876020       1.27368353
H       -0.03302952       0.45888847       1.66569392
H        0.33666656       0.83788919      -1.26873302
H        1.58380576       1.01330996      -0.05234864
H        1.76193365      -1.74476396       0.06629264
11
Frame=5 idx=000635 GeodesicLength=0.42209597643463653 rxn_smarts="[O:1]=[C:2]([N:3]([C:4]([C:5]#[C:6][H:11])([H:9])[H:10])[H:8])[H:7]>>[O+:1]1=[C:2]([H:7])[N:3]([H:8])[C:4]([H:9])([H:10])[C:5]([H:11])=[C-:6]1"
O       -2.03007204       0.28173571      -0.71765236
C       -1.60973143       0.51850557       0.39493018
N       -0.29428067       0.55869836       0.70105085
C        0.71455297       0.43807472      -0.33094596
C        1.08720578      -0.98370593      -0.57652280
C        0.71961563      -2.07267468      -1.12064916
H       -2.26536808       0.69576360       1.26259533
H       -0.03557081       0.45160465       1.66633000
H        0.35236523       0.85677338      -1.27041396
H        1.58444237       1.02718637      -0.04339175
H        1.77684106      -1.77196173       0.03466963
11
Frame=6 idx=000635 GeodesicLength=0.5063635252140639 rxn_smarts="[O:1]=[C:2]([N:3]([C:4]([C:5]#[C:6][H:11])([H:9])[H:10])[H:8])[H:7]>>[O+:1]1=[C:2]([H:7])[N:3]([H:8])[C:4]([H:9])([H:10])[C:5]([H:11])=[C-:6]1"
O       -2.01721799       0.24359708      -0.71831851
C       -1.60642342       0.51227653       0.39212759
N       -0.29379830       0.56315687       0.70198469
C        0.71757391       0.45095103      -0.32967535
C        1.08661842      -0.97013243      -0.57708891
C        0.67684328      -2.06199670      -1.08137469
H       -2.26859781       0.70214293       1.25152269
H       -0.03827050       0.44541125       1.66697235
H        0.36765326       0.87424862      -1.27224378
H        1.58454962       1.04058642      -0.03491784
H        1.79106953      -1.80024159       0.00101175
11
Frame=7 idx=000635 GeodesicLength=0.59078110453282 rxn_smarts="[O:1]=[C:2]([N:3]([C:4]([C:5]#[C:6][H:11])([H:9])[H:10])[H:8])[H:7]>>[O+:1]1=[C:2]([H:7])[N:3]([H:8])[C:4]([H:9])([H:10])[C:5]([H:11])=[C-:6]1"
O       -2.00431634       0.20735750      -0.71833232
C       -1.60337529       0.50651050       0.38948396
N       -0.29363922       0.56788832       0.70301204
C        0.72012785       0.46335760      -0.32831247
C        1.08548930      -0.95728054      -0.57655650
C        0.63806311      -2.05055778      -1.04163580
H       -2.27214189       0.70793146       1.24045705
H       -0.04110976       0.44037380       1.66765341
H        0.38263777       0.89047441      -1.27420649
H        1.58417395       1.05374603      -0.02684070
H        1.80409052      -1.82980130      -0.03472217
11
Frame=8 idx=000635 GeodesicLength=0.6755206745616784 rxn_smarts="[O:1]=[C:2]([N:3]([C:4]([C:5]#[C:6][H:11])([H:9])[H:10])[H:8])[H:7]>>[O+:1]1=[C:2]([H:7])[N:3]([H:8])[C:4]([H:9])([H:10])[C:5]([H:11])=[C-:6]1"
O       -1.99135427       0.17252484      -0.71771586
C       -1.60057417       0.50100756       0.38698284
N       -0.29380562       0.57287066       0.70414935
C        0.72229742       0.47541867      -0.32680058
C        1.08411560      -0.94495890      -0.57488809
C        0.60308972      -2.03851438      -1.00136868
H       -2.27601241       0.71354025       1.22933798
H       -0.04415036       0.43643559       1.66842403
H        0.39741857       0.90557567      -1.27624850
H        1.58330968       1.06686362      -0.01904041
H        1.81566584      -1.86076357      -0.07283209
11
Frame=9 idx=000635 GeodesicLength=0.7597945906157829 rxn_smarts="[O:1]=[C:2]([N:3]([C:4]([C:5]#[C:6][H:11])([H:9])[H:10])[H:8])[H:7]>>[O+:1]1=[C:2]([H:7])[N:3]([H:8])[C:4]([H:9])([H:10])[C:5]([H:11])=[C-:6]1"
O       -1.97836561       0.13918592      -0.71660632
C       -1.59808588       0.49576338       0.38461118
N       -0.29438454       0.57807276       0.70545756
C        0.72408330       0.48695976      -0.32497965
C        1.08254498      -0.93338224      -0.57154201
C        0.57161244      -2.02594604      -0.96037515
H       -2.28030233       0.71919184       1.21801158
H       -0.04756990       0.43382197       1.66940869
H        0.41211811       0.91924970      -1.27827026
H        1.58190609       1.07984798      -0.01139375
H        1.82644335      -1.89276501      -0.11432187
11
Frame=10 idx=000635 GeodesicLength=0.844063844486964 rxn_smarts="[O:1]=[C:2]([N:3]([C:4]([C:5]#[C:6][H:11])([H:9])[H:10])[H:8])[H:7]>>[O+:1]1=[C:2]([H:7])[N:3]([H:8])[C:4]([H:9])([H:10])[C:5]([H:11])=[C-:6]1"
O       -1.96522141       0.10666526      -0.71494327
C       -1.59580622       0.49062199       0.38234277
N       -0.29529029       0.58357716       0.70691742
C        0.72562662       0.49824491      -0.32286450
C        1.08116416      -0.92219602      -0.56667713
C        0.54344230      -2.01300105      -0.91871827
H       -2.28497336       0.72484571       1.20643925
H       -0.05129425       0.43250491       1.67062726
H        0.42685696       0.93175997      -1.28031310
H        1.58002189       1.09302980      -0.00383013
H        1.83547361      -1.92605266      -0.15898030
11
Frame=11 idx=000635 GeodesicLength=0.9284211663470902 rxn_smarts="[O:1]=[C:2]([N:3]([C:4]([C:5]#[C:6][H:11])([H:9])[H:10])[H:8])[H:7]>>[O+:1]1=[C:2]([H:7])[N:3]([H:8])[C:4]([H:9])([H:10])[C:5]([H:11])=[C-:6]1"
O       -1.95180891       0.07483827      -0.71278363
C       -1.59365027       0.48552464       0.38014929
N       -0.29645088       0.58946649       0.70848466
C        0.72700439       0.50937595      -0.32048730
C        1.08014704      -0.91129263      -0.56023789
C        0.51850011      -1.99966031      -0.87649550
H       -2.28996046       0.72999605       1.19466046
H       -0.05523083       0.43264053       1.67206835
H        0.44172812       0.94316512      -1.28241060
H        1.57771643       1.10659591       0.00361180
H        1.84200524      -1.96065001      -0.20655966
11
Frame=12 idx=000635 GeodesicLength=1.0127722003338668 rxn_smarts="[O:1]=[C:2]([N:3]([C:4]([C:5]#[C:6][H:11])([H:9])[H:10])[H:8])[H:7]>>[O+:1]1=[C:2]([H:7])[N:3]([H:8])[C:4]([H:9])([H:10])[C:5]([H:11])=[C-:6]1"
O       -1.93805555       0.04339087      -0.71009500
C       -1.59159408       0.48027878       0.37805828
N       -0.29786992       0.59570724       0.71018072
C        0.72829366       0.52037287      -0.31779456
C        1.07975176      -0.90060941      -0.55203410
C        0.49675314      -1.98592957      -0.83365556
H       -2.29527556       0.73487121       1.18253471
H       -0.05945201       0.43427505       1.67379734
H        0.45685516       0.95341975      -1.28454751
H        1.57495952       1.12065180       0.01096940
H        1.84563387      -1.99642859      -0.25741374
11
Frame=13 idx=000635 GeodesicLength=1.096893662625341 rxn_smarts="[O:1]=[C:2]([N:3]([C:4]([C:5]#[C:6][H:11])([H:9])[H:10])[H:8])[H:7]>>[O+:1]1=[C:2]([H:7])[N:3]([H:8])[C:4]([H:9])([H:10])[C:5]([H:11])=[C-:6]1"
O       -1.92376234       0.01228640      -0.70699335
C       -1.58954186       0.47505631       0.37589487
N       -0.29950932       0.60247833       0.71192580
C        0.72953718       0.53123579      -0.31470588
C        1.08003344      -0.89020674      -0.54162974
C        0.47810861      -1.97186558      -0.79010653
H       -2.30083290       0.73870471       1.17011955
H       -0.06393076       0.43782007       1.67576062
H        0.47236387       0.96234134      -1.28664987
H        1.57179745       1.13533864       0.01829913
H        1.84573664      -2.03318927      -0.31191460
11
Frame=14 idx=000635 GeodesicLength=1.1810298706909539 rxn_smarts="[O:1]=[C:2]([N:3]([C:4]([C:5]#[C:6][H:11])([H:9])[H:10])[H:8])[H:7]>>[O+:1]1=[C:2]([H:7])[N:3]([H:8])[C:4]([H:9])([H:10])[C:5]([H:11])=[C-:6]1"
O       -1.90884859      -0.01897454      -0.70336094
C       -1.58748206       0.46939662       0.37378879
N       -0.30138877       0.60961945       0.71380380
C        0.73084657       0.54200483      -0.31117703
C        1.08140241      -0.87991058      -0.52899897
C        0.46262843      -1.95753693      -0.74555723
H       -2.30673376       0.74230531       1.15706530
H       -0.06878283       0.44307654       1.67810242
H        0.48838486       0.96995612      -1.28872952
H        1.56815899       1.15076533       0.02564979
H        1.84181475      -2.07070215      -0.37058641
11
Frame=15 idx=000635 GeodesicLength=1.2649353793588487 rxn_smarts="[O:1]=[C:2]([N:3]([C:4]([C:5]#[C:6][H:11])([H:9])[H:10])[H:8])[H:7]>>[O+:1]1=[C:2]([H:7])[N:3]([H:8])[C:4]([H:9])([H:10])[C:5]([H:11])=[C-:6]1"
O       -1.89308778      -0.05046469      -0.69928178
C       -1.58528246       0.46326626       0.37163406
N       -0.30343852       0.61719832       0.71572890
C        0.73230455       0.55269789      -0.30720079
C        1.08402265      -0.86970276      -0.51394348
C        0.45026126      -1.94297658      -0.69994217
H       -2.31286173       0.74503047       1.14338625
H       -0.07394591       0.45021983       1.68075896
H        0.50506774       0.97618483      -1.29076821
H        1.56407762       1.16706279       0.03300502
H        1.83288259      -2.10851636      -0.43337677
11
Frame=16 idx=000635 GeodesicLength=1.3485958168580099 rxn_smarts="[O:1]=[C:2]([N:3]([C:4]([C:5]#[C:6][H:11])([H:9])[H:10])[H:8])[H:7]>>[O+:1]1=[C:2]([H:7])[N:3]([H:8])[C:4]([H:9])([H:10])[C:5]([H:11])=[C-:6]1"
O       -1.87625623      -0.08259907      -0.69473162
C       -1.58288530       0.45644783       0.36938665
N       -0.30567550       0.62521192       0.71772720
C        0.73401830       0.56325389      -0.30264243
C        1.08821126      -0.85959835      -0.49602972
C        0.44118246      -1.92832352      -0.65265062
H       -2.31928855       0.74712540       1.12873497
H       -0.07953445       0.45942930       1.68383322
H        0.52258877       0.98078537      -1.29271515
H        1.55953395       1.18432554       0.04049101
H        1.81810530      -2.14605831      -0.50140351
