13
Frame=0 idx=008810 GeodesicLength=0.0 rxn_smarts="[N:1]([c:2]1[c:3]([O:4][H:10])[n:5]([H:11])[c:6]([H:12])[c:7]1[H:13])([H:8])[H:9]>>[N:1]([C:2]1=[C:3]([O:4][H:10])[N:5]([H:11])[C:6][C:7]1([H:12])[H:13])([H:8])[H:9]"
N       -1.78613417       0.62682571      -0.02243362
C       -0.40572585       0.30987367       0.06785781
C        0.04070391      -0.97307304       0.02850766
O       -0.65598053      -2.10484978      -0.09046101
N        1.40006891      -0.99274548       0.10027943
C        1.96264085       0.25596625       0.27638346
C        0.79526564       1.10379055       0.18332800
H       -2.01826179       1.15019021      -0.85468186
H       -2.12695371       1.13399140       0.78156238
H       -1.58687693      -1.84410181      -0.11671656
H        1.94201324      -1.83661971       0.04261474
H        1.59594684       1.00784660      -0.79727105
H        0.84329365       2.16290543       0.40103065
13
Frame=1 idx=008810 GeodesicLength=0.040676524451347326 rxn_smarts="[N:1]([c:2]1[c:3]([O:4][H:10])[n:5]([H:11])[c:6]([H:12])[c:7]1[H:13])([H:8])[H:9]>>[N:1]([C:2]1=[C:3]([O:4][H:10])[N:5]([H:11])[C:6][C:7]1([H:12])[H:13])([H:8])[H:9]"
N       -1.78733455       0.62637525      -0.02651618
C       -0.40661294       0.30929406       0.06000839
C        0.03834963      -0.97368685       0.02708350
O       -0.65789581      -2.10747687      -0.07908245
N        1.39895154      -0.99362886       0.09966490
C        1.95799786       0.25462529       0.27484076
C        0.79431137       1.10522875       0.17597547
H       -2.02058015       1.15124150      -0.85755600
H       -2.12604227       1.13305346       0.77874553
H       -1.58889739      -1.84743735      -0.10650210
H        1.94119868      -1.83691094       0.03579694
H        1.61660870       1.02045792      -0.80205719
H        0.83994533       2.15886463       0.41959843
13
Frame=2 idx=008810 GeodesicLength=0.08139978468528763 rxn_smarts="[N:1]([c:2]1[c:3]([O:4][H:10])[n:5]([H:11])[c:6]([H:12])[c:7]1[H:13])([H:8])[H:9]>>[N:1]([C:2]1=[C:3]([O:4][H:10])[N:5]([H:11])[C:6][C:7]1([H:12])[H:13])([H:8])[H:9]"
N       -1.78854550       0.62590921      -0.03059392
C       -0.40752734       0.30868135       0.05232299
C        0.03593094      -0.97434210       0.02618556
O       -0.65980058      -2.10999418      -0.06778829
N        1.39780647      -0.99451082       0.09902084
C        1.95334930       0.25334753       0.27294298
C        0.79334886       1.10674006       0.16850465
H       -2.02286154       1.15202418      -0.86061573
H       -2.12514129       1.13237823       0.77576941
H       -1.59093051      -1.85069738      -0.09610505
H        1.94033203      -1.83714991       0.02859788
H        1.63766356       1.03336903      -0.80642804
H        0.83637559       2.15424481       0.43818672
13
Frame=3 idx=008810 GeodesicLength=0.12195098515954567 rxn_smarts="[N:1]([c:2]1[c:3]([O:4][H:10])[n:5]([H:11])[c:6]([H:12])[c:7]1[H:13])([H:8])[H:9]>>[N:1]([C:2]1=[C:3]([O:4][H:10])[N:5]([H:11])[C:6][C:7]1([H:12])[H:13])([H:8])[H:9]"
N       -1.78983588       0.62541762      -0.03312889
C       -0.40849565       0.30805789       0.04572097
C        0.03340499      -0.97496961       0.02778659
O       -0.66153786      -2.11228578      -0.05726047
N        1.39662130      -0.99530185       0.09963647
C        1.94877953       0.25231033       0.27027677
C        0.79240843       1.10837459       0.16024108
H       -2.02571617       1.15168812      -0.86262932
H       -2.12378826       1.13273179       0.77384310
H       -1.59260936      -1.85365974      -0.09075027
H        1.93937583      -1.83728261       0.02286388
H        1.65859554       1.04553494      -0.81139641
H        0.83279756       2.14938431       0.45479650
13
Frame=4 idx=008810 GeodesicLength=0.16261287540030378 rxn_smarts="[N:1]([c:2]1[c:3]([O:4][H:10])[n:5]([H:11])[c:6]([H:12])[c:7]1[H:13])([H:8])[H:9]>>[N:1]([C:2]1=[C:3]([O:4][H:10])[N:5]([H:11])[C:6][C:7]1([H:12])[H:13])([H:8])[H:9]"
N       -1.79105582       0.62494384      -0.03749690
C       -0.40946107       0.30738533       0.03815814
C        0.03087794      -0.97560890       0.02756261
O       -0.66340680      -2.11455157      -0.04673576
N        1.39542471      -0.99614524       0.09873969
C        1.94408626       0.25107018       0.26779173
C        0.79139862       1.10993759       0.15269883
H       -2.02780086       1.15215333      -0.86620221
H       -2.12302464       1.13237233       0.77028506
H       -1.59473685      -1.85684487      -0.07838008
H        1.93838674      -1.83734284       0.01462592
H        1.68058619       1.05917042      -0.81452870
H        0.82872557       2.14346040       0.47348168
13
Frame=5 idx=008810 GeodesicLength=0.20327099970877271 rxn_smarts="[N:1]([c:2]1[c:3]([O:4][H:10])[n:5]([H:11])[c:6]([H:12])[c:7]1[H:13])([H:8])[H:9]>>[N:1]([C:2]1=[C:3]([O:4][H:10])[N:5]([H:11])[C:6][C:7]1([H:12])[H:13])([H:8])[H:9]"
N       -1.79233362       0.62442893      -0.04075984
C       -0.41047015       0.30667946       0.03141929
C        0.02826591      -0.97626190       0.02917273
O       -0.66526954      -2.11676450      -0.03474737
N        1.39420565      -0.99694864       0.09848376
C        1.93948384       0.25002089       0.26453174
C        0.79041359       1.11162488       0.14465050
H       -2.03026945       1.15182191      -0.86906039
H       -2.12195488       1.13273388       0.76750209
H       -1.59658782      -1.85979970      -0.07113351
H        1.93727788      -1.83737154       0.00708036
H        1.70257193       1.07256007      -0.81793336
H        0.82466667       2.13727626       0.49079399
13
Frame=6 idx=008810 GeodesicLength=0.2439458359528073 rxn_smarts="[N:1]([c:2]1[c:3]([O:4][H:10])[n:5]([H:11])[c:6]([H:12])[c:7]1[H:13])([H:8])[H:9]>>[N:1]([C:2]1=[C:3]([O:4][H:10])[N:5]([H:11])[C:6][C:7]1([H:12])[H:13])([H:8])[H:9]"
N       -1.79353185       0.62393415      -0.04604118
C       -0.41146821       0.30592514       0.02364252
C        0.02565985      -0.97690855       0.02883453
O       -0.66719258      -2.11886455      -0.02399938
N        1.39297462      -0.99780931       0.09664990
C        1.93473601       0.24870528       0.26148343
C        0.78933954       1.11319584       0.13742555
H       -2.03187834       1.15235739      -0.87361022
H       -2.12155912       1.13229739       0.76289242
H       -1.59888970      -1.86286943      -0.05520798
H        1.93613041      -1.83729213      -0.00303441
H        1.72565691       1.08746740      -0.81915648
H        0.82002246       2.12986139       0.51012131
13
Frame=7 idx=008810 GeodesicLength=0.2846188695324192 rxn_smarts="[N:1]([c:2]1[c:3]([O:4][H:10])[n:5]([H:11])[c:6]([H:12])[c:7]1[H:13])([H:8])[H:9]>>[N:1]([C:2]1=[C:3]([O:4][H:10])[N:5]([H:11])[C:6][C:7]1([H:12])[H:13])([H:8])[H:9]"
N       -1.79474411       0.62340610      -0.05131940
C       -0.41249102       0.30512523       0.01604884
C        0.02299697      -0.97756918       0.02899680
O       -0.66913315      -2.12089815      -0.01264594
N        1.39172366      -0.99867557       0.09464121
C        1.93000849       0.24741078       0.25796855
C        0.78825292       1.11480162       0.13020500
H       -2.03342783       1.15268287      -0.87829295
H       -2.12122105       1.13201822       0.75814895
H       -1.60114380      -1.86577772      -0.03960315
H        1.93486305      -1.83716177      -0.01363034
H        1.74911664       1.10278417      -0.81966766
H        0.81519925       2.12185341       0.52915009
13
Frame=8 idx=008810 GeodesicLength=0.3252673393561629 rxn_smarts="[N:1]([c:2]1[c:3]([O:4][H:10])[n:5]([H:11])[c:6]([H:12])[c:7]1[H:13])([H:8])[H:9]>>[N:1]([C:2]1=[C:3]([O:4][H:10])[N:5]([H:11])[C:6][C:7]1([H:12])[H:13])([H:8])[H:9]"
N       -1.79599771       0.62283717      -0.05603476
C       -0.41355379       0.30428452       0.00900072
C        0.02026711      -0.97822351       0.03038415
O       -0.67102951      -2.12283848      -0.00148618
N        1.39044849      -0.99952215       0.09295868
C        1.92533973       0.24621855       0.25384059
C        0.78716728       1.11648106       0.12275891
H       -2.03512969       1.15249261      -0.88268417
H       -2.12078252       1.13218061       0.75371943
H       -1.60327784      -1.86855470      -0.02583484
H        1.93345078      -1.83700546      -0.02387647
H        1.77276057       1.11815807      -0.81987714
H        0.81033711       2.11349170       0.54713109
13
Frame=9 idx=008810 GeodesicLength=0.36590047451029745 rxn_smarts="[N:1]([c:2]1[c:3]([O:4][H:10])[n:5]([H:11])[c:6]([H:12])[c:7]1[H:13])([H:8])[H:9]>>[N:1]([C:2]1=[C:3]([O:4][H:10])[N:5]([H:11])[C:6][C:7]1([H:12])[H:13])([H:8])[H:9]"
N       -1.79728919       0.62222782      -0.06037179
C       -0.41465609       0.30339790       0.00235294
C        0.01747984      -0.97886488       0.03270699
O       -0.67288841      -2.12470832       0.00919393
N        1.38914674      -1.00036319       0.09149761
C        1.92071265       0.24510001       0.24917631
C        0.78607229       1.11821405       0.11515718
H       -2.03692871       1.15192315      -0.88689912
H       -2.12029663       1.13265095       0.74948017
H       -1.60535548      -1.87124707      -0.01297464
H        1.93189093      -1.83683463      -0.03391662
H        1.79668937       1.13370171      -0.81959322
H        0.80542268       2.10480250       0.56419027
13
Frame=10 idx=008810 GeodesicLength=0.4065267249185876 rxn_smarts="[N:1]([c:2]1[c:3]([O:4][H:10])[n:5]([H:11])[c:6]([H:12])[c:7]1[H:13])([H:8])[H:9]>>[N:1]([C:2]1=[C:3]([O:4][H:10])[N:5]([H:11])[C:6][C:7]1([H:12])[H:13])([H:8])[H:9]"
N       -1.79859289       0.62157827      -0.06493595
C       -0.41578636       0.30245791      -0.00425593
C        0.01466045      -0.97949562       0.03520228
O       -0.67474895      -2.12651979       0.01917472
N        1.38781589      -1.00122679       0.08978688
C        1.91608302       0.24395833       0.24411873
C        0.78493687       1.11994866       0.10766678
H       -2.03858461       1.15129320      -0.89139507
H       -2.11996303       1.13310999       0.74493337
H       -1.60746479      -1.87384195       0.00145081
H        1.93018268      -1.83663834      -0.04443777
H        1.82110291       1.14977656      -0.81826396
H        0.80035882       2.09559958       0.58095510
13
Frame=11 idx=008810 GeodesicLength=0.4471196266705171 rxn_smarts="[N:1]([c:2]1[c:3]([O:4][H:10])[n:5]([H:11])[c:6]([H:12])[c:7]1[H:13])([H:8])[H:9]>>[N:1]([C:2]1=[C:3]([O:4][H:10])[N:5]([H:11])[C:6][C:7]1([H:12])[H:13])([H:8])[H:9]"
N       -1.79996318       0.62088324      -0.06863948
C       -0.41697513       0.30147009      -0.01019365
C        0.01177839      -0.98008512       0.03914497
O       -0.67654004      -2.12828617       0.02832327
N        1.38645095      -1.00206058       0.08870798
C        1.91152140       0.24295748       0.23837249
C        0.78379896       1.12176021       0.09980272
H       -2.04054027       1.15006830      -0.89531737
H       -2.11943557       1.13407698       0.74099604
H       -1.60946606      -1.87642086       0.01342476
H        1.92830251      -1.83646372      -0.05401945
H        1.84566832       1.16574460      -0.81676709
H        0.79539971       2.08635555       0.59616480
13
Frame=12 idx=008810 GeodesicLength=0.487738486014751 rxn_smarts="[N:1]([c:2]1[c:3]([O:4][H:10])[n:5]([H:11])[c:6]([H:12])[c:7]1[H:13])([H:8])[H:9]>>[N:1]([C:2]1=[C:3]([O:4][H:10])[N:5]([H:11])[C:6][C:7]1([H:12])[H:13])([H:8])[H:9]"
N       -1.80138811       0.62013932      -0.07206936
C       -0.41821692       0.30042338      -0.01580940
C        0.00884813      -0.98064462       0.04379129
O       -0.67831421      -2.13002483       0.03662567
N        1.38505374      -1.00289362       0.08778754
C        1.90699757       0.24200553       0.23205982
C        0.78263803       1.12360310       0.09181844
H       -2.04257427       1.14854882      -0.89912312
H       -2.11891742       1.13524729       0.73719100
H       -1.61145102      -1.87897212       0.02520406
H        1.92625877      -1.83630195      -0.06336837
H        1.87059944       1.18197514      -0.81458127
H        0.79046627       2.07689455       0.61047369
13
Frame=13 idx=008810 GeodesicLength=0.5282700893984771 rxn_smarts="[N:1]([c:2]1[c:3]([O:4][H:10])[n:5]([H:11])[c:6]([H:12])[c:7]1[H:13])([H:8])[H:9]>>[N:1]([C:2]1=[C:3]([O:4][H:10])[N:5]([H:11])[C:6][C:7]1([H:12])[H:13])([H:8])[H:9]"
N       -1.80284364       0.61935978      -0.07505644
C       -0.41950709       0.29932020      -0.02099657
C        0.00591154      -0.98115705       0.04931809
O       -0.68005227      -2.13173863       0.04431998
N        1.38362952      -1.00373657       0.08714928
C        1.90250118       0.24109955       0.22509096
C        0.78140787       1.12547152       0.08364111
H       -2.04473223       1.14667032      -0.90265417
H       -2.11833487       1.13670646       0.73363773
H       -1.61338872      -1.88151940       0.03596265
H        1.92404249      -1.83619901      -0.07229407
H        1.89575452       1.19839645      -0.81180211
H        0.78561169       2.06732639       0.62368357
13
Frame=14 idx=008810 GeodesicLength=0.5687177748245094 rxn_smarts="[N:1]([c:2]1[c:3]([O:4][H:10])[n:5]([H:11])[c:6]([H:12])[c:7]1[H:13])([H:8])[H:9]>>[N:1]([C:2]1=[C:3]([O:4][H:10])[N:5]([H:11])[C:6][C:7]1([H:12])[H:13])([H:8])[H:9]"
N       -1.80441395       0.61853963      -0.07644156
C       -0.42089366       0.29815625      -0.02511451
C        0.00290050      -0.98154763       0.05702650
O       -0.68166087      -2.13344959       0.05216307
N        1.38214550      -1.00446069       0.08766886
C        1.89809624       0.24044045       0.21715227
C        0.78018136       1.12741838       0.07473244
H       -2.04749608       1.14390103      -0.90496507
H       -2.11733373       1.13895181       0.73134064
H       -1.61517905      -1.88428092       0.04071661
H        1.92158856      -1.83611866      -0.07941694
H        1.92090704       1.21427503      -0.80943478
H        0.78115816       2.05817492       0.63457247
13
Frame=15 idx=008810 GeodesicLength=0.6091937360817539 rxn_smarts="[N:1]([c:2]1[c:3]([O:4][H:10])[n:5]([H:11])[c:6]([H:12])[c:7]1[H:13])([H:8])[H:9]>>[N:1]([C:2]1=[C:3]([O:4][H:10])[N:5]([H:11])[C:6][C:7]1([H:12])[H:13])([H:8])[H:9]"
N       -1.80605492       0.61768814      -0.07725645
C       -0.42235488       0.29692823      -0.02882154
C       -0.00013170      -0.98187332       0.06548642
O       -0.68323382      -2.13512382       0.06076789
N        1.38062959      -1.00518049       0.08839535
C        1.89372350       0.23981398       0.20838000
C        0.77888968       1.12938491       0.06553844
H       -2.05049621       1.14082200      -0.90683609
H       -2.11622947       1.14144683       0.72948773
H       -1.61690275      -1.88714280       0.04298723
H        1.91894616      -1.83616502      -0.08592254
H        1.94632518       1.23039456      -0.80656971
H        0.77688964       2.04900680       0.64436327
13
Frame=16 idx=008810 GeodesicLength=0.6496719847845325 rxn_smarts="[N:1]([c:2]1[c:3]([O:4][H:10])[n:5]([H:11])[c:6]([H:12])[c:7]1[H:13])([H:8])[H:9]>>[N:1]([C:2]1=[C:3]([O:4][H:10])[N:5]([H:11])[C:6][C:7]1([H:12])[H:13])([H:8])[H:9]"
N       -1.80774191       0.61679588      -0.07812311
C       -0.42387405       0.29563439      -0.03252654
C       -0.00317927      -0.98214109       0.07396797
O       -0.68482503      -2.13675084       0.07019390
N        1.37906976      -1.00591435       0.08883833
C        1.88933111       0.23913674       0.19887678
C        0.77752061       1.13132610       0.05629712
H       -2.05351596       1.13769741      -0.90876026
H       -2.11519649       1.14390153       0.72754863
H       -1.61859617      -1.89003441       0.04517507
H        1.91608771      -1.83627680      -0.09270482
H        1.97225135       1.24708803      -0.80251878
H        0.77266835       2.03953742       0.65373573
