10
Frame=0 idx=002244 GeodesicLength=0.0 rxn_smarts="[O:1]([C:2]([C:3](=[O:4])[C:5]#[C:6][H:10])([H:8])[H:9])[H:7]>>[O:1]1[C:2]([H:8])([H:9])[C@:3]1([O:4][H:7])[C:5]#[C:6][H:10]"
O       -1.53957195      -0.19891841      -1.30180161
C       -1.13945716       0.60094388      -0.26942257
C       -0.09815494      -0.36622894       0.17211332
O       -0.47426331      -1.58533519       0.34930837
C        1.27940926      -0.07091485       0.30171561
C        2.42431182       0.26204698       0.42433897
H       -1.33810420      -1.54169436      -0.18219431
H       -1.88678332       0.79854840       0.52434726
H       -0.67408251       1.55736780      -0.55141220
H        3.44669630       0.54418468       0.53300717
10
Frame=1 idx=002244 GeodesicLength=0.07468987231267654 rxn_smarts="[O:1]([C:2]([C:3](=[O:4])[C:5]#[C:6][H:10])([H:8])[H:9])[H:7]>>[O:1]1[C:2]([H:8])([H:9])[C@:3]1([O:4][H:7])[C:5]#[C:6][H:10]"
O       -1.53450294      -0.20988062      -1.28863642
C       -1.13771512       0.60556697      -0.26415298
C       -0.09925074      -0.36803131       0.16781783
O       -0.47609423      -1.58624280       0.35450471
C        1.27943935      -0.06973019       0.29787713
C        2.42469850       0.26242774       0.41748330
H       -1.34525659      -1.54299803      -0.19911610
H       -1.88117023       0.80339589       0.53153088
H       -0.67464677       1.55832807      -0.55933334
H        3.44449877       0.54716428       0.54202498
10
Frame=2 idx=002244 GeodesicLength=0.14938056576487274 rxn_smarts="[O:1]([C:2]([C:3](=[O:4])[C:5]#[C:6][H:10])([H:8])[H:9])[H:7]>>[O:1]1[C:2]([H:8])([H:9])[C@:3]1([O:4][H:7])[C:5]#[C:6][H:10]"
O       -1.53037682      -0.22049677      -1.27519204
C       -1.13567770       0.61005074      -0.25896964
C       -0.10006169      -0.37015801       0.16278219
O       -0.47756995      -1.58735885       0.35933238
C        1.27998680      -0.06920058       0.29178664
C        2.42548380       0.26226320       0.40927021
H       -1.35341266      -1.54402817      -0.21472412
H       -1.87447951       0.80845470       0.53925915
H       -0.67517855       1.55898096      -0.56766602
H        3.44128628       0.55149278       0.55412125
10
Frame=3 idx=002244 GeodesicLength=0.2240685030667675 rxn_smarts="[O:1]([C:2]([C:3](=[O:4])[C:5]#[C:6][H:10])([H:8])[H:9])[H:7]>>[O:1]1[C:2]([H:8])([H:9])[C@:3]1([O:4][H:7])[C:5]#[C:6][H:10]"
O       -1.52709156      -0.23076874      -1.26160457
C       -1.13334383       0.61437837      -0.25393661
C       -0.10059611      -0.37261146       0.15693963
O       -0.47863582      -1.58869723       0.36370264
C        1.28102475      -0.06927481       0.28346331
C        2.42609439       0.26233339       0.40293993
H       -1.36254306      -1.54482660      -0.22927544
H       -1.86674760       0.81362921       0.54743233
H       -0.67573351       1.55934368      -0.57640126
H        3.43757235       0.55649418       0.56674004
10
Frame=4 idx=002244 GeodesicLength=0.2987685268665498 rxn_smarts="[O:1]([C:2]([C:3](=[O:4])[C:5]#[C:6][H:10])([H:8])[H:9])[H:7]>>[O:1]1[C:2]([H:8])([H:9])[C@:3]1([O:4][H:7])[C:5]#[C:6][H:10]"
O       -1.52561570      -0.24082525      -1.24735163
C       -1.13064476       0.61855014      -0.24903591
C       -0.10061645      -0.37549801       0.14954161
O       -0.47903267      -1.59025553       0.36746483
C        1.28295088      -0.07026090       0.27085412
C        2.42665370       0.26270199       0.39785300
H       -1.37299755      -1.54534467      -0.24219779
H       -1.85712555       0.81917833       0.55668383
H       -0.67641962       1.55927835      -0.58609785
H        3.43284770       0.56247555       0.58228579
10
Frame=5 idx=002244 GeodesicLength=0.37347137173512723 rxn_smarts="[O:1]([C:2]([C:3](=[O:4])[C:5]#[C:6][H:10])([H:8])[H:9])[H:7]>>[O:1]1[C:2]([H:8])([H:9])[C@:3]1([O:4][H:7])[C:5]#[C:6][H:10]"
O       -1.52155475      -0.25037566      -1.23457527
C       -1.12801302       0.62258298      -0.24425027
C       -0.10113709      -0.37803528       0.14397881
O       -0.47940415      -1.59176804       0.37171631
C        1.28394287      -0.07009505       0.26298231
C        2.42702723       0.26328342       0.39285736
H       -1.38307399      -1.54582312      -0.25598231
H       -1.84943573       0.82381143       0.56428163
H       -0.67731454       1.55950402      -0.59428115
H        3.42896317       0.56691530       0.59327258
10
Frame=6 idx=002244 GeodesicLength=0.4481832253849599 rxn_smarts="[O:1]([C:2]([C:3](=[O:4])[C:5]#[C:6][H:10])([H:8])[H:9])[H:7]>>[O:1]1[C:2]([H:8])([H:9])[C@:3]1([O:4][H:7])[C:5]#[C:6][H:10]"
O       -1.51629887      -0.25958780      -1.22262350
C       -1.12541984       0.62646601      -0.23958468
C       -0.10185728      -0.38040452       0.13923551
O       -0.47953339      -1.59327942       0.37618941
C        1.28453552      -0.06927816       0.25712137
C        2.42723026       0.26434360       0.38828203
H       -1.39320577      -1.54620821      -0.26997004
H       -1.84265561       0.82789466       0.57106115
H       -0.67847852       1.55982181      -0.60173640
H        3.42568351       0.57023202       0.60202515
10
Frame=7 idx=002244 GeodesicLength=0.5229049846739227 rxn_smarts="[O:1]([C:2]([C:3](=[O:4])[C:5]#[C:6][H:10])([H:8])[H:9])[H:7]>>[O:1]1[C:2]([H:8])([H:9])[C@:3]1([O:4][H:7])[C:5]#[C:6][H:10]"
O       -1.51036348      -0.26847781      -1.21123327
C       -1.12276590       0.63020655      -0.23501628
C       -0.10266647      -0.38276201       0.13493383
O       -0.47945755      -1.59485078       0.38080064
C        1.28495152      -0.06821217       0.25225669
C        2.42734117       0.26559204       0.38411718
H       -1.40366291      -1.54645087      -0.28396060
H       -1.83628503       0.83163594       0.57736581
H       -0.67976665       1.56013020      -0.60873791
H        3.42267531       0.57318891       0.60947391
10
Frame=8 idx=002244 GeodesicLength=0.5976399572884687 rxn_smarts="[O:1]([C:2]([C:3](=[O:4])[C:5]#[C:6][H:10])([H:8])[H:9])[H:7]>>[O:1]1[C:2]([H:8])([H:9])[C@:3]1([O:4][H:7])[C:5]#[C:6][H:10]"
O       -1.50396340      -0.27706080      -1.20028531
C       -1.12000324       0.63380872      -0.23052722
C       -0.10351950      -0.38517954       0.13092507
O       -0.47920405      -1.59650872       0.38553853
C        1.28528567      -0.06708421       0.24796977
C        2.42740457       0.26688703       0.38027439
H       -1.41456261      -1.54652489      -0.29790528
H       -1.83010393       0.83513280       0.58334849
H       -0.68110100       1.56038352      -0.61540018
H        3.41976749       0.57614609       0.61606174
10
Frame=9 idx=002244 GeodesicLength=0.6723831852736011 rxn_smarts="[O:1]([C:2]([C:3](=[O:4])[C:5]#[C:6][H:10])([H:8])[H:9])[H:7]>>[O:1]1[C:2]([H:8])([H:9])[C@:3]1([O:4][H:7])[C:5]#[C:6][H:10]"
O       -1.49733611      -0.28534402      -1.18964891
C       -1.11706210       0.63727762      -0.22609919
C       -0.10436248      -0.38774539       0.12703048
O       -0.47880299      -1.59828309       0.39038093
C        1.28565002      -0.06611900       0.24377941
C        2.42747380       0.26804089       0.37669598
H       -1.42605082      -1.54639723      -0.31173401
H       -1.82384232       0.83849155       0.58918117
H       -0.68238977       1.56053034      -0.62184400
H        3.41672278       0.57954834       0.62225814
10
Frame=10 idx=002244 GeodesicLength=0.7471420503259053 rxn_smarts="[O:1]([C:2]([C:3](=[O:4])[C:5]#[C:6][H:10])([H:8])[H:9])[H:7]>>[O:1]1[C:2]([H:8])([H:9])[C@:3]1([O:4][H:7])[C:5]#[C:6][H:10]"
O       -1.49110023      -0.29340931      -1.17899446
C       -1.11388121       0.64061108      -0.22172990
C       -0.10503709      -0.39053703       0.12275006
O       -0.47807095      -1.60017373       0.39520387
C        1.28630985      -0.06552621       0.23832715
C        2.42757665       0.26914145       0.37332694
H       -1.43837236      -1.54603348      -0.32508072
H       -1.81691915       0.84187599       0.59527288
H       -0.68370921       1.56047693      -0.62843856
H        3.41320369       0.58357432       0.62936273
10
Frame=11 idx=002244 GeodesicLength=0.8219102059775936 rxn_smarts="[O:1]([C:2]([C:3](=[O:4])[C:5]#[C:6][H:10])([H:8])[H:9])[H:7]>>[O:1]1[C:2]([H:8])([H:9])[C@:3]1([O:4][H:7])[C:5]#[C:6][H:10]"
O       -1.48536571      -0.30127126      -1.16825468
C       -1.11041295       0.64381361      -0.21740964
C       -0.10551048      -0.39359527       0.11798608
O       -0.47698836      -1.60218945       0.40000575
C        1.28732868      -0.06540743       0.23132989
C        2.42772545       0.27014469       0.37012639
H       -1.45161134      -1.54541917      -0.33790418
H       -1.80916406       0.84533914       0.60172222
H       -0.68504115       1.56020223      -0.63525064
H        3.40903991       0.58838291       0.63764882
10
Frame=12 idx=002244 GeodesicLength=0.8967219300817713 rxn_smarts="[O:1]([C:2]([C:3](=[O:4])[C:5]#[C:6][H:10])([H:8])[H:9])[H:7]>>[O:1]1[C:2]([H:8])([H:9])[C@:3]1([O:4][H:7])[C:5]#[C:6][H:10]"
O       -1.48043188      -0.30892634      -1.15725252
C       -1.10649017       0.64688483      -0.21311398
C       -0.10569789      -0.39705916       0.11246313
O       -0.47556380      -1.60440299       0.40468466
C        1.28888668      -0.06609802       0.22205143
C        2.42798741       0.27069329       0.36711261
H       -1.46606005      -1.54445432      -0.35001493
H       -1.80010019       0.84901389       0.60877746
H       -0.68622990       1.55962340      -0.64243544
H        3.40369979       0.59472541       0.64772758
10
Frame=13 idx=002244 GeodesicLength=0.9715343846502758 rxn_smarts="[O:1]([C:2]([C:3](=[O:4])[C:5]#[C:6][H:10])([H:8])[H:9])[H:7]>>[O:1]1[C:2]([H:8])([H:9])[C@:3]1([O:4][H:7])[C:5]#[C:6][H:10]"
O       -1.47586950      -0.31636855      -1.14618332
C       -1.10223474       0.64981393      -0.20885819
C       -0.10568631      -0.40079297       0.10653694
O       -0.47375570      -1.60668799       0.40939536
C        1.29078366      -0.06728273       0.21141829
C        2.42827314       0.27108296       0.36418450
H       -1.48142687      -1.54317498      -0.36169952
H       -1.79018689       0.85273910       0.61612014
H       -0.68742483       1.55879451      -0.64975959
H        3.39752805       0.60187672       0.65884539
10
Frame=14 idx=002244 GeodesicLength=1.0463936298953542 rxn_smarts="[O:1]([C:2]([C:3](=[O:4])[C:5]#[C:6][H:10])([H:8])[H:9])[H:7]>>[O:1]1[C:2]([H:8])([H:9])[C@:3]1([O:4][H:7])[C:5]#[C:6][H:10]"
O       -1.47153277      -0.32355579      -1.13509106
C       -1.09748124       0.65261822      -0.20460864
C       -0.10550475      -0.40491679       0.10027214
O       -0.47172520      -1.60920343       0.41409649
C        1.29299201      -0.06918681       0.19965123
C        2.42864154       0.27075675       0.36144096
H       -1.49789452      -1.54148757      -0.37303519
H       -1.77930806       0.85655618       0.62374120
H       -0.68833716       1.55774811      -0.65712585
H        3.39015014       0.61067112       0.67065871
10
Frame=15 idx=002244 GeodesicLength=1.1212665768396806 rxn_smarts="[O:1]([C:2]([C:3](=[O:4])[C:5]#[C:6][H:10])([H:8])[H:9])[H:7]>>[O:1]1[C:2]([H:8])([H:9])[C@:3]1([O:4][H:7])[C:5]#[C:6][H:10]"
O       -1.46660005      -0.33055461      -1.12444325
C       -1.09256620       0.65527706      -0.20038771
C       -0.10537107      -0.40911369       0.09443932
O       -0.46953491      -1.61176534       0.41912532
C        1.29511728      -0.07106514       0.18868762
C        2.42899351       0.27033928       0.35880119
H       -1.51485603      -1.53948959      -0.38467442
H       -1.76863047       0.86011646       0.63102633
H       -0.68921310       1.55664311      -0.66408515
H        3.38266105       0.61961245       0.68151074
10
Frame=16 idx=002244 GeodesicLength=1.1961431249108305 rxn_smarts="[O:1]([C:2]([C:3](=[O:4])[C:5]#[C:6][H:10])([H:8])[H:9])[H:7]>>[O:1]1[C:2]([H:8])([H:9])[C@:3]1([O:4][H:7])[C:5]#[C:6][H:10]"
O       -1.46091392      -0.33740319      -1.11431024
C       -1.08758082       0.65778527      -0.19619808
C       -0.10533324      -0.41331155       0.08920626
O       -0.46718847      -1.61433805       0.42456805
C        1.29706521      -0.07275118       0.17889918
C        2.42931650       0.26997424       0.35625202
H       -1.53219093      -1.53718470      -0.39678443
H       -1.75843284       0.86334094       0.63784099
H       -0.69011197       1.55552024      -0.67055399
H        3.37537049       0.62836800       0.69108023
