17
Frame=0 idx=010767 GeodesicLength=0.0 rxn_smarts="[O:1]=[C:2]([C:3]([C:4]([C:5]1([H:13])[C:6]([H:14])([H:15])[C:7]1([H:16])[H:17])([H:11])[H:12])([H:9])[H:10])[H:8]>>[C:3]([C:4]([C:5]1([H:13])[C:6]([H:14])([H:15])[C:7]1([H:16])[H:17])([H:11])[H:12])([H:8])([H:9])[H:10].[O+:1]#[C-:2]"
O        1.83238093      -1.40708206       2.14714782
C        2.60558886      -0.90254001       1.43562451
C        1.62325291      -0.18281272      -0.19734003
C        0.39767837       0.48869868       0.36819129
C       -0.74752070       0.60289908      -0.61432548
C       -1.66982711      -0.55964452      -0.81928171
C       -2.15943337       0.67498279      -0.11730482
H        3.05482801      -0.33484538       0.60717402
H        2.18906439       0.44781427      -0.89319018
H        1.41361331      -1.14521723      -0.67233041
H        0.65479866       1.48752026       0.73721667
H        0.04676087      -0.08481948       1.23602765
H       -0.52749676       1.19052738      -1.49989392
H       -2.03796050      -0.76237115      -1.81642130
H       -1.49937706      -1.44436314      -0.21709684
H       -2.85930881       1.31612651      -0.63694896
H       -2.31704198       0.61512673       0.95275167
17
Frame=1 idx=010767 GeodesicLength=0.0885651262557229 rxn_smarts="[O:1]=[C:2]([C:3]([C:4]([C:5]1([H:13])[C:6]([H:14])([H:15])[C:7]1([H:16])[H:17])([H:11])[H:12])([H:9])[H:10])[H:8]>>[C:3]([C:4]([C:5]1([H:13])[C:6]([H:14])([H:15])[C:7]1([H:16])[H:17])([H:11])[H:12])([H:8])([H:9])[H:10].[O+:1]#[C-:2]"
O        1.86889634      -1.35624137       2.20717317
C        2.61936934      -0.90299075       1.44010429
C        1.62017249      -0.19196961      -0.19448434
C        0.39377449       0.47801368       0.37377180
C       -0.74749262       0.60504815      -0.61138335
C       -1.67141282      -0.55330979      -0.83272997
C       -2.16121690       0.67476647      -0.11940768
H        3.05870372      -0.34819716       0.57000753
H        2.16923029       0.43887727      -0.90373506
H        1.40492368      -1.15350198      -0.66931538
H        0.65295680       1.47233010       0.75319856
H        0.03780282      -0.10210537       1.23486914
H       -0.52287111       1.20193153      -1.48966048
H       -2.03604223      -0.74436780      -1.83346152
H       -1.50558321      -1.44490471      -0.23940902
H       -2.85772261       1.32297800      -0.63482244
H       -2.32348848       0.60364332       0.94928476
17
Frame=2 idx=010767 GeodesicLength=0.17668022172527476 rxn_smarts="[O:1]=[C:2]([C:3]([C:4]([C:5]1([H:13])[C:6]([H:14])([H:15])[C:7]1([H:16])[H:17])([H:11])[H:12])([H:9])[H:10])[H:8]>>[C:3]([C:4]([C:5]1([H:13])[C:6]([H:14])([H:15])[C:7]1([H:16])[H:17])([H:11])[H:12])([H:8])([H:9])[H:10].[O+:1]#[C-:2]"
O        1.90717657      -1.29912752       2.26655393
C        2.63153239      -0.90563167       1.44449259
C        1.61708158      -0.20125470      -0.19180879
C        0.38984616       0.46690843       0.37930289
C       -0.74742877       0.60706056      -0.60827302
C       -1.67288794      -0.54683060      -0.84633045
C       -2.16286776       0.67429674      -0.12135065
H        3.06109958      -0.36404796       0.53339574
H        2.14994074       0.43023649      -0.91295104
H        1.39610190      -1.16123916      -0.66769914
H        0.65106676       1.45641744       0.76951090
H        0.02899231      -0.12011719       1.23333064
H       -0.51821269       1.21329811      -1.47893085
H       -2.03404291      -0.72589841      -1.85052977
H       -1.51164729      -1.44532439      -0.26228471
H       -2.85599896       1.32962948      -0.63220765
H       -2.32975167       0.59162433       0.94577939
17
Frame=3 idx=010767 GeodesicLength=0.26474736975647417 rxn_smarts="[O:1]=[C:2]([C:3]([C:4]([C:5]1([H:13])[C:6]([H:14])([H:15])[C:7]1([H:16])[H:17])([H:11])[H:12])([H:9])[H:10])[H:8]>>[C:3]([C:4]([C:5]1([H:13])[C:6]([H:14])([H:15])[C:7]1([H:16])[H:17])([H:11])[H:12])([H:8])([H:9])[H:10].[O+:1]#[C-:2]"
O        1.94785073      -1.23553554       2.32476998
C        2.64180341      -0.91085984       1.44908781
C        1.61409571      -0.21071139      -0.18935186
C        0.38582804       0.45531319       0.38479182
C       -0.74737890       0.60893553      -0.60503912
C       -1.67432130      -0.54022850      -0.86002374
C       -2.16455702       0.67368114      -0.12315797
H        3.06208861      -0.38247134       0.49763689
H        2.13151817       0.42213133      -0.92073618
H        1.38737550      -1.16842718      -0.66769440
H        0.64895857       1.43975183       0.78617118
H        0.02026520      -0.13901245       1.23147681
H       -0.51350143       1.22462828      -1.46784254
H       -2.03197824      -0.70700252      -1.86758579
H       -1.51766062      -1.44569665      -0.28555962
H       -2.85430755       1.33627282      -0.62920945
H       -2.33607888       0.57923129       0.94226618
17
Frame=4 idx=010767 GeodesicLength=0.3524439395344223 rxn_smarts="[O:1]=[C:2]([C:3]([C:4]([C:5]1([H:13])[C:6]([H:14])([H:15])[C:7]1([H:16])[H:17])([H:11])[H:12])([H:9])[H:10])[H:8]>>[C:3]([C:4]([C:5]1([H:13])[C:6]([H:14])([H:15])[C:7]1([H:16])[H:17])([H:11])[H:12])([H:8])([H:9])[H:10].[O+:1]#[C-:2]"
O        1.99108170      -1.16568423       2.38045828
C        2.64950441      -0.91868049       1.45435589
C        1.61117006      -0.22021521      -0.18703278
C        0.38175380       0.44332033       0.39023104
C       -0.74730498       0.61059856      -0.60166342
C       -1.67568797      -0.53356275      -0.87368308
C       -2.16615854       0.67286077      -0.12484403
H        3.06143736      -0.40372542       0.46307862
H        2.11414052       0.41483262      -0.92673667
H        1.37867594      -1.17476369      -0.66949972
H        0.64668949       1.42241881       0.80308483
H        0.01169340      -0.15853002       1.22932613
H       -0.50872698       1.23568538      -1.45639050
H       -2.02988199      -0.68787583      -1.88443859
H       -1.52359872      -1.44593654      -0.30905849
H       -2.85250556       1.34271410      -0.62587277
H       -2.34228195       0.56654359       0.93868525
17
Frame=5 idx=010767 GeodesicLength=0.4399936687920779 rxn_smarts="[O:1]=[C:2]([C:3]([C:4]([C:5]1([H:13])[C:6]([H:14])([H:15])[C:7]1([H:16])[H:17])([H:11])[H:12])([H:9])[H:10])[H:8]>>[C:3]([C:4]([C:5]1([H:13])[C:6]([H:14])([H:15])[C:7]1([H:16])[H:17])([H:11])[H:12])([H:8])([H:9])[H:10].[O+:1]#[C-:2]"
O        2.03715353      -1.09090781       2.43235556
C        2.65428625      -0.92869397       1.46092820
C        1.60836370      -0.22968399      -0.18481903
C        0.37758565       0.43105767       0.39563174
C       -0.74722529       0.61205149      -0.59819907
C       -1.67698218      -0.52693895      -0.88714209
C       -2.16775964       0.67193258      -0.12645270
H        3.05917224      -0.42775362       0.43001429
H        2.09806722       0.40857346      -0.93087216
H        1.37016129      -1.18016482      -0.67314300
H        0.64414916       1.40465586       0.82011981
H        0.00323523      -0.17843543       1.22704694
H       -0.50387459       1.24635976      -1.44478892
H       -2.02769154      -0.66880572      -1.90093225
H       -1.52945151      -1.44610414      -0.33241056
H       -2.85068839       1.34900544      -0.62239826
H       -2.34850112       0.55385219       0.93506149
17
Frame=6 idx=010767 GeodesicLength=0.5272717623095281 rxn_smarts="[O:1]=[C:2]([C:3]([C:4]([C:5]1([H:13])[C:6]([H:14])([H:15])[C:7]1([H:16])[H:17])([H:11])[H:12])([H:9])[H:10])[H:8]>>[C:3]([C:4]([C:5]1([H:13])[C:6]([H:14])([H:15])[C:7]1([H:16])[H:17])([H:11])[H:12])([H:8])([H:9])[H:10].[O+:1]#[C-:2]"
O        2.08608830      -1.01288878       2.47915964
C        2.65605543      -0.93986721       1.46945309
C        1.60563693      -0.23907789      -0.18258456
C        0.37332414       0.41865189       0.40100875
C       -0.74713010       0.61328421      -0.59466138
C       -1.67818820      -0.52039282      -0.90031252
C       -2.16933592       0.67091909      -0.12803885
H        3.05527285      -0.45434142       0.39860011
H        2.08329016       0.40330223      -0.93312904
H        1.36182389      -1.18464240      -0.67829102
H        0.64136381       1.38663301       0.83712956
H       -0.00513445      -0.19840315       1.22475179
H       -0.49893926       1.25654163      -1.43310459
H       -2.02538531      -0.64994360      -1.91696465
H       -1.53519855      -1.44615330      -0.35543572
H       -2.84882555       1.35509179      -0.61891778
H       -2.35471818       0.54128669       0.93133717
17
Frame=7 idx=010767 GeodesicLength=0.6142148954174613 rxn_smarts="[O:1]=[C:2]([C:3]([C:4]([C:5]1([H:13])[C:6]([H:14])([H:15])[C:7]1([H:16])[H:17])([H:11])[H:12])([H:9])[H:10])[H:8]>>[C:3]([C:4]([C:5]1([H:13])[C:6]([H:14])([H:15])[C:7]1([H:16])[H:17])([H:11])[H:12])([H:8])([H:9])[H:10].[O+:1]#[C-:2]"
O        2.13776286      -0.93352502       2.52001467
C        2.65511817      -0.95096993       1.48039556
C        1.60294204      -0.24843102      -0.18019687
C        0.36896527       0.40618666       0.40638768
C       -0.74701722       0.61430512      -0.59106210
C       -1.67930415      -0.51391283      -0.91316333
C       -2.17089250       0.66986147      -0.12967230
H        3.04983253      -0.48291260       0.36889618
H        2.06965066       0.39874754      -0.93368639
H        1.35362813      -1.18837332      -0.68439877
H        0.63837255       1.36845977       0.85399949
H       -0.01348284      -0.21818112       1.22253361
H       -0.49391356       1.26618726      -1.42137080
H       -2.02293711      -0.63133363      -1.93250446
H       -1.54084491      -1.44602221      -0.37804155
H       -2.84691532       1.36097112      -0.61556391
H       -2.36096461       0.52894275       0.92743329
17
Frame=8 idx=010767 GeodesicLength=0.7011862542340245 rxn_smarts="[O:1]=[C:2]([C:3]([C:4]([C:5]1([H:13])[C:6]([H:14])([H:15])[C:7]1([H:16])[H:17])([H:11])[H:12])([H:9])[H:10])[H:8]>>[C:3]([C:4]([C:5]1([H:13])[C:6]([H:14])([H:15])[C:7]1([H:16])[H:17])([H:11])[H:12])([H:8])([H:9])[H:10].[O+:1]#[C-:2]"
O        2.19212612      -0.85366445       2.55474759
C        2.65194324      -0.96115674       1.49402985
C        1.60025137      -0.25794064      -0.17759520
C        0.36442754       0.39365219       0.41181854
C       -0.74691179       0.61520161      -0.58740069
C       -1.68025690      -0.50744805      -0.92580229
C       -2.17249462       0.66883537      -0.13133915
H        3.04297973      -0.51308338       0.34074539
H        2.05691086       0.39453267      -0.93291966
H        1.34567015      -1.19183990      -0.69096828
H        0.63504434       1.35019510       0.87075877
H       -0.02197456      -0.23779184       1.22050334
H       -0.48880913       1.27551970      -1.40957393
H       -2.02018564      -0.61281870      -1.94772680
H       -1.54629179      -1.44579000      -0.40037951
H       -2.84503431       1.36684050      -0.61229309
H       -2.36739460       0.51675654       0.92339513
17
Frame=9 idx=010767 GeodesicLength=0.7875072260310921 rxn_smarts="[O:1]=[C:2]([C:3]([C:4]([C:5]1([H:13])[C:6]([H:14])([H:15])[C:7]1([H:16])[H:17])([H:11])[H:12])([H:9])[H:10])[H:8]>>[C:3]([C:4]([C:5]1([H:13])[C:6]([H:14])([H:15])[C:7]1([H:16])[H:17])([H:11])[H:12])([H:8])([H:9])[H:10].[O+:1]#[C-:2]"
O        2.24862506      -0.77550639       2.58307524
C        2.64700103      -0.96921180       1.51016943
C        1.59742486      -0.26749418      -0.17461010
C        0.35981921       0.38109737       0.41733154
C       -0.74670216       0.61585269      -0.58362561
C       -1.68116932      -0.50099505      -0.93814274
C       -2.17397833       0.66778962      -0.13319721
H        3.03484726      -0.54353037       0.31422820
H        2.04477143       0.39035232      -0.93091368
H        1.33752994      -1.19494296      -0.69742742
H        0.63173246       1.33178891       0.88733921
H       -0.03063439      -0.25697196       1.21854304
H       -0.48343221       1.28419618      -1.39758551
H       -2.01728363      -0.59455217      -1.96244490
H       -1.55185424      -1.44521371      -0.42232833
H       -2.84287442       1.37244194      -0.60934736
H       -2.37382255       0.50489955       0.91893620
17
Frame=10 idx=010767 GeodesicLength=0.8738424740361929 rxn_smarts="[O:1]=[C:2]([C:3]([C:4]([C:5]1([H:13])[C:6]([H:14])([H:15])[C:7]1([H:16])[H:17])([H:11])[H:12])([H:9])[H:10])[H:8]>>[C:3]([C:4]([C:5]1([H:13])[C:6]([H:14])([H:15])[C:7]1([H:16])[H:17])([H:11])[H:12])([H:8])([H:9])[H:10].[O+:1]#[C-:2]"
O        2.30718267      -0.69903315       2.60556402
C        2.64091296      -0.97496887       1.52889346
C        1.59452665      -0.27733647      -0.17126560
C        0.35500830       0.36844748       0.42296147
C       -0.74648631       0.61639508      -0.57978510
C       -1.68193079      -0.49448616      -0.95033072
C       -2.17550485       0.66686186      -0.13518354
H        3.02569816      -0.57413770       0.28907877
H        2.03299184       0.38594118      -0.92813925
H        1.32954430      -1.19823326      -0.70352406
H        0.62809379       1.31326034       0.90383815
H       -0.03960252      -0.27598480       1.21677724
H       -0.47792814       1.29258335      -1.38550931
H       -2.01403403      -0.57628826      -1.97693001
H       -1.55730069      -1.44446748      -0.44405277
H       -2.84068829       1.37814388      -0.60662960
H       -2.38048305       0.49330298       0.91423684
17
Frame=11 idx=010767 GeodesicLength=0.960139382040887 rxn_smarts="[O:1]=[C:2]([C:3]([C:4]([C:5]1([H:13])[C:6]([H:14])([H:15])[C:7]1([H:16])[H:17])([H:11])[H:12])([H:9])[H:10])[H:8]>>[C:3]([C:4]([C:5]1([H:13])[C:6]([H:14])([H:15])[C:7]1([H:16])[H:17])([H:11])[H:12])([H:8])([H:9])[H:10].[O+:1]#[C-:2]"
O        2.36779948      -0.62443786       2.62261598
C        2.63407054      -0.97795063       1.55006951
C        1.59151109      -0.28754044      -0.16749810
C        0.35000636       0.35561743       0.42876941
C       -0.74624905       0.61681581      -0.57584447
C       -1.68262318      -0.48784795      -0.96249890
C       -2.17708809       0.66603071      -0.13733907
H        3.01573992      -0.60455560       0.26515952
H        2.02140949       0.38103369      -0.92474383
H        1.32152178      -1.20184408      -0.70900036
H        0.62425165       1.29444384       0.92041004
H       -0.04896240      -0.29493474       1.21515272
H       -0.47222149       1.30070302      -1.37321839
H       -2.01050657      -0.55787489      -1.99133745
H       -1.56279587      -1.44347555      -0.46577584
H       -2.83843917       1.38393580      -0.60414492
H       -2.38742447       0.48188148       0.90922415
17
Frame=12 idx=010767 GeodesicLength=1.0463420280303846 rxn_smarts="[O:1]=[C:2]([C:3]([C:4]([C:5]1([H:13])[C:6]([H:14])([H:15])[C:7]1([H:16])[H:17])([H:11])[H:12])([H:9])[H:10])[H:8]>>[C:3]([C:4]([C:5]1([H:13])[C:6]([H:14])([H:15])[C:7]1([H:16])[H:17])([H:11])[H:12])([H:8])([H:9])[H:10].[O+:1]#[C-:2]"
O        2.43016293      -0.55133916       2.63423545
C        2.62648159      -0.97799607       1.57353239
C        1.58829143      -0.29818185      -0.16327019
C        0.34478311       0.34250320       0.43476252
C       -0.74590270       0.61709341      -0.57172572
C       -1.68319229      -0.48104364      -0.97468812
C       -2.17857260       0.66524948      -0.13962565
H        3.00491244      -0.63456468       0.24233855
H        2.00984862       0.37554079      -0.92077420
H        1.31337335      -1.20595189      -0.71373996
H        0.62019486       1.27520644       0.93714682
H       -0.05882190      -0.31402851       1.21353935
H       -0.46615979       1.30860249      -1.36049603
H       -2.00662000      -0.53916208      -2.00565037
H       -1.56838954      -1.44224551      -0.48768587
H       -2.83586314       1.38982781      -0.60173528
H       -2.39452638       0.47048978       0.90383630
17
Frame=13 idx=010767 GeodesicLength=1.1325965274925942 rxn_smarts="[O:1]=[C:2]([C:3]([C:4]([C:5]1([H:13])[C:6]([H:14])([H:15])[C:7]1([H:16])[H:17])([H:11])[H:12])([H:9])[H:10])[H:8]>>[C:3]([C:4]([C:5]1([H:13])[C:6]([H:14])([H:15])[C:7]1([H:16])[H:17])([H:11])[H:12])([H:8])([H:9])[H:10].[O+:1]#[C-:2]"
O        2.49436598      -0.48049528       2.64099520
C        2.61849947      -0.97496863       1.59918897
C        1.58495911      -0.30922324      -0.15856192
C        0.33932617       0.32916620       0.44098472
C       -0.74554193       0.61726171      -0.56748397
C       -1.68367309      -0.47407634      -0.98691707
C       -2.18014546       0.66459015      -0.14210913
H        2.99358258      -0.66401016       0.22050197
H        1.99830171       0.36942231      -0.91636574
H        1.30518395      -1.21051956      -0.71770200
H        0.61585417       1.25562387       0.95408376
H       -0.06918202      -0.33319404       1.21201970
H       -0.45987680       1.31627579      -1.34750163
H       -2.00238572      -0.52023282      -2.01996108
H       -1.57404150      -1.44075961      -0.50968216
H       -2.83324202       1.39585866      -0.59958786
H       -2.40198459       0.45928098       0.89809823
17
Frame=14 idx=010767 GeodesicLength=1.2188597249324098 rxn_smarts="[O:1]=[C:2]([C:3]([C:4]([C:5]1([H:13])[C:6]([H:14])([H:15])[C:7]1([H:16])[H:17])([H:11])[H:12])([H:9])[H:10])[H:8]>>[C:3]([C:4]([C:5]1([H:13])[C:6]([H:14])([H:15])[C:7]1([H:16])[H:17])([H:11])[H:12])([H:8])([H:9])[H:10].[O+:1]#[C-:2]"
O        2.56025693      -0.41125133       2.64280655
C        2.61013875      -0.96852459       1.62699454
C        1.58142091      -0.32079058      -0.15332119
C        0.33358652       0.31545158       0.44745442
C       -0.74509842       0.61731662      -0.56304189
C       -1.68399882      -0.46686598      -0.99927987
C       -2.18168392       0.66400454      -0.14474002
H        2.98165761      -0.69300847       0.19948126
H        1.98658975       0.36254081      -0.91153841
H        1.29685821      -1.21574874      -0.72073876
H        0.61118838       1.23547055       0.97135396
H       -0.08012933      -0.35271013       1.21048153
H       -0.45324767       1.32384621      -1.33400152
H       -1.99769553      -0.50082076      -2.03433112
H       -1.57976080      -1.43902417      -0.53204146
H       -2.83035912       1.40208604      -0.59750864
H       -2.40972346       0.44802839       0.89197062
17
Frame=15 idx=010767 GeodesicLength=1.3050001228161396 rxn_smarts="[O:1]=[C:2]([C:3]([C:4]([C:5]1([H:13])[C:6]([H:14])([H:15])[C:7]1([H:16])[H:17])([H:11])[H:12])([H:9])[H:10])[H:8]>>[C:3]([C:4]([C:5]1([H:13])[C:6]([H:14])([H:15])[C:7]1([H:16])[H:17])([H:11])[H:12])([H:8])([H:9])[H:10].[O+:1]#[C-:2]"
O        2.62762727      -0.34466538       2.64004952
C        2.60150480      -0.95858201       1.65674027
C        1.57774172      -0.33271804      -0.14750918
C        0.32759327       0.30148863       0.45415368
C       -0.74461769       0.61723501      -0.55844274
C       -1.68417461      -0.45946659      -1.01166421
C       -2.18323976       0.66351164      -0.14759761
H        2.96935060      -0.72129377       0.17920594
H        1.97470053       0.35501862      -0.90626140
H        1.28845374      -1.22139653      -0.72286808
H        0.60617331       1.21488646       0.98885270
H       -0.09158202      -0.37237039       1.20891377
H       -0.44638494       1.33113886      -1.32013162
H       -1.99258358      -0.48115790      -2.04862862
H       -1.58548886      -1.43696932      -0.55450745
H       -2.82733352       1.40839958      -0.59570046
H       -2.41774027       0.43694111       0.88539548
17
Frame=16 idx=010767 GeodesicLength=1.3911438606023774 rxn_smarts="[O:1]=[C:2]([C:3]([C:4]([C:5]1([H:13])[C:6]([H:14])([H:15])[C:7]1([H:16])[H:17])([H:11])[H:12])([H:9])[H:10])[H:8]>>[C:3]([C:4]([C:5]1([H:13])[C:6]([H:14])([H:15])[C:7]1([H:16])[H:17])([H:11])[H:12])([H:8])([H:9])[H:10].[O+:1]#[C-:2]"
O        2.69647644      -0.28064358       2.63283758
C        2.59254019      -0.94490723       1.68839020
C        1.57391359      -0.34503615      -0.14110125
C        0.32131739       0.28725323       0.46110728
C       -0.74408572       0.61703360      -0.55365551
C       -1.68415822      -0.45186585      -1.02411584
C       -2.18480566       0.66309032      -0.15066221
H        2.95669013      -0.74899120       0.15950372
H        1.96261088       0.34683711      -0.90055761
H        1.27994245      -1.22752954      -0.72407526
H        0.60076947       1.19384562       1.00665448
H       -0.10358901      -0.39225352       1.20730946
H       -0.43924761       1.33822736      -1.30581417
H       -1.98696682      -0.46117427      -2.06290503
H       -1.59120069      -1.43462546      -0.57718601
H       -2.82413936       1.41481244      -0.59410296
H       -2.42606746       0.42592711       0.87837312
