13
Frame=0 idx=010037 GeodesicLength=0.0 rxn_smarts="[N:1]([c:2]1[c:3]([H:10])[c:4]([H:11])[c:5]([O:6][H:12])[n:7]1[H:13])([H:8])[H:9]>>[N:1]([C:2]1=[N:7][C@:5]([O:6][H:12])([H:13])[C:4]([H:11])=[C:3]1[H:10])([H:8])[H:9]"
N       -2.24569419      -0.37710872       0.09900483
C       -0.89732610      -0.04894623       0.00596463
C       -0.30232467       1.19626677       0.21087663
C        1.07473009       1.00676018       0.21701750
C        1.29312610      -0.35743039       0.03075431
O        2.43642021      -0.99324374      -0.34918968
N        0.01721450      -1.02683074      -0.15082093
H       -2.48706948      -1.20526732      -0.42157474
H       -2.86813129       0.38708867      -0.10445937
H       -0.82488488       2.12354055       0.39728329
H        1.84573892       1.75196149       0.33406960
H        2.27793131      -1.41235986      -1.19937186
H        0.68026946      -1.04443062       0.93044574
13
Frame=1 idx=010037 GeodesicLength=0.04412208447081331 rxn_smarts="[N:1]([c:2]1[c:3]([H:10])[c:4]([H:11])[c:5]([O:6][H:12])[n:7]1[H:13])([H:8])[H:9]>>[N:1]([C:2]1=[N:7][C@:5]([O:6][H:12])([H:13])[C:4]([H:11])=[C:3]1[H:10])([H:8])[H:9]"
N       -2.24502746      -0.38148822       0.09730789
C       -0.89740678      -0.05236839       0.00426321
C       -0.30068378       1.19583297       0.19733262
C        1.07501011       1.00270598       0.21821170
C        1.29222138      -0.36626269       0.04747860
O        2.43258393      -1.00429044      -0.33988961
N        0.01813438      -1.03042239      -0.13628346
H       -2.49413970      -1.19121917      -0.44803856
H       -2.87207180       0.38782810      -0.06883114
H       -0.82258421       2.12597991       0.37102424
H        1.84715740       1.74875187       0.32248397
H        2.28726892      -1.37039093      -1.21642432
H        0.67953761      -1.06465661       0.95136485
13
Frame=2 idx=010037 GeodesicLength=0.08809916310757271 rxn_smarts="[N:1]([c:2]1[c:3]([H:10])[c:4]([H:11])[c:5]([O:6][H:12])[n:7]1[H:13])([H:8])[H:9]>>[N:1]([C:2]1=[N:7][C@:5]([O:6][H:12])([H:13])[C:4]([H:11])=[C:3]1[H:10])([H:8])[H:9]"
N       -2.24425102      -0.38571240       0.09536015
C       -0.89746459      -0.05568730       0.00199706
C       -0.29900368       1.19537271       0.18272514
C        1.07509110       0.99885762       0.21851769
C        1.29104022      -0.37465865       0.06331126
O        2.42830587      -1.01482823      -0.33155678
N        0.01887006      -1.03367440      -0.12230336
H       -2.50133265      -1.17588706      -0.47429353
H       -2.87526420       0.38745839      -0.03242155
H       -0.82024776       2.12762221       0.34669562
H        1.84836849       1.74538706       0.31065680
H        2.29709158      -1.32921298      -1.22995254
H        0.67879657      -1.08503697       0.97126407
13
Frame=3 idx=010037 GeodesicLength=0.13216789970196158 rxn_smarts="[N:1]([c:2]1[c:3]([H:10])[c:4]([H:11])[c:5]([O:6][H:12])[n:7]1[H:13])([H:8])[H:9]>>[N:1]([C:2]1=[N:7][C@:5]([O:6][H:12])([H:13])[C:4]([H:11])=[C:3]1[H:10])([H:8])[H:9]"
N       -2.24367688      -0.38943917       0.09361444
C       -0.89760037      -0.05889394      -0.00033248
C       -0.29726304       1.19491028       0.16779727
C        1.07512895       0.99511448       0.21884048
C        1.28975997      -0.38278339       0.07838217
O        2.42373781      -1.02496567      -0.32486788
N        0.01940963      -1.03667350      -0.10886537
H       -2.50889857      -1.16026400      -0.49832020
H       -2.87785962       0.38621508       0.00287391
H       -0.81786581       2.12926160       0.32158395
H        1.84962155       1.74168713       0.30068171
H        2.30713196      -1.28806854      -1.24146229
H        0.67837441      -1.10610037       0.99007429
13
Frame=4 idx=010037 GeodesicLength=0.17632047663437478 rxn_smarts="[N:1]([c:2]1[c:3]([H:10])[c:4]([H:11])[c:5]([O:6][H:12])[n:7]1[H:13])([H:8])[H:9]>>[N:1]([C:2]1=[N:7][C@:5]([O:6][H:12])([H:13])[C:4]([H:11])=[C:3]1[H:10])([H:8])[H:9]"
N       -2.24319228      -0.39282962       0.09235241
C       -0.89777294      -0.06208116      -0.00259743
C       -0.29540969       1.19426542       0.15288387
C        1.07507433       0.99128316       0.21996662
C        1.28834339      -0.39074958       0.09290872
O        2.41880847      -1.03459997      -0.31978185
N        0.01976974      -1.03944950      -0.09607277
H       -2.51689002      -1.14400031      -0.52055724
H       -2.87977545       0.38413936       0.03827527
H       -0.81535375       2.13109507       0.29324800
H        1.85083391       1.73755759       0.29301268
H        2.31739607      -1.24628494      -1.25127311
H        0.67816822      -1.12834551       1.00763483
13
Frame=5 idx=010037 GeodesicLength=0.22058817840872597 rxn_smarts="[N:1]([c:2]1[c:3]([H:10])[c:4]([H:11])[c:5]([O:6][H:12])[n:7]1[H:13])([H:8])[H:9]>>[N:1]([C:2]1=[N:7][C@:5]([O:6][H:12])([H:13])[C:4]([H:11])=[C:3]1[H:10])([H:8])[H:9]"
N       -2.24269679      -0.39623825       0.09136690
C       -0.89798014      -0.06530685      -0.00520285
C       -0.29357537       1.19344826       0.13748400
C        1.07479328       0.98748629       0.22138389
C        1.28678548      -0.39850869       0.10687400
O        2.41373597      -1.04371028      -0.31555594
N        0.02003951      -1.04205975      -0.08402441
H       -2.52548927      -1.12592481      -0.54292378
H       -2.88100819       0.38091111       0.07629690
H       -0.81289873       2.13280731       0.26236239
H        1.85180130       1.73328358       0.28664714
H        2.32841969      -1.20459992      -1.25863788
H        0.67807327      -1.15158800       1.02392963
13
Frame=6 idx=010037 GeodesicLength=0.2649374055398345 rxn_smarts="[N:1]([c:2]1[c:3]([H:10])[c:4]([H:11])[c:5]([O:6][H:12])[n:7]1[H:13])([H:8])[H:9]>>[N:1]([C:2]1=[N:7][C@:5]([O:6][H:12])([H:13])[C:4]([H:11])=[C:3]1[H:10])([H:8])[H:9]"
N       -2.24228994      -0.39924076       0.09122551
C       -0.89822520      -0.06856216      -0.00768584
C       -0.29154914       1.19237487       0.12204338
C        1.07435611       0.98351327       0.22419948
C        1.28506286      -0.40621415       0.12040210
O        2.40825105      -1.05218586      -0.31304180
N        0.02010945      -1.04451385      -0.07269470
H       -2.53472500      -1.10724161      -0.56287445
H       -2.88133733       0.37694821       0.11446558
H       -0.81005584       2.13465315       0.22636197
H        1.85264791       1.72856930       0.28359031
H        2.33959579      -1.16165431      -1.26468784
H        0.67815929      -1.17644611       1.03869631
13
Frame=7 idx=010037 GeodesicLength=0.3094392189417636 rxn_smarts="[N:1]([c:2]1[c:3]([H:10])[c:4]([H:11])[c:5]([O:6][H:12])[n:7]1[H:13])([H:8])[H:9]>>[N:1]([C:2]1=[N:7][C@:5]([O:6][H:12])([H:13])[C:4]([H:11])=[C:3]1[H:10])([H:8])[H:9]"
N       -2.24196237      -0.40194287       0.09113616
C       -0.89852633      -0.07175518      -0.01079113
C       -0.28954899       1.19127266       0.10561392
C        1.07366416       0.97976075       0.22667559
C        1.28322137      -0.41365046       0.13333656
O        2.40267096      -1.06021368      -0.31118584
N        0.02008436      -1.04680736      -0.06185080
H       -2.54458838      -1.08743896      -0.58196869
H       -2.88085389       0.37213207       0.15318101
H       -0.80725905       2.13590297       0.19085215
H        1.85321347       1.72401005       0.28090359
H        2.35148472      -1.11935467      -1.26827627
H        0.67839997      -1.20191532       1.05237375
13
Frame=8 idx=010037 GeodesicLength=0.35398072775528533 rxn_smarts="[N:1]([c:2]1[c:3]([H:10])[c:4]([H:11])[c:5]([O:6][H:12])[n:7]1[H:13])([H:8])[H:9]>>[N:1]([C:2]1=[N:7][C@:5]([O:6][H:12])([H:13])[C:4]([H:11])=[C:3]1[H:10])([H:8])[H:9]"
N       -2.24173442      -0.40421833       0.09159284
C       -0.89887907      -0.07494624      -0.01412046
C       -0.28742421       1.18995487       0.08867639
C        1.07272714       0.97599901       0.22986669
C        1.28123524      -0.42094356       0.14582463
O        2.39681045      -1.06760357      -0.31054718
N        0.01989944      -1.04894646      -0.05152607
H       -2.55513802      -1.06692735      -0.59909348
H       -2.87942594       0.36671180       0.19184244
H       -0.80414915       2.13675084       0.15279570
H        1.85352369       1.71933561       0.28013385
H        2.36370970      -1.07656912      -1.27009434
H        0.67884514      -1.22859749       1.06464897
13
Frame=9 idx=010037 GeodesicLength=0.3987080495199399 rxn_smarts="[N:1]([c:2]1[c:3]([H:10])[c:4]([H:11])[c:5]([O:6][H:12])[n:7]1[H:13])([H:8])[H:9]>>[N:1]([C:2]1=[N:7][C@:5]([O:6][H:12])([H:13])[C:4]([H:11])=[C:3]1[H:10])([H:8])[H:9]"
N       -2.24157509      -0.40611002       0.09275538
C       -0.89929075      -0.07817727      -0.01786750
C       -0.28518995       1.18840760       0.07107653
C        1.07144710       0.97222237       0.23395257
C        1.27909351      -0.42814752       0.15789837
O        2.39075130      -1.07430066      -0.31101671
N        0.01958263      -1.05099906      -0.04190353
H       -2.56659276      -1.04545236      -0.61432800
H       -2.87693502       0.36070264       0.23127085
H       -0.80067057       2.13716626       0.11123325
H        1.85344054       1.71459131       0.28169057
H        2.37650751      -1.03316860      -1.27007429
H        0.67943155      -1.25673469       1.07531253
13
Frame=10 idx=010037 GeodesicLength=0.4436534697929667 rxn_smarts="[N:1]([c:2]1[c:3]([H:10])[c:4]([H:11])[c:5]([O:6][H:12])[n:7]1[H:13])([H:8])[H:9]>>[N:1]([C:2]1=[N:7][C@:5]([O:6][H:12])([H:13])[C:4]([H:11])=[C:3]1[H:10])([H:8])[H:9]"
N       -2.24150055      -0.40754967       0.09486305
C       -0.89978580      -0.08147991      -0.02212211
C       -0.28282711       1.18655627       0.05266955
C        1.06971885       0.96837226       0.23921120
C        1.27678035      -0.43531809       0.16958756
O        2.38452638      -1.08019937      -0.31266206
N        0.01913342      -1.05299834      -0.03311040
H       -2.57915603      -1.02298483      -0.62728426
H       -2.87324417       0.35427218       0.27166875
H       -0.79662119       2.13694754       0.06512388
H        1.85282286       1.70974285       0.28618008
H        2.39002439      -0.98878953      -1.26823229
H        0.68012862      -1.28657134       1.08410704
13
Frame=11 idx=010037 GeodesicLength=0.4888443574948044 rxn_smarts="[N:1]([c:2]1[c:3]([H:10])[c:4]([H:11])[c:5]([O:6][H:12])[n:7]1[H:13])([H:8])[H:9]>>[N:1]([C:2]1=[N:7][C@:5]([O:6][H:12])([H:13])[C:4]([H:11])=[C:3]1[H:10])([H:8])[H:9]"
N       -2.24142936      -0.40859525       0.09774714
C       -0.90035168      -0.08488647      -0.02737755
C       -0.28036263       1.18441266       0.03287594
C        1.06742895       0.96457289       0.24500507
C        1.27423519      -0.44238746       0.18083186
O        2.37822240      -1.08530611      -0.31495314
N        0.01856953      -1.05497685      -0.02527497
H       -2.59302334      -0.99910307      -0.63837103
H       -2.86806291       0.34725200       0.31372269
H       -0.79209530       2.13579277       0.01591871
H        1.85148953       1.70500271       0.29288969
H        2.40461327      -0.94390862      -1.26395419
H        0.68076633      -1.31786919       1.09093976
13
Frame=12 idx=010037 GeodesicLength=0.5342130267732399 rxn_smarts="[N:1]([c:2]1[c:3]([H:10])[c:4]([H:11])[c:5]([O:6][H:12])[n:7]1[H:13])([H:8])[H:9]>>[N:1]([C:2]1=[N:7][C@:5]([O:6][H:12])([H:13])[C:4]([H:11])=[C:3]1[H:10])([H:8])[H:9]"
N       -2.24141704      -0.40908407       0.10143577
C       -0.90101684      -0.08839047      -0.03353819
C       -0.27776403       1.18193326       0.01194019
C        1.06455997       0.96082034       0.25131513
C        1.27147969      -0.44933880       0.19163628
O        2.37181131      -1.08952252      -0.31810364
N        0.01786111      -1.05691579      -0.01820264
H       -2.60809497      -0.97441709      -0.64692957
H       -2.86141135       0.34007969       0.35614274
H       -0.78693066       2.13358028      -0.03588306
H        1.84939251       1.70039125       0.30179958
H        2.42003840      -0.89854812      -1.25739796
H        0.68149191      -1.35058796       1.09578538
13
Frame=13 idx=010037 GeodesicLength=0.5797390572374483 rxn_smarts="[N:1]([c:2]1[c:3]([H:10])[c:4]([H:11])[c:5]([O:6][H:12])[n:7]1[H:13])([H:8])[H:9]>>[N:1]([C:2]1=[N:7][C@:5]([O:6][H:12])([H:13])[C:4]([H:11])=[C:3]1[H:10])([H:8])[H:9]"
N       -2.24144969      -0.40898119       0.10571942
C       -0.90177819      -0.09198640      -0.04052140
C       -0.27506678       1.17912526      -0.00990534
C        1.06109579       0.95719095       0.25778721
C        1.26853469      -0.45612995       0.20201879
O        2.36526782      -1.09289632      -0.32207561
N        0.01702002      -1.05881199      -0.01159849
H       -2.62412859      -0.94913979      -0.65309679
H       -2.85334026       0.33295527       0.39821173
H       -0.78120092       2.13024360      -0.08897214
H        1.84646897       1.69603616       0.31217435
H        2.43611899      -0.85310507      -1.24853686
H        0.68245816      -1.38450054       1.09879514
13
Frame=14 idx=010037 GeodesicLength=0.6253704506116577 rxn_smarts="[N:1]([c:2]1[c:3]([H:10])[c:4]([H:11])[c:5]([O:6][H:12])[n:7]1[H:13])([H:8])[H:9]>>[N:1]([C:2]1=[N:7][C@:5]([O:6][H:12])([H:13])[C:4]([H:11])=[C:3]1[H:10])([H:8])[H:9]"
N       -2.24150919      -0.40830372       0.11042507
C       -0.90263783      -0.09568550      -0.04835045
C       -0.27229882       1.17598618      -0.03255261
C        1.05704688       0.95374547       0.26405771
C        1.26540836      -0.46270966       0.21198080
O        2.35859251      -1.09546024      -0.32671987
N        0.01604473      -1.06064698      -0.00530597
H       -2.64099351      -0.92333207      -0.65709102
H       -2.84387378       0.32593411       0.43968079
H       -0.77502716       2.12579478      -0.14231180
H        1.84269282       1.69203634       0.32341526
H        2.45283533      -0.80796062      -1.23725645
H        0.68371964      -1.41939810       1.10002855
13
Frame=15 idx=010037 GeodesicLength=0.671103838275544 rxn_smarts="[N:1]([c:2]1[c:3]([H:10])[c:4]([H:11])[c:5]([O:6][H:12])[n:7]1[H:13])([H:8])[H:9]>>[N:1]([C:2]1=[N:7][C@:5]([O:6][H:12])([H:13])[C:4]([H:11])=[C:3]1[H:10])([H:8])[H:9]"
N       -2.24158909      -0.40706829       0.11542900
C       -0.90359693      -0.09949923      -0.05686603
C       -0.26949059       1.17252583      -0.05573223
C        1.05243825       0.95052372       0.26997429
C        1.26212430      -0.46906032       0.22155976
O        2.35174421      -1.09726095      -0.33204947
N        0.01493473      -1.06241796       0.00090632
H       -2.65847005      -0.89709293      -0.65911685
H       -2.83312413       0.31910899       0.48020345
H       -0.76848989       2.12030503      -0.19536959
H        1.83806335       1.68846268       0.33510677
H        2.47005464      -0.76335293      -1.22361675
H        0.68540121      -1.45517364       1.09957134
13
Frame=16 idx=010037 GeodesicLength=0.716901827089375 rxn_smarts="[N:1]([c:2]1[c:3]([H:10])[c:4]([H:11])[c:5]([O:6][H:12])[n:7]1[H:13])([H:8])[H:9]>>[N:1]([C:2]1=[N:7][C@:5]([O:6][H:12])([H:13])[C:4]([H:11])=[C:3]1[H:10])([H:8])[H:9]"
N       -2.24169154      -0.40533469       0.12056715
C       -0.90465429      -0.10343974      -0.06586509
C       -0.26668450       1.16875796      -0.07914699
C        1.04733086       0.94756537       0.27537371
C        1.25871504      -0.47514847       0.23080536
O        2.34467225      -1.09833832      -0.33805019
N        0.01368741      -1.06410328       0.00729777
H       -2.67633269      -0.87036960      -0.65955522
H       -2.82123487       0.31242277       0.51960142
H       -0.76170155       2.11385364      -0.24765401
H        1.83263643       1.68537589       0.34676707
H        2.48762852      -0.71956424      -1.20768021
H        0.68762894      -1.49167729       1.09753925
