14
Frame=0 idx=007136 GeodesicLength=0.0 rxn_smarts="[N:1](=[C:2]1\[O:3][C:4]([H:9])([H:10])[C@@:5]2([H:11])[C:6]([H:12])([H:13])[C@@:7]12[H:14])\[H:8]>>[N:1]1([H:8])[C:2](=[O:3])[C@:7]1([C:6]([C:5](=[C:4]([H:9])[H:10])[H:11])([H:12])[H:13])[H:14]"
N        1.69499926      -1.82242315       0.72455487
C        1.18747837      -0.84266391       0.03769841
O        1.64005795      -0.09383396      -0.85889431
C       -0.01698473       1.75874721      -0.25805975
C       -0.90792143       0.88578582       0.28482796
C       -1.31146517      -0.37545302      -0.50386502
C       -0.26549507      -0.72161738       0.42296670
H        2.62461888      -2.02613218       0.35854224
H        0.41755152       1.60103809      -1.23162566
H        0.25070929       2.66200010       0.27999725
H       -1.41903096       1.12696369       1.20614418
H       -1.02954896      -0.31223935      -1.54789990
H       -2.31822255      -0.72177733      -0.30481927
H       -0.54674641      -1.11839462       1.39043236
14
Frame=1 idx=007136 GeodesicLength=0.06385624293092651 rxn_smarts="[N:1](=[C:2]1\[O:3][C:4]([H:9])([H:10])[C@@:5]2([H:11])[C:6]([H:12])([H:13])[C@@:7]12[H:14])\[H:8]>>[N:1]1([H:8])[C:2](=[O:3])[C@:7]1([C:6]([C:5](=[C:4]([H:9])[H:10])[H:11])([H:12])[H:13])[H:14]"
N        1.66758043      -1.85430035       0.69663466
C        1.20801064      -0.81007484       0.07468872
O        1.66436335      -0.04750595      -0.80980083
C       -0.01952930       1.76588286      -0.26534490
C       -0.91230172       0.88926942       0.27717128
C       -1.28989536      -0.38550667      -0.49616835
C       -0.24788395      -0.71741915       0.44632143
H        2.57380409      -2.09895371       0.29909825
H        0.39202809       1.62604785      -1.25206011
H        0.23134620       2.67731808       0.26721282
H       -1.44123481       1.13965226       1.18610244
H       -0.99853436      -0.33604350      -1.53857380
H       -2.29300767      -0.74541535      -0.30197456
H       -0.53474562      -1.10295094       1.41669295
14
Frame=2 idx=007136 GeodesicLength=0.12764163565176562 rxn_smarts="[N:1](=[C:2]1\[O:3][C:4]([H:9])([H:10])[C@@:5]2([H:11])[C:6]([H:12])([H:13])[C@@:7]12[H:14])\[H:8]>>[N:1]1([H:8])[C:2](=[O:3])[C@:7]1([C:6]([C:5](=[C:4]([H:9])[H:10])[H:11])([H:12])[H:13])[H:14]"
N        1.64146939      -1.87841157       0.67115190
C        1.22632100      -0.78266000       0.10987204
O        1.68627294      -0.00512444      -0.76133420
C       -0.01934050       1.77074846      -0.27195621
C       -0.91536548       0.89157791       0.26971007
C       -1.26921489      -0.39502092      -0.48876113
C       -0.23166282      -0.71495071       0.46871790
H        2.52066452      -2.15938519       0.23916285
H        0.36866243       1.64835710      -1.27100277
H        0.21513652       2.68985668       0.25512864
H       -1.46124325       1.15079282       1.16625910
H       -0.96832405      -0.35878582      -1.52921861
H       -2.26893095      -0.76710917      -0.29919383
H       -0.52444487      -1.08988513       1.44146424
14
Frame=3 idx=007136 GeodesicLength=0.19149146760104596 rxn_smarts="[N:1](=[C:2]1\[O:3][C:4]([H:9])([H:10])[C@@:5]2([H:11])[C:6]([H:12])([H:13])[C@@:7]12[H:14])\[H:8]>>[N:1]1([H:8])[C:2](=[O:3])[C@:7]1([C:6]([C:5](=[C:4]([H:9])[H:10])[H:11])([H:12])[H:13])[H:14]"
N        1.61685864      -1.89666627       0.64791181
C        1.24252593      -0.75974932       0.14266563
O        1.70597976       0.03373479      -0.71406933
C       -0.01691069       1.77375067      -0.27809617
C       -0.91728522       0.89290876       0.26247029
C       -1.24963691      -0.40395031      -0.48166210
C       -0.21675860      -0.71412955       0.48998952
H        2.46673270      -2.20863960       0.18065323
H        0.34680070       1.66866276      -1.28877146
H        0.20203848       2.69980793       0.24380025
H       -1.47913643       1.16061304       1.14676937
H       -0.93944411      -0.38033095      -1.51997760
H       -2.24622477      -0.78689772      -0.29637256
H       -0.51553948      -1.07911424       1.46468912
14
Frame=4 idx=007136 GeodesicLength=0.25548422015831823 rxn_smarts="[N:1](=[C:2]1\[O:3][C:4]([H:9])([H:10])[C@@:5]2([H:11])[C:6]([H:12])([H:13])[C@@:7]12[H:14])\[H:8]>>[N:1]1([H:8])[C:2](=[O:3])[C@:7]1([C:6]([C:5](=[C:4]([H:9])[H:10])[H:11])([H:12])[H:13])[H:14]"
N        1.59371247      -1.91054439       0.62658830
C        1.25697638      -0.74043804       0.17320644
O        1.72377288       0.06960072      -0.66809594
C       -0.01272090       1.77529900      -0.28396057
C       -0.91826697       0.89347093       0.25540947
C       -1.23110538      -0.41237157      -0.47484665
C       -0.20297040      -0.71472564       0.51020579
H        2.41265146      -2.24857561       0.12415604
H        0.32590444       1.68755988      -1.30557259
H        0.19169689       2.70756455       0.23315415
H       -1.49518047       1.16938368       1.12760410
H       -0.91193578      -0.40080463      -1.51088111
H       -2.22480797      -0.80507642      -0.29348028
H       -0.50772665      -1.07034246       1.48651284
14
Frame=5 idx=007136 GeodesicLength=0.31931437871732105 rxn_smarts="[N:1](=[C:2]1\[O:3][C:4]([H:9])([H:10])[C@@:5]2([H:11])[C:6]([H:12])([H:13])[C@@:7]12[H:14])\[H:8]>>[N:1]1([H:8])[C:2](=[O:3])[C@:7]1([C:6]([C:5](=[C:4]([H:9])[H:10])[H:11])([H:12])[H:13])[H:14]"
N        1.57150583      -1.92149025       0.60621619
C        1.26939835      -0.72460035       0.20075277
O        1.73927594       0.10224948      -0.62438913
C       -0.00699252       1.77548032      -0.28963285
C       -0.91836914       0.89339216       0.24863875
C       -1.21410367      -0.42004382      -0.46840417
C       -0.19051259      -0.71686187       0.52893844
H        2.36169119      -2.27899118       0.07278294
H        0.30538274       1.70548586      -1.32157864
H        0.18474877       2.71282602       0.22356807
H       -1.50912641       1.17726909       1.10911608
H       -0.88669877      -0.41984500      -1.50217214
H       -2.20521624      -0.82119090      -0.29042986
H       -0.50098348      -1.06367956       1.50659354
14
Frame=6 idx=007136 GeodesicLength=0.38368870725383647 rxn_smarts="[N:1](=[C:2]1\[O:3][C:4]([H:9])([H:10])[C@@:5]2([H:11])[C:6]([H:12])([H:13])[C@@:7]12[H:14])\[H:8]>>[N:1]1([H:8])[C:2](=[O:3])[C@:7]1([C:6]([C:5](=[C:4]([H:9])[H:10])[H:11])([H:12])[H:13])[H:14]"
N        1.55039693      -1.92989699       0.58697449
C        1.28110709      -0.71050156       0.22782806
O        1.75389142       0.13339744      -0.58038218
C       -0.00032599       1.77484997      -0.29545426
C       -0.91790105       0.89287265       0.24181476
C       -1.19732594      -0.42761529      -0.46201093
C       -0.17850432      -0.71958758       0.54750261
H        2.30884950      -2.30439452       0.02070999
H        0.28536289       1.72260932      -1.33682872
H        0.17887648       2.71704222       0.21386023
H       -1.52218715       1.18463885       1.09035798
H       -0.86157580      -0.43868449      -1.49328981
H       -2.18593060      -0.83675366      -0.28732800
H       -0.49473346      -1.05797636       1.52624578
14
Frame=7 idx=007136 GeodesicLength=0.448333608709139 rxn_smarts="[N:1](=[C:2]1\[O:3][C:4]([H:9])([H:10])[C@@:5]2([H:11])[C:6]([H:12])([H:13])[C@@:7]12[H:14])\[H:8]>>[N:1]1([H:8])[C:2](=[O:3])[C@:7]1([C:6]([C:5](=[C:4]([H:9])[H:10])[H:11])([H:12])[H:13])[H:14]"
N        1.53024463      -1.93632365       0.56857186
C        1.29183633      -0.69830809       0.25362559
O        1.76725689       0.16268932      -0.53705885
C        0.00724123       1.77341525      -0.30142781
C       -0.91687354       0.89196097       0.23503378
C       -1.18122776      -0.43489764      -0.45578164
C       -0.16715355      -0.72313303       0.56545023
H        2.25640111      -2.32422150      -0.02960627
H        0.26543993       1.73924627      -1.35141554
H        0.17482502       2.71986562       0.20448817
H       -1.53409651       1.19153019       1.07164455
H       -0.83738559      -0.45696670      -1.48447249
H       -2.16748280      -0.85136965      -0.28412792
H       -0.48902539      -1.05348735       1.54507634
14
Frame=8 idx=007136 GeodesicLength=0.5133240023818803 rxn_smarts="[N:1](=[C:2]1\[O:3][C:4]([H:9])([H:10])[C@@:5]2([H:11])[C:6]([H:12])([H:13])[C@@:7]12[H:14])\[H:8]>>[N:1]1([H:8])[C:2](=[O:3])[C@:7]1([C:6]([C:5](=[C:4]([H:9])[H:10])[H:11])([H:12])[H:13])[H:14]"
N        1.51102721      -1.94104842       0.55092088
C        1.30177942      -0.68765164       0.27848999
O        1.77956139       0.19042621      -0.49409824
C        0.01557408       1.77125195      -0.30766164
C       -0.91533820       0.89069577       0.22824638
C       -1.16564209      -0.44197970      -0.44967546
C       -0.15633274      -0.72736362       0.58293554
H        2.20388752      -2.33919909      -0.07868355
H        0.24544890       1.75554021      -1.36539148
H        0.17235677       2.72144253       0.19530550
H       -1.54499288       1.19802136       1.05286774
H       -0.81388835      -0.47486340      -1.47566107
H       -2.14968351      -0.86522846      -0.28084228
H       -0.48375752      -1.05004370       1.56324768
14
Frame=9 idx=007136 GeodesicLength=0.5785520898858636 rxn_smarts="[N:1](=[C:2]1\[O:3][C:4]([H:9])([H:10])[C@@:5]2([H:11])[C:6]([H:12])([H:13])[C@@:7]12[H:14])\[H:8]>>[N:1]1([H:8])[C:2](=[O:3])[C@:7]1([C:6]([C:5](=[C:4]([H:9])[H:10])[H:11])([H:12])[H:13])[H:14]"
N        1.49249646      -1.94447886       0.53373035
C        1.31089871      -0.67849913       0.30211268
O        1.79074034       0.21658979      -0.45184182
C        0.02458513       1.76843933      -0.31419039
C       -0.91334387       0.88915688       0.22148263
C       -1.15071716      -0.44877987      -0.44372788
C       -0.14607182      -0.73228169       0.59981088
H        2.15248829      -2.34973576      -0.12549800
H        0.22514142       1.77174438      -1.37875609
H        0.17157286       2.72176966       0.18646313
H       -1.55486705       1.20420238       1.03412613
H       -0.79136980      -0.49225686      -1.46695278
H       -2.13268060      -0.87825037      -0.27742713
H       -0.47887292      -1.04761989       1.58066827
14
Frame=10 idx=007136 GeodesicLength=0.6440245016876269 rxn_smarts="[N:1](=[C:2]1\[O:3][C:4]([H:9])([H:10])[C@@:5]2([H:11])[C:6]([H:12])([H:13])[C@@:7]12[H:14])\[H:8]>>[N:1]1([H:8])[C:2](=[O:3])[C@:7]1([C:6]([C:5](=[C:4]([H:9])[H:10])[H:11])([H:12])[H:13])[H:14]"
N        1.47475163      -1.94670989       0.51713616
C        1.31932352      -0.67059461       0.32469426
O        1.80089000       0.24134234      -0.41019290
C        0.03419152       1.76502226      -0.32109535
C       -0.91092733       0.88737014       0.21470790
C       -1.13635591      -0.45535504      -0.43794105
C       -0.13628785      -0.73783449       0.61613741
H        2.10192502      -2.35641682      -0.17034332
H        0.20431430       1.78803995      -1.39151561
H        0.17237775       2.72091843       0.17791207
H       -1.56378376       1.21011788       1.01538231
H       -0.76971415      -0.50923613      -1.45835605
H       -2.11638265      -0.89052699      -0.27393253
H       -0.47432208      -1.04613702       1.59740670
14
Frame=11 idx=007136 GeodesicLength=0.7096816553039393 rxn_smarts="[N:1](=[C:2]1\[O:3][C:4]([H:9])([H:10])[C@@:5]2([H:11])[C:6]([H:12])([H:13])[C@@:7]12[H:14])\[H:8]>>[N:1]1([H:8])[C:2](=[O:3])[C@:7]1([C:6]([C:5](=[C:4]([H:9])[H:10])[H:11])([H:12])[H:13])[H:14]"
N        1.45759474      -1.94798432       0.50092061
C        1.32707499      -0.66385057       0.34614919
O        1.81003965       0.26477522      -0.36919464
C        0.04430857       1.76106080      -0.32844190
C       -0.90813079       0.88539333       0.20792516
C       -1.12260249      -0.46167678      -0.43231485
C       -0.12696869      -0.74397382       0.63187973
H        2.05277188      -2.35972460      -0.21286887
H        0.18285023       1.80457680      -1.40361484
H        0.17473304       2.71893557       0.16966785
H       -1.57178928       1.21584643       0.99664587
H       -0.74900944      -0.52578997      -1.44989263
H       -2.10082195      -0.90206993      -0.27031870
H       -0.47005046      -1.04551816       1.61345805
14
Frame=12 idx=007136 GeodesicLength=0.7756128929408727 rxn_smarts="[N:1](=[C:2]1\[O:3][C:4]([H:9])([H:10])[C@@:5]2([H:11])[C:6]([H:12])([H:13])[C@@:7]12[H:14])\[H:8]>>[N:1]1([H:8])[C:2](=[O:3])[C@:7]1([C:6]([C:5](=[C:4]([H:9])[H:10])[H:11])([H:12])[H:13])[H:14]"
N        1.44110682      -1.94836030       0.48514974
C        1.33430297      -0.65804780       0.36676835
O        1.81833162       0.28710875      -0.32854235
C        0.05487872       1.75658323      -0.33632958
C       -0.90497561       0.88324186       0.20108379
C       -1.10930059      -0.46782884      -0.42682475
C       -0.11800887      -0.75061562       0.64717771
H        2.00438534      -2.36011426      -0.25368675
H        0.16064549       1.82145148      -1.41503150
H        0.17846729       2.71591641       0.16159980
H       -1.57898927       1.22143647       0.97780839
H       -0.72901700      -0.54207461      -1.44151991
H       -2.08582925      -0.91303278      -0.26661701
H       -0.46599766      -1.04566398       1.62896408
14
Frame=13 idx=007136 GeodesicLength=0.8419041647100376 rxn_smarts="[N:1](=[C:2]1\[O:3][C:4]([H:9])([H:10])[C@@:5]2([H:11])[C:6]([H:12])([H:13])[C@@:7]12[H:14])\[H:8]>>[N:1]1([H:8])[C:2](=[O:3])[C@:7]1([C:6]([C:5](=[C:4]([H:9])[H:10])[H:11])([H:12])[H:13])[H:14]"
N        1.42524841      -1.94793025       0.46972178
C        1.34108302      -0.65305897       0.38674168
O        1.82585136       0.30850653      -0.28795242
C        0.06588216       1.75157297      -0.34486356
C       -0.90146368       0.88092345       0.19414901
C       -1.09637472      -0.47386123      -0.42144164
C       -0.10936035      -0.75771046       0.66211687
H        1.95650636      -2.35778592      -0.29311907
H        0.13762135       1.83873109      -1.42571906
H        0.18349768       2.71189417       0.15356476
H       -1.58541823       1.22693404       0.95879755
H       -0.70961212      -0.55820882      -1.43318760
H       -2.07132668      -0.92349410      -0.26281709
H       -0.46213455      -1.04651250       1.64400879
14
Frame=14 idx=007136 GeodesicLength=0.9085281063770477 rxn_smarts="[N:1](=[C:2]1\[O:3][C:4]([H:9])([H:10])[C@@:5]2([H:11])[C:6]([H:12])([H:13])[C@@:7]12[H:14])\[H:8]>>[N:1]1([H:8])[C:2](=[O:3])[C@:7]1([C:6]([C:5](=[C:4]([H:9])[H:10])[H:11])([H:12])[H:13])[H:14]"
N        1.40992463      -1.94680731       0.45451979
C        1.34742251      -0.64883074       0.40603435
O        1.83259187       0.32904278      -0.24739469
C        0.07727407       1.74604613      -0.35412440
C       -0.89761541       0.87847318       0.18711647
C       -1.08385381      -0.47976136      -0.41616474
C       -0.10101993      -0.76524269       0.67668084
H        1.90944636      -2.35300145      -0.33102417
H        0.11373750       1.85649526      -1.43558962
H        0.18980402       2.70688153       0.14552680
H       -1.59108722       1.23239589       0.93962108
H       -0.69084763      -0.57420565      -1.42490896
H       -2.05734126      -0.93344958      -0.25889052
H       -0.45843571      -1.04803598       1.65859777
14
Frame=15 idx=007136 GeodesicLength=0.9754209510701009 rxn_smarts="[N:1](=[C:2]1\[O:3][C:4]([H:9])([H:10])[C@@:5]2([H:11])[C:6]([H:12])([H:13])[C@@:7]12[H:14])\[H:8]>>[N:1]1([H:8])[C:2](=[O:3])[C@:7]1([C:6]([C:5](=[C:4]([H:9])[H:10])[H:11])([H:12])[H:13])[H:14]"
N        1.39515827      -1.94502464       0.43962628
C        1.35333479      -0.64527118       0.42459129
O        1.83850645       0.34873958      -0.20702242
C        0.08901737       1.74000739      -0.36418032
C       -0.89345224       0.87590958       0.17997100
C       -1.07176312      -0.48552058      -0.41102317
C       -0.09297744      -0.77321766       0.69080880
H        1.86344161      -2.34605403      -0.36718114
H        0.08889032       1.87489466      -1.44451230
H        0.19742590       2.70083664       0.13751827
H       -1.59597491       1.23783529       0.92031677
H       -0.67280682      -0.59004234      -1.41674066
H       -2.04391001      -0.94287692      -0.25485713
H       -0.45489017      -1.05021580       1.67268474
14
Frame=16 idx=007136 GeodesicLength=1.0425434082537026 rxn_smarts="[N:1](=[C:2]1\[O:3][C:4]([H:9])([H:10])[C@@:5]2([H:11])[C:6]([H:12])([H:13])[C@@:7]12[H:14])\[H:8]>>[N:1]1([H:8])[C:2](=[O:3])[C@:7]1([C:6]([C:5](=[C:4]([H:9])[H:10])[H:11])([H:12])[H:13])[H:14]"
N        1.38094746      -1.94262666       0.42506599
C        1.35883806      -0.64229217       0.44240839
O        1.84356696       0.36765394      -0.16688342
C        0.10107483       1.73345717      -0.37511036
C       -0.88899558       0.87325210       0.17269132
C       -1.06011135      -0.49114117      -0.40602905
C       -0.08521867      -0.78162521       0.70447634
H        1.81864130      -2.33720983      -0.40151809
H        0.06305047       1.89403333      -1.45233830
H        0.20634711       2.69374280       0.12951030
H       -1.60007662       1.24327693       0.90090041
H       -0.65553199      -0.60573107      -1.40871242
H       -2.03104809      -0.95177359      -0.25072010
H       -0.45148388      -1.05301655       1.68625898
