17
Frame=0 idx=009560 GeodesicLength=0.0 rxn_smarts="[C:1]1([H:8])([H:9])[C:2]([H:10])([H:11])[C:3]12[C:4]([H:12])([H:13])[C@@:5]1([H:14])[C:6]([H:15])([H:16])[C@@:7]21[H:17]>>[C:1]1([H:8])([H:9])[C+:2]([H:10])[C@:3]12[C:4]([H:12])([H:13])[C-:5]([H:14])[C:6]([H:15])([H:16])[C:7]2([H:11])[H:17]"
C       -1.98721844      -0.41096365      -0.13240724
C       -1.45956396       0.87760519      -0.68076243
C       -0.51235492      -0.14295383      -0.21391370
C        0.63929417      -0.95889188      -0.86452539
C        1.61909893      -0.61382799       0.20092885
C        1.58941207       0.79083415       0.54490685
C        0.11683652       0.52856048       0.96947729
H       -2.37542487      -1.14688374      -0.83340309
H       -2.48665913      -0.43152255       0.83300257
H       -1.70181550       1.27439765      -1.65978751
H       -0.63600477       1.49866182       0.73036031
H        0.44571853      -2.02711252      -0.95004110
H        0.91565135      -0.56124085      -1.84479202
H        2.02611552      -1.35134970       0.88137956
H        1.60648199       1.49225572      -0.29379723
H        2.23329651       1.10609284       1.36003311
H       -0.03286402       0.07633893       1.95334122
17
Frame=1 idx=009560 GeodesicLength=0.07701552851660756 rxn_smarts="[C:1]1([H:8])([H:9])[C:2]([H:10])([H:11])[C:3]12[C:4]([H:12])([H:13])[C@@:5]1([H:14])[C:6]([H:15])([H:16])[C@@:7]21[H:17]>>[C:1]1([H:8])([H:9])[C+:2]([H:10])[C@:3]12[C:4]([H:12])([H:13])[C-:5]([H:14])[C:6]([H:15])([H:16])[C:7]2([H:11])[H:17]"
C       -1.98035951      -0.42355499      -0.12080871
C       -1.47850344       0.86828559      -0.68342687
C       -0.50915318      -0.13025973      -0.21838018
C        0.63789334      -0.93968248      -0.87938987
C        1.59676837      -0.62616601       0.21309531
C        1.60077690       0.78155245       0.55550234
C        0.12240559       0.54643429       0.96071221
H       -2.36296915      -1.17492369      -0.80815836
H       -2.46406327      -0.44596471       0.85233500
H       -1.72434161       1.23596989      -1.67292963
H       -0.64231994       1.52667593       0.70100856
H        0.43558186      -2.00375878      -0.99133089
H        0.92733858      -0.52413672      -1.84822426
H        1.99515666      -1.37723298       0.88323255
H        1.64981409       1.48673869      -0.27836260
H        2.24257744       1.07530119       1.38044198
H       -0.04660274       0.12472207       1.95468344
17
Frame=2 idx=009560 GeodesicLength=0.15380900237711997 rxn_smarts="[C:1]1([H:8])([H:9])[C:2]([H:10])([H:11])[C:3]12[C:4]([H:12])([H:13])[C@@:5]1([H:14])[C:6]([H:15])([H:16])[C@@:7]21[H:17]>>[C:1]1([H:8])([H:9])[C+:2]([H:10])[C@:3]12[C:4]([H:12])([H:13])[C-:5]([H:14])[C:6]([H:15])([H:16])[C:7]2([H:11])[H:17]"
C       -1.97306382      -0.43614641      -0.10900021
C       -1.49753987       0.85851088      -0.68582437
C       -0.50617964      -0.11744828      -0.22313526
C        0.63667024      -0.92016672      -0.89402266
C        1.57367761      -0.63809125       0.22448513
C        1.61178326       0.77168783       0.56632049
C        0.12808484       0.56432323       0.95158631
H       -2.34936290      -1.20293339      -0.78246435
H       -2.44062114      -0.45999827       0.87176769
H       -1.74692584       1.19730238      -1.68477839
H       -0.64881690       1.55462513       0.67024452
H        0.42592684      -1.97944896      -1.03208126
H        0.93907977      -0.48719282      -1.85102598
H        1.96336781      -1.40265395       0.88390174
H        1.69334157       1.47996023      -0.26196006
H        2.25052352       1.04355084       1.40126988
H       -0.05994536       0.17411956       1.95471677
17
Frame=3 idx=009560 GeodesicLength=0.2304052873260712 rxn_smarts="[C:1]1([H:8])([H:9])[C:2]([H:10])([H:11])[C:3]12[C:4]([H:12])([H:13])[C@@:5]1([H:14])[C:6]([H:15])([H:16])[C@@:7]21[H:17]>>[C:1]1([H:8])([H:9])[C+:2]([H:10])[C@:3]12[C:4]([H:12])([H:13])[C-:5]([H:14])[C:6]([H:15])([H:16])[C:7]2([H:11])[H:17]"
C       -1.96532974      -0.44869070      -0.09700111
C       -1.51661821       0.84831513      -0.68790393
C       -0.50344237      -0.10453097      -0.22815939
C        0.63560731      -0.90039430      -0.90838826
C        1.54989228      -0.64955288       0.23506558
C        1.62237800       0.76126676       0.57734489
C        0.13389401       0.58217633       0.94212554
H       -2.33458109      -1.23081526      -0.75638005
H       -2.41633310      -0.47358725       0.89126479
H       -1.76944944       1.15845723      -1.69533786
H       -0.65556215       1.58240759       0.63814775
H        0.41670880      -1.95426061      -1.07218088
H        0.95081670      -0.45049291      -1.85320834
H        1.93087710      -1.42752904       0.88333743
H        1.73692970       1.47188947      -0.24459389
H        2.25703568       1.01093294       1.42246896
H       -0.07282349       0.22440849       1.95339876
17
Frame=4 idx=009560 GeodesicLength=0.3068326201353599 rxn_smarts="[C:1]1([H:8])([H:9])[C:2]([H:10])([H:11])[C:3]12[C:4]([H:12])([H:13])[C@@:5]1([H:14])[C:6]([H:15])([H:16])[C@@:7]21[H:17]>>[C:1]1([H:8])([H:9])[C+:2]([H:10])[C@:3]12[C:4]([H:12])([H:13])[C-:5]([H:14])[C:6]([H:15])([H:16])[C:7]2([H:11])[H:17]"
C       -1.95715962      -0.46114037      -0.08483280
C       -1.53567946       0.83773417      -0.68962163
C       -0.50094712      -0.09152206      -0.23342895
C        0.63468583      -0.88041740      -0.92245368
C        1.52548516      -0.66050675       0.24481313
C        1.63251171       0.75031918       0.58855615
C        0.13985181       0.59994058       0.93236050
H       -2.31860921      -1.25847094      -0.72996801
H       -2.39120568      -0.48669357       0.91078706
H       -1.79179346       1.11950091      -1.70461665
H       -0.66263135       1.60992236       0.60481270
H        0.40787811      -1.92827715      -1.11152808
H        0.96249609      -0.41411793      -1.85478601
H        1.89782058      -1.45178163       0.88150228
H        1.78044079       1.46250179      -0.22627872
H        2.26202683       0.97754931       1.44398374
H       -0.08517100       0.27545952       1.95069897
17
Frame=5 idx=009560 GeodesicLength=0.3831229256735412 rxn_smarts="[C:1]1([H:8])([H:9])[C:2]([H:10])([H:11])[C:3]12[C:4]([H:12])([H:13])[C@@:5]1([H:14])[C:6]([H:15])([H:16])[C@@:7]21[H:17]>>[C:1]1([H:8])([H:9])[C+:2]([H:10])[C@:3]12[C:4]([H:12])([H:13])[C-:5]([H:14])[C:6]([H:15])([H:16])[C:7]2([H:11])[H:17]"
C       -1.94855962      -0.47344899      -0.07251695
C       -1.55466311       0.82680426      -0.69094188
C       -0.49869708      -0.07843771      -0.23891698
C        0.63388676      -0.86028824      -0.93618988
C        1.50053425      -0.67091629       0.25371375
C        1.64214037       0.73887751       0.59993318
C        0.14597581       0.61756270       0.92232534
H       -2.30144289      -1.28580484      -0.70329023
H       -2.36525127      -0.49927710       0.93029408
H       -1.81384244       1.08050047      -1.71263016
H       -0.67010823       1.63707246       0.57034548
H        0.39938192      -1.90158408      -1.15003556
H        0.97407187      -0.37814250      -1.85577678
H        1.86433523      -1.47534459       0.87837291
H        1.82373862       1.45177871      -0.20703821
H        2.26542407       0.94350885       1.46575379
H       -0.09692426       0.32713939       1.94659809
17
Frame=6 idx=009560 GeodesicLength=0.45931131357438126 rxn_smarts="[C:1]1([H:8])([H:9])[C:2]([H:10])([H:11])[C:3]12[C:4]([H:12])([H:13])[C@@:5]1([H:14])[C:6]([H:15])([H:16])[C@@:7]21[H:17]>>[C:1]1([H:8])([H:9])[C+:2]([H:10])[C@:3]12[C:4]([H:12])([H:13])[C-:5]([H:14])[C:6]([H:15])([H:16])[C:7]2([H:11])[H:17]"
C       -1.93953948      -0.48557245      -0.06007467
C       -1.57350891       0.81556084      -0.69183785
C       -0.49669284      -0.06529524      -0.24459369
C        0.63319101      -0.84005757      -0.94957237
C        1.47512092      -0.68075313       0.26176213
C        1.65122647       0.72697553       0.61145398
C        0.15228249       0.63499000       0.91205719
H       -2.28308750      -1.31272613      -0.67640651
H       -2.33848831      -0.51129633       0.94974519
H       -1.83548658       1.04152105      -1.71940146
H       -0.67808254       1.66376748       0.53486069
H        0.39116613      -1.87426633      -1.18763154
H        0.98550520      -0.34263341      -1.85620086
H        1.83055511      -1.49816112       0.87393954
H        1.86669131       1.43970865      -0.18690321
H        2.26717028       0.90892425       1.48771558
H       -0.10802276       0.37931390       1.94108785
17
Frame=7 idx=009560 GeodesicLength=0.535435363678245 rxn_smarts="[C:1]1([H:8])([H:9])[C:2]([H:10])([H:11])[C:3]12[C:4]([H:12])([H:13])[C@@:5]1([H:14])[C:6]([H:15])([H:16])[C@@:7]21[H:17]>>[C:1]1([H:8])([H:9])[C+:2]([H:10])[C@:3]12[C:4]([H:12])([H:13])[C-:5]([H:14])[C:6]([H:15])([H:16])[C:7]2([H:11])[H:17]"
C       -1.93011245      -0.49746952      -0.04752519
C       -1.59215871       0.80403798      -0.69229210
C       -0.49493231      -0.05211235      -0.25042723
C        0.63258039      -0.81977324      -0.96258173
C        1.44932831      -0.68999694       0.26896076
C        1.65973967       0.71464771       0.62309656
C        0.15878738       0.65217119       0.90159526
H       -2.26355725      -1.33915057      -0.64937147
H       -2.31094204      -0.52270795       0.96910111
H       -1.85662376       1.00262363      -1.72496238
H       -0.68664879       1.68992522       0.49847836
H        0.38317736      -1.84640575      -1.22426110
H        0.99676560      -0.30764826      -1.85608049
H        1.79660699      -1.52018558       0.86820590
H        1.90917376       1.42628687      -0.16591044
H        2.26722450       0.87390933       1.50980453
H       -0.11840865       0.43184823       1.93416967
17
Frame=8 idx=009560 GeodesicLength=0.6115332913920641 rxn_smarts="[C:1]1([H:8])([H:9])[C:2]([H:10])([H:11])[C:3]12[C:4]([H:12])([H:13])[C@@:5]1([H:14])[C:6]([H:15])([H:16])[C@@:7]21[H:17]>>[C:1]1([H:8])([H:9])[C+:2]([H:10])[C@:3]12[C:4]([H:12])([H:13])[C-:5]([H:14])[C:6]([H:15])([H:16])[C:7]2([H:11])[H:17]"
C       -1.92029638      -0.50910199      -0.03488533
C       -1.61055916       0.79226955      -0.69229693
C       -0.49341112      -0.03890633      -0.25638427
C        0.63203932      -0.79948073      -0.97520400
C        1.42324220      -0.69863627       0.27531916
C        1.66765754       0.70192861       0.63483894
C        0.16550424       0.66905635       0.89098169
H       -2.24287575      -1.36499994      -0.62223512
H       -2.28264750      -0.53346788       0.98832603
H       -1.87716166       0.96386711      -1.72935510
H       -0.69590683       1.71547409       0.46132212
H        0.37536679      -1.81808182      -1.25988436
H        1.00783200      -0.27323690      -1.85544188
H        1.76261250      -1.54138476       0.86118952
H        1.95106817       1.41151676      -0.14410338
H        2.26556349       0.83857738       1.53195591
H       -0.12802787       0.48460679       1.92585700
17
Frame=9 idx=009560 GeodesicLength=0.6876410223101956 rxn_smarts="[C:1]1([H:8])([H:9])[C:2]([H:10])([H:11])[C:3]12[C:4]([H:12])([H:13])[C@@:5]1([H:14])[C:6]([H:15])([H:16])[C@@:7]21[H:17]>>[C:1]1([H:8])([H:9])[C+:2]([H:10])[C@:3]12[C:4]([H:12])([H:13])[C-:5]([H:14])[C:6]([H:15])([H:16])[C:7]2([H:11])[H:17]"
C       -1.91010144      -0.52043743      -0.02217928
C       -1.62864958       0.78027603      -0.69184844
C       -0.49212397      -0.02569498      -0.26242838
C        0.63154052      -0.77921627      -0.98742562
C        1.39694040      -0.70666634       0.28085300
C        1.67496500       0.68884880       0.64666052
C        0.17244516       0.68559802       0.88025939
H       -2.22106090      -1.39020707      -0.59504897
H       -2.25363442      -0.54352972       1.00736496
H       -1.89701768       0.92528339      -1.73261467
H       -0.70594375       1.74034875       0.42351166
H        0.36767021      -1.78935781      -1.29447197
H        1.01867306      -0.23943552      -1.85429895
H        1.72867593      -1.56172459       0.85290844
H        1.99226798       1.39540812      -0.12151643
H        2.26218362       0.80303102       1.55410244
H       -0.13683012       0.53747561       1.91617232
17
Frame=10 idx=009560 GeodesicLength=0.7637182028504249 rxn_smarts="[C:1]1([H:8])([H:9])[C:2]([H:10])([H:11])[C:3]12[C:4]([H:12])([H:13])[C@@:5]1([H:14])[C:6]([H:15])([H:16])[C@@:7]21[H:17]>>[C:1]1([H:8])([H:9])[C+:2]([H:10])[C@:3]12[C:4]([H:12])([H:13])[C-:5]([H:14])[C:6]([H:15])([H:16])[C:7]2([H:11])[H:17]"
C       -1.89958568      -0.53141548      -0.00946669
C       -1.64633763       0.76812515      -0.69095743
C       -0.49106430      -0.01251931      -0.26849708
C        0.63105452      -0.75908360      -0.99919714
C        1.37055547      -0.71407584       0.28558255
C        1.68163694       0.67548459       0.65850088
C        0.17960954       0.70168936       0.86953168
H       -2.19822365      -1.41462796      -0.56795934
H       -2.22404942      -0.55281805       1.02612072
H       -1.91599536       0.88703067      -1.73481238
H       -0.71689642       1.76445283       0.38530248
H        0.36002805      -1.76039461      -1.32787796
H        1.02924394      -0.20639856      -1.85268074
H        1.69509447      -1.58113837       0.84337943
H        2.03255957       1.37803035      -0.09828099
H        2.25711561       0.76749212       1.57610868
H       -0.14474565       0.59016670       1.90520334
17
Frame=11 idx=009560 GeodesicLength=0.8397403712230372 rxn_smarts="[C:1]1([H:8])([H:9])[C:2]([H:10])([H:11])[C:3]12[C:4]([H:12])([H:13])[C@@:5]1([H:14])[C:6]([H:15])([H:16])[C@@:7]21[H:17]>>[C:1]1([H:8])([H:9])[C+:2]([H:10])[C@:3]12[C:4]([H:12])([H:13])[C-:5]([H:14])[C:6]([H:15])([H:16])[C:7]2([H:11])[H:17]"
C       -1.88881337      -0.54199055       0.00320604
C       -1.66354585       0.75588469      -0.68964886
C       -0.49021253       0.00058412      -0.27453036
C        0.63056864      -0.73917940      -1.01048558
C        1.34419513      -0.72084386       0.28954861
C        1.68766429       0.66191773       0.67029943
C        0.18701442       0.71722085       0.85888525
H       -2.17451276      -1.43813543      -0.54109078
H       -2.19406322      -0.56127659       1.04451839
H       -1.93392241       0.84926797      -1.73603304
H       -0.72889091       1.78770001       0.34695994
H        0.35241238      -1.73135920      -1.35999928
H        1.03953024      -0.17426115      -1.85063140
H        1.66210054      -1.59956350       0.83266451
H        2.07175229       1.35947026      -0.07453606
H        2.25043703       0.73217659       1.59784088
H       -0.15171393       0.64238744       1.89303229
17
Frame=12 idx=009560 GeodesicLength=0.915717273861395 rxn_smarts="[C:1]1([H:8])([H:9])[C:2]([H:10])([H:11])[C:3]12[C:4]([H:12])([H:13])[C@@:5]1([H:14])[C:6]([H:15])([H:16])[C@@:7]21[H:17]>>[C:1]1([H:8])([H:9])[C+:2]([H:10])[C@:3]12[C:4]([H:12])([H:13])[C-:5]([H:14])[C:6]([H:15])([H:16])[C:7]2([H:11])[H:17]"
C       -1.87784613      -0.55215031       0.01585684
C       -1.68029506       0.74361442      -0.68796300
C       -0.48956879       0.01361834      -0.28049409
C        0.63011082      -0.71953409      -1.02132400
C        1.31798145      -0.72704434       0.29279850
C        1.69309055       0.64816428       0.68203403
C        0.19462415       0.73217851       0.84838945
H       -2.14998717      -1.46072747      -0.51444339
H       -2.16380613      -0.56888909       1.06259370
H       -1.95080176       0.81206864      -1.73639742
H       -0.74206734       1.81015504       0.30855504
H        0.34484297      -1.70232730      -1.39088410
H        1.04958969      -0.14300849      -1.84824297
H        1.62984181      -1.61710072       0.82085473
H        2.10983180       1.33978963      -0.05039063
H        2.24223833       0.69713636       1.61926847
H       -0.15777919       0.69405658       1.87978884
17
Frame=13 idx=009560 GeodesicLength=0.9917359708818703 rxn_smarts="[C:1]1([H:8])([H:9])[C:2]([H:10])([H:11])[C:3]12[C:4]([H:12])([H:13])[C@@:5]1([H:14])[C:6]([H:15])([H:16])[C@@:7]21[H:17]>>[C:1]1([H:8])([H:9])[C+:2]([H:10])[C@:3]12[C:4]([H:12])([H:13])[C-:5]([H:14])[C:6]([H:15])([H:16])[C:7]2([H:11])[H:17]"
C       -1.86654918      -0.56187758       0.02833687
C       -1.69638159       0.73114714      -0.68587636
C       -0.48910144       0.02655383      -0.28633987
C        0.62945410      -0.70010493      -1.03160303
C        1.29182758      -0.73261655       0.29536283
C        1.69787172       0.63425215       0.69372140
C        0.20250587       0.74649893       0.83807504
H       -2.12460112      -1.48231902      -0.48818136
H       -2.13306766      -0.57559449       1.08003098
H       -1.96649547       0.77517471      -1.73581060
H       -0.75622704       1.83163915       0.27014710
H        0.33698926      -1.67318024      -1.42047316
H        1.05914265      -0.11266056      -1.84526764
H        1.59819110      -1.63352950       0.80788314
H        2.14661802       1.31900041      -0.02569317
H        2.23257381       0.66249260       1.64026559
H       -0.16275062       0.74512396       1.86542223
17
Frame=14 idx=009560 GeodesicLength=1.0677862580927389 rxn_smarts="[C:1]1([H:8])([H:9])[C:2]([H:10])([H:11])[C:3]12[C:4]([H:12])([H:13])[C@@:5]1([H:14])[C:6]([H:15])([H:16])[C@@:7]21[H:17]>>[C:1]1([H:8])([H:9])[C+:2]([H:10])[C@:3]12[C:4]([H:12])([H:13])[C-:5]([H:14])[C:6]([H:15])([H:16])[C:7]2([H:11])[H:17]"
C       -1.85510886      -0.57120204       0.04082281
C       -1.71200654       0.71866387      -0.68347058
C       -0.48881259       0.03941624      -0.29205571
C        0.62883442      -0.68091366      -1.04148572
C        1.26593031      -0.73767209       0.29727796
C        1.70211323       0.62017482       0.70534099
C        0.21061145       0.76021262       0.82797644
H       -2.09846259      -1.50302120      -0.46208755
H       -2.10222474      -0.58141642       1.09715319
H       -1.98116727       0.73882381      -1.73450747
H       -0.77168959       1.85234151       0.23173592
H        0.32916098      -1.64405125      -1.44897782
H        1.06853061      -0.08309387      -1.84201924
H        1.56725722      -1.64913814       0.79397050
H        2.18227712       1.29714194      -0.00066910
H        2.22152295       0.62818250       1.66092070
H       -0.16676611       0.79555137       1.85007469
17
Frame=15 idx=009560 GeodesicLength=1.1438909403981785 rxn_smarts="[C:1]1([H:8])([H:9])[C:2]([H:10])([H:11])[C:3]12[C:4]([H:12])([H:13])[C@@:5]1([H:14])[C:6]([H:15])([H:16])[C@@:7]21[H:17]>>[C:1]1([H:8])([H:9])[C+:2]([H:10])[C@:3]12[C:4]([H:12])([H:13])[C-:5]([H:14])[C:6]([H:15])([H:16])[C:7]2([H:11])[H:17]"
C       -1.84350205      -0.58010348       0.05323055
C       -1.72706441       0.70613003      -0.68076194
C       -0.48867684       0.05218953      -0.29759001
C        0.62815135      -0.66198845      -1.05091293
C        1.24029921      -0.74220881       0.29858865
C        1.70581979       0.60597891       0.71686732
C        0.21896546       0.77324901       0.81816261
H       -2.07165238      -1.52274910      -0.43630552
H       -2.07128268      -0.58633945       1.11380928
H       -1.99468705       0.70298179      -1.73250960
H       -0.78842122       1.87220097       0.19345340
H        0.32122716      -1.61497291      -1.47633086
H        1.07762340      -0.05437655      -1.83842484
H        1.53708749      -1.66384521       0.77914246
H        2.21667242       1.27431195       0.02465742
H        2.20921950       0.59434719       1.68111484
H       -0.16977916       0.84519460       1.83380916
17
Frame=16 idx=009560 GeodesicLength=1.2201264560091705 rxn_smarts="[C:1]1([H:8])([H:9])[C:2]([H:10])([H:11])[C:3]12[C:4]([H:12])([H:13])[C@@:5]1([H:14])[C:6]([H:15])([H:16])[C@@:7]21[H:17]>>[C:1]1([H:8])([H:9])[C+:2]([H:10])[C@:3]12[C:4]([H:12])([H:13])[C-:5]([H:14])[C:6]([H:15])([H:16])[C:7]2([H:11])[H:17]"
C       -1.83172266      -0.58860926       0.06559368
C       -1.74159354       0.69350815      -0.67776746
C       -0.48868964       0.06489222      -0.30293244
C        0.62740513      -0.64325891      -1.05993051
C        1.21495705      -0.74626289       0.29932158
C        1.70903163       0.59163387       0.72833619
C        0.22757000       0.78563104       0.80863821
H       -2.04411619      -1.54156540      -0.41074556
H       -2.04025744      -0.59035740       1.13002648
H       -2.00715154       0.66754674      -1.72985311
H       -0.80645664       1.89123827       0.15518619
H        0.31316770      -1.58584964      -1.50267707
H        1.08645836      -0.02637113      -1.83448700
H        1.50756838      -1.67771179       0.76345701
H        2.24988466       1.25046630       0.05031438
H        2.19570442       0.56091921       1.70089154
H       -0.17175969       0.89415062       1.81662790
