16
Frame=0 idx=002127 GeodesicLength=0.0 rxn_smarts="[C:1]([C:2]1([C:3]([H:10])([H:11])[H:12])[C:4]([H:13])([H:14])[O:5][C:6]1([H:15])[H:16])([H:7])([H:8])[H:9]>>[C:1]([C:2]([C:3]([H:10])([H:11])[H:12])([C:4]([O+:5]=[C-:6][H:16])([H:13])[H:14])[H:15])([H:7])([H:8])[H:9]"
C       -0.79803705       1.14603357      -0.73143602
C       -0.12361926      -0.03547034      -0.08815033
C       -1.05886529      -1.18486943       0.23454037
C        0.86489364       0.24804433       1.05751460
O        1.89927249      -0.64121227       0.71774277
C        1.80592812      -0.56679298      -0.67806573
H       -1.36204478       0.85166456      -1.61807175
H       -0.08217718       1.91796598      -1.01353890
H       -1.50867694       1.58785953      -0.02412244
H       -1.64668385      -1.48841698      -0.63336797
H       -0.50234672      -2.04777788       0.60277275
H       -1.75309955      -0.86864128       1.01958312
H        0.47181857       0.02930780       2.05688702
H        1.21416769       1.28957471       1.01966537
H        0.58681004      -0.72394589      -0.94694631
H        1.99266012       0.48667657      -0.97500655
16
Frame=1 idx=002127 GeodesicLength=0.059827527606887365 rxn_smarts="[C:1]([C:2]1([C:3]([H:10])([H:11])[H:12])[C:4]([H:13])([H:14])[O:5][C:6]1([H:15])[H:16])([H:7])([H:8])[H:9]>>[C:1]([C:2]([C:3]([H:10])([H:11])[H:12])([C:4]([O+:5]=[C-:6][H:16])([H:13])[H:14])[H:15])([H:7])([H:8])[H:9]"
C       -0.80100237       1.14607439      -0.72766289
C       -0.12070486      -0.03882292      -0.09379236
C       -1.05972946      -1.18435510       0.23496883
C        0.86113768       0.25160664       1.05543696
O        1.89857443      -0.63999120       0.72108307
C        1.81530925      -0.56721513      -0.67228678
H       -1.36734570       0.85503873      -1.61396769
H       -0.08873537       1.92171091      -1.00916416
H       -1.51055362       1.58431850      -0.01720837
H       -1.64984050      -1.48787871      -0.63147801
H       -0.50464530      -2.04825588       0.60309240
H       -1.75363609      -0.86679575       1.01961914
H        0.46709466       0.03544910       2.05462434
H        1.21359341       1.29180408       1.01807498
H        0.58692493      -0.73448414      -0.96441178
H        2.01355892       0.48179650      -0.97692768
16
Frame=2 idx=002127 GeodesicLength=0.1196366046655032 rxn_smarts="[C:1]([C:2]1([C:3]([H:10])([H:11])[H:12])[C:4]([H:13])([H:14])[O:5][C:6]1([H:15])[H:16])([H:7])([H:8])[H:9]>>[C:1]([C:2]([C:3]([H:10])([H:11])[H:12])([C:4]([O+:5]=[C-:6][H:16])([H:13])[H:14])[H:15])([H:7])([H:8])[H:9]"
C       -0.80402421       1.14610622      -0.72385060
C       -0.11782218      -0.04209997      -0.09940859
C       -1.06055980      -1.18380101       0.23538866
C        0.85737988       0.25522268       1.05331306
O        1.89783675      -0.63873598       0.72438101
C        1.82452895      -0.56763625      -0.66649391
H       -1.37265299       0.85837631      -1.60982881
H       -0.09540124       1.92546936      -1.00472269
H       -1.51250488       1.58075427      -0.01029848
H       -1.65293376      -1.48731716      -0.62960252
H       -0.50688055      -2.04869447       0.60335105
H       -1.75414211      -0.86499567       1.01967528
H        0.46239554       0.04164302       2.05231901
H        1.21304021       1.29406903       1.01644032
H        0.58690676      -0.74502879      -0.98202273
H        2.03483362       0.47666841      -0.97864008
16
Frame=3 idx=002127 GeodesicLength=0.17942875195778868 rxn_smarts="[C:1]([C:2]1([C:3]([H:10])([H:11])[H:12])[C:4]([H:13])([H:14])[O:5][C:6]1([H:15])[H:16])([H:7])([H:8])[H:9]>>[C:1]([C:2]([C:3]([H:10])([H:11])[H:12])([C:4]([O+:5]=[C-:6][H:16])([H:13])[H:14])[H:15])([H:7])([H:8])[H:9]"
C       -0.80710367       1.14612966      -0.72000018
C       -0.11497178      -0.04529992      -0.10499898
C       -1.06135553      -1.18320780       0.23580034
C        0.85362111       0.25889286       1.05114219
O        1.89705992      -0.63744660       0.72763661
C        1.83359480      -0.56804873      -0.66068807
H       -1.37796992       0.86167721      -1.60565521
H       -0.10217654       1.92924115      -1.00021613
H       -1.51453095       1.57716804      -0.00339283
H       -1.65596496      -1.48673271      -0.62773993
H       -0.50905086      -2.04909429       0.60354816
H       -1.75461639      -0.86324209       1.01975307
H        0.45772274       0.04788992       2.04997055
H        1.21250718       1.29637037       1.01476142
H        0.58674382      -0.75558221      -0.99978774
H        2.05649103       0.47128514      -0.98013328
16
Frame=4 idx=002127 GeodesicLength=0.23920638106920178 rxn_smarts="[C:1]([C:2]1([C:3]([H:10])([H:11])[H:12])[C:4]([H:13])([H:14])[O:5][C:6]1([H:15])[H:16])([H:7])([H:8])[H:9]>>[C:1]([C:2]([C:3]([H:10])([H:11])[H:12])([C:4]([O+:5]=[C-:6][H:16])([H:13])[H:14])[H:15])([H:7])([H:8])[H:9]"
C       -0.81024177       1.14614519      -0.71611264
C       -0.11215399      -0.04842138      -0.11056376
C       -1.06211577      -1.18257610       0.23620440
C        0.84986197       0.26261775       1.04892369
O        1.89624457      -0.63612246       0.73084979
C        1.84251427      -0.56844435      -0.65487044
H       -1.38329968       0.86494130      -1.60144695
H       -0.10906289       1.93302603      -0.99564610
H       -1.51663202       1.57356081       0.00350859
H       -1.65893557      -1.48612570      -0.62588844
H       -0.51115444      -2.04945598       0.60368307
H       -1.75505750      -0.86153609       1.01985420
H        0.45307755       0.05419000       2.04757866
H        1.21199299       1.29870906       1.01303854
H        0.58642314      -0.76614685      -1.01771608
H        2.07853914       0.46563878      -0.98139653
16
Frame=5 idx=002127 GeodesicLength=0.29897087964994074 rxn_smarts="[C:1]([C:2]1([C:3]([H:10])([H:11])[H:12])[C:4]([H:13])([H:14])[O:5][C:6]1([H:15])[H:16])([H:7])([H:8])[H:9]>>[C:1]([C:2]([C:3]([H:10])([H:11])[H:12])([C:4]([O+:5]=[C-:6][H:16])([H:13])[H:14])[H:15])([H:7])([H:8])[H:9]"
C       -0.81343919       1.14615335      -0.71218890
C       -0.10936885      -0.05146309      -0.11610322
C       -1.06283952      -1.18190662       0.23660110
C        0.84610341       0.26639786       1.04665718
O        1.89539079      -0.63476427       0.73402143
C        1.85129571      -0.56881431      -0.64904104
H       -1.38864525       0.86816871      -1.59720400
H       -0.11606187       1.93682399      -0.99101380
H       -1.51880782       1.56993341       0.01040609
H       -1.66184650      -1.48549655      -0.62404678
H       -0.51318978      -2.04978029       0.60375529
H       -1.75546405      -0.85987855       1.01997982
H        0.44846085       0.06054409       2.04514326
H        1.21149694       1.30108595       1.01127156
H        0.58593260      -0.77672584      -1.03581656
H        2.10098254       0.45972216      -0.98242143
16
Frame=6 idx=002127 GeodesicLength=0.35872567076909107 rxn_smarts="[C:1]([C:2]1([C:3]([H:10])([H:11])[H:12])[C:4]([H:13])([H:14])[O:5][C:6]1([H:15])[H:16])([H:7])([H:8])[H:9]>>[C:1]([C:2]([C:3]([H:10])([H:11])[H:12])([C:4]([O+:5]=[C-:6][H:16])([H:13])[H:14])[H:15])([H:7])([H:8])[H:9]"
C       -0.81669704       1.14615445      -0.70823002
C       -0.10661642      -0.05442391      -0.12161824
C       -1.06352572      -1.18119994       0.23699107
C        0.84234586       0.27023391       1.04434157
O        1.89449969      -0.63337047       0.73715054
C        1.85994630      -0.56915040      -0.64320137
H       -1.39401030       0.87135919      -1.59292622
H       -0.12317518       1.94063443      -0.98632126
H       -1.52105839       1.56628660       0.01729992
H       -1.66469960      -1.48484553      -0.62221261
H       -0.51515479      -2.05006779       0.60376400
H       -1.75583406      -0.85827037       1.02013193
H        0.44387418       0.06695231       2.04266347
H        1.21101722       1.30350236       1.00946064
H        0.58525695      -0.78732173      -1.05410029
H        2.12383131       0.45352690      -0.98319314
16
Frame=7 idx=002127 GeodesicLength=0.41847247820882355 rxn_smarts="[C:1]([C:2]1([C:3]([H:10])([H:11])[H:12])[C:4]([H:13])([H:14])[O:5][C:6]1([H:15])[H:16])([H:7])([H:8])[H:9]>>[C:1]([C:2]([C:3]([H:10])([H:11])[H:12])([C:4]([O+:5]=[C-:6][H:16])([H:13])[H:14])[H:15])([H:7])([H:8])[H:9]"
C       -0.82001633       1.14614916      -0.70423694
C       -0.10389681      -0.05730241      -0.12710952
C       -1.06417319      -1.18045685       0.23737456
C        0.83859018       0.27412682       1.04197631
O        1.89357196      -0.63194034       0.74023714
C        1.86847396      -0.56944308      -0.63735210
H       -1.39939831       0.87451296      -1.58861343
H       -0.13040451       1.94445730      -0.98157010
H       -1.52338343       1.56262108       0.02419042
H       -1.66749625      -1.48417294      -0.62038420
H       -0.51704708      -2.05031925       0.60370809
H       -1.75616537      -0.85671265       1.02031212
H        0.43931862       0.07341520       2.04013910
H        1.21055236       1.30595981       1.00760566
H        0.58438220      -0.79793776      -1.07257795
H        2.14709199       0.44704295      -0.98369916
16
Frame=8 idx=002127 GeodesicLength=0.47821750434697713 rxn_smarts="[C:1]([C:2]1([C:3]([H:10])([H:11])[H:12])[C:4]([H:13])([H:14])[O:5][C:6]1([H:15])[H:16])([H:7])([H:8])[H:9]>>[C:1]([C:2]([C:3]([H:10])([H:11])[H:12])([C:4]([O+:5]=[C-:6][H:16])([H:13])[H:14])[H:15])([H:7])([H:8])[H:9]"
C       -0.82339761       1.14613762      -0.70021060
C       -0.10120916      -0.06009806      -0.13257860
C       -1.06478034      -1.17967801       0.23775184
C        0.83483690       0.27807733       1.03956057
O        1.89260845      -0.63047275       0.74328177
C        1.87688764      -0.56968222      -0.63149332
H       -1.40481299       0.87763000      -1.58426508
H       -0.13775130       1.94829202      -0.97676212
H       -1.52578227       1.55893720       0.03107856
H       -1.67023799      -1.48347895      -0.61855941
H       -0.51886449      -2.05053549       0.60358650
H       -1.75645541      -0.85520617       1.02052199
H        0.43479467       0.07993362       2.03756925
H        1.21010057       1.30845985       1.00570679
H        0.58329061      -0.80857687      -1.09126161
H        2.17077272       0.44026088      -0.98392653
16
Frame=9 idx=002127 GeodesicLength=0.5379633641330361 rxn_smarts="[C:1]([C:2]1([C:3]([H:10])([H:11])[H:12])[C:4]([H:13])([H:14])[O:5][C:6]1([H:15])[H:16])([H:7])([H:8])[H:9]>>[C:1]([C:2]([C:3]([H:10])([H:11])[H:12])([C:4]([O+:5]=[C-:6][H:16])([H:13])[H:14])[H:15])([H:7])([H:8])[H:9]"
C       -0.82684188       1.14612015      -0.69615244
C       -0.09855350      -0.06280979      -0.13802734
C       -1.06534616      -1.17886419       0.23812336
C        0.83108651       0.28208626       1.03709299
O        1.89161050      -0.62896660       0.74628210
C        1.88519704      -0.56985589      -0.62562674
H       -1.41025828       0.88071028      -1.57988103
H       -0.14521748       1.95213829      -0.97189946
H       -1.52825432       1.55523513       0.03796456
H       -1.67292784      -1.48276373      -0.61673526
H       -0.52060478      -2.05071711       0.60339824
H       -1.75670148      -0.85375149       1.02076373
H        0.43030396       0.08650752       2.03495342
H        1.20965988       1.31100406       1.00376357
H        0.58196669      -0.81924246      -1.11016301
H        2.19488114       0.43316956      -0.98385669
16
Frame=10 idx=002127 GeodesicLength=0.5977050754466968 rxn_smarts="[C:1]([C:2]1([C:3]([H:10])([H:11])[H:12])[C:4]([H:13])([H:14])[O:5][C:6]1([H:15])[H:16])([H:7])([H:8])[H:9]>>[C:1]([C:2]([C:3]([H:10])([H:11])[H:12])([C:4]([O+:5]=[C-:6][H:16])([H:13])[H:14])[H:15])([H:7])([H:8])[H:9]"
C       -0.83034975       1.14609713      -0.69206294
C       -0.09592906      -0.06543640      -0.14345623
C       -1.06586863      -1.17801598       0.23848928
C        0.82733951       0.28615501       1.03457351
O        1.89057916      -0.62741938       0.74923880
C        1.89340737      -0.56995552      -0.61975316
H       -1.41573665       0.88375363      -1.57546098
H       -0.15280439       1.95599583      -0.96698306
H       -1.53079949       1.55151517       0.04484903
H       -1.67556537      -1.48202766      -0.61491059
H       -0.52226497      -2.05086473       0.60314212
H       -1.75690116      -0.85234994       1.02103841
H        0.42584716       0.09313750       2.03229133
H        1.20922833       1.31359458       1.00177662
H        0.58039272      -0.82993699      -1.12929387
H        2.21942521       0.42575773      -0.98347826
16
Frame=11 idx=002127 GeodesicLength=0.657441676031761 rxn_smarts="[C:1]([C:2]1([C:3]([H:10])([H:11])[H:12])[C:4]([H:13])([H:14])[O:5][C:6]1([H:15])[H:16])([H:7])([H:8])[H:9]>>[C:1]([C:2]([C:3]([H:10])([H:11])[H:12])([C:4]([O+:5]=[C-:6][H:16])([H:13])[H:14])[H:15])([H:7])([H:8])[H:9]"
C       -0.83392169       1.14606884      -0.68794296
C       -0.09333508      -0.06797694      -0.14886659
C       -1.06634604      -1.17713410       0.23884984
C        0.82359658       0.29028462       1.03200161
O        1.88951535      -0.62582965       0.75215175
C        1.90152686      -0.56996975      -0.61387289
H       -1.42125081       0.88675994      -1.57100470
H       -0.16051341       1.95986441      -0.96201409
H       -1.53341725       1.54777727       0.05173242
H       -1.67815157      -1.48127095      -0.61308341
H       -0.52384240      -2.05097905       0.60281701
H       -1.75705162      -0.85100236       1.02134758
H        0.42142511       0.09982415       2.02958249
H        1.20880414       1.31623335       0.99974597
H        0.57855125      -0.84066365      -1.14866677
H        2.24441059       0.41801388      -0.98277726
16
Frame=12 idx=002127 GeodesicLength=0.717175581714974 rxn_smarts="[C:1]([C:2]1([C:3]([H:10])([H:11])[H:12])[C:4]([H:13])([H:14])[O:5][C:6]1([H:15])[H:16])([H:7])([H:8])[H:9]>>[C:1]([C:2]([C:3]([H:10])([H:11])[H:12])([C:4]([O+:5]=[C-:6][H:16])([H:13])[H:14])[H:15])([H:7])([H:8])[H:9]"
C       -0.83755842       1.14603530      -0.68379366
C       -0.09077065      -0.07043063      -0.15426035
C       -1.06677637      -1.17621922       0.23920540
C        0.81985811       0.29447635       1.02937615
O        1.88842104      -0.62419407       0.75501911
C        1.90956361      -0.56988592      -0.60798775
H       -1.42680426       0.88972889      -1.56651196
H       -0.16834610       1.96374324      -0.95699466
H       -1.53610703       1.54402124       0.05861521
H       -1.68068804      -1.48049380      -0.61125088
H       -0.52533381      -2.05106066       0.60242156
H       -1.75714937      -0.84970965       1.02169319
H        0.41703922       0.10656720       2.02682619
H        1.20838424       1.31892283       0.99767223
H        0.57641981      -0.85142536      -1.16829588
H        2.26984802       0.40992427      -0.98173388
16
Frame=13 idx=002127 GeodesicLength=0.7769031464243049 rxn_smarts="[C:1]([C:2]1([C:3]([H:10])([H:11])[H:12])[C:4]([H:13])([H:14])[O:5][C:6]1([H:15])[H:16])([H:7])([H:8])[H:9]>>[C:1]([C:2]([C:3]([H:10])([H:11])[H:12])([C:4]([O+:5]=[C-:6][H:16])([H:13])[H:14])[H:15])([H:7])([H:8])[H:9]"
C       -0.84126045       1.14599664      -0.67961614
C       -0.08823481      -0.07279663      -0.15963950
C       -1.06715755      -1.17527205       0.23955613
C        0.81612475       0.29873147       1.02669623
O        1.88729794      -0.62251020       0.75783958
C        1.91752589      -0.56969184      -0.60209910
H       -1.43239998       0.89266019      -1.56198243
H       -0.17630393       1.96763187      -0.95192642
H       -1.53886798       1.54024681       0.06549789
H       -1.68317620      -1.47969642      -0.60941055
H       -0.52673606      -2.05111023       0.60195425
H       -1.75719082      -0.84847266       1.02207702
H        0.41269067       0.11336703       2.02402172
H        1.20796637       1.32166538       0.99555528
H        0.57397834      -0.86222515      -1.18819485
H        2.29574383       0.40147579      -0.98032911
16
Frame=14 idx=002127 GeodesicLength=0.8366239553411525 rxn_smarts="[C:1]([C:2]1([C:3]([H:10])([H:11])[H:12])[C:4]([H:13])([H:14])[O:5][C:6]1([H:15])[H:16])([H:7])([H:8])[H:9]>>[C:1]([C:2]([C:3]([H:10])([H:11])[H:12])([C:4]([O+:5]=[C-:6][H:16])([H:13])[H:14])[H:15])([H:7])([H:8])[H:9]"
C       -0.84502799       1.14595281      -0.67541141
C       -0.08572619      -0.07507405      -0.16500579
C       -1.06748711      -1.17429330       0.23990218
C        0.81239687       0.30305146       1.02396131
O        1.88614793      -0.62077454       0.76061228
C        1.92542230      -0.56937379      -0.59620777
H       -1.43804051       0.89555340      -1.55741601
H       -0.18438817       1.97152972      -0.94681083
H       -1.54169939       1.53645350       0.07238081
H       -1.68561702      -1.47887884      -0.60755991
H       -0.52804533      -2.05112846       0.60141332
H       -1.75717206      -0.84729252       1.02250078
H        0.40838040       0.12022368       2.02116857
H        1.20754759       1.32446387       0.99339618
H        0.57120333      -0.87306594      -1.20837857
H        2.32210536       0.39265300      -0.97854514
16
Frame=15 idx=002127 GeodesicLength=0.8963349671690966 rxn_smarts="[C:1]([C:2]1([C:3]([H:10])([H:11])[H:12])[C:4]([H:13])([H:14])[O:5][C:6]1([H:15])[H:16])([H:7])([H:8])[H:9]>>[C:1]([C:2]([C:3]([H:10])([H:11])[H:12])([C:4]([O+:5]=[C-:6][H:16])([H:13])[H:14])[H:15])([H:7])([H:8])[H:9]"
C       -0.84886116       1.14590374      -0.67118054
C       -0.08324308      -0.07726211      -0.17036147
C       -1.06776227      -1.17328369       0.24024355
C        0.80867494       0.30743784       1.02117069
O        1.88497324      -0.61898336       0.76333614
C        1.93326207      -0.56891696      -0.59031482
H       -1.44372834       0.89840819      -1.55281255
H       -0.19260002       1.97543624      -0.94164941
H       -1.54460027       1.53264056       0.07926440
H       -1.68801140      -1.47804117      -0.60569638
H       -0.52925766      -2.05111603       0.60079685
H       -1.75708878      -0.84617028       1.02296607
H        0.40410933       0.12713717       2.01826623
H        1.20712484       1.32732132       0.99119577
H        0.56807054      -0.88395038      -1.22886200
H        2.34893804       0.38343892      -0.97636254
16
Frame=16 idx=002127 GeodesicLength=0.9560321069069809 rxn_smarts="[C:1]([C:2]1([C:3]([H:10])([H:11])[H:12])[C:4]([H:13])([H:14])[O:5][C:6]1([H:15])[H:16])([H:7])([H:8])[H:9]>>[C:1]([C:2]([C:3]([H:10])([H:11])[H:12])([C:4]([O+:5]=[C-:6][H:16])([H:13])[H:14])[H:15])([H:7])([H:8])[H:9]"
C       -0.85276053       1.14584945      -0.66692463
C       -0.08078416      -0.07935976      -0.17570881
C       -1.06798011      -1.17224396       0.24058027
C        0.80495934       0.31189243       1.01832340
O        1.88377649      -0.61713181       0.76600850
C        1.94105377      -0.56830537      -0.58442258
H       -1.44946647       0.90122400      -1.54817178
H       -0.20094112       1.97935075      -0.93644400
H       -1.54756998       1.52880736       0.08614911
H       -1.69036034      -1.47718356      -0.60381717
H       -0.53036854      -2.05107346       0.60010273
H       -1.75693635      -0.84510725       1.02347475
H        0.39987897       0.13410716       2.01531400
H        1.20669440       1.33024130       0.98895508
H        0.56455418      -0.89488111      -1.24966100
H        2.37625042       0.37381381      -0.97375787
