11
Frame=0 idx=005451 GeodesicLength=0.0 rxn_smarts="[O:1]=[C:2]1[N:3]([H:7])[C:4]([H:8])([H:9])[C:5]([H:10])([H:11])[O:6]1>>[C:5](=[O:6])([H:10])[H:11].[N:3](=[C:4]([H:8])[H:9])[H:7].[O+:1]#[C-:2]"
O        2.74492609       0.30964587       0.53852942
C        1.77486231       0.03734788       0.01097522
N        0.52357201      -1.20252834       0.50767850
C       -0.71587785      -0.76333024       0.51108374
C       -0.64114467       1.14722990      -0.59445805
O        0.56159013       1.38069078      -0.81140121
H        0.69787113      -1.83695645      -0.26740766
H       -1.45483295      -1.18336758      -0.16303174
H       -1.06738434      -0.29523573       1.42261807
H       -1.14448759       1.62026447       0.25574203
H       -1.27909425       0.78623949      -1.41032829
11
Frame=1 idx=005451 GeodesicLength=0.07561863741612392 rxn_smarts="[O:1]=[C:2]1[N:3]([H:7])[C:4]([H:8])([H:9])[C:5]([H:10])([H:11])[O:6]1>>[C:5](=[O:6])([H:10])[H:11].[N:3](=[C:4]([H:8])[H:9])[H:7].[O+:1]#[C-:2]"
O        2.76802638       0.29777589       0.49818963
C        1.76952307       0.05471683       0.00870996
N        0.52350628      -1.19149707       0.52729215
C       -0.72653929      -0.77675665       0.50852356
C       -0.64116177       1.16158568      -0.59525343
O        0.56503929       1.38926132      -0.82103152
H        0.71732220      -1.85982236      -0.21348091
H       -1.44428436      -1.21845221      -0.17569554
H       -1.11056912      -0.33231776       1.41926575
H       -1.13050670       1.63958793       0.26057346
H       -1.29035599       0.83591840      -1.41709310
11
Frame=2 idx=005451 GeodesicLength=0.15029207433419123 rxn_smarts="[O:1]=[C:2]1[N:3]([H:7])[C:4]([H:8])([H:9])[C:5]([H:10])([H:11])[O:6]1>>[C:5](=[O:6])([H:10])[H:11].[N:3](=[C:4]([H:8])[H:9])[H:7].[O+:1]#[C-:2]"
O        2.78968778       0.28420556       0.45661107
C        1.76384276       0.07272285       0.00850506
N        0.52274250      -1.18043352       0.54616197
C       -0.73717543      -0.79064124       0.50596462
C       -0.64123510       1.17586299      -0.59660053
O        0.56849963       1.39774110      -0.83062342
H        0.73651787      -1.87985269      -0.15912274
H       -1.43341777      -1.25492879      -0.18657092
H       -1.15209286      -0.37017996       1.41504320
H       -1.11668406       1.65874989       0.26457174
H       -1.30068531       0.88675382      -1.42394005
11
Frame=3 idx=005451 GeodesicLength=0.22420394804440685 rxn_smarts="[O:1]=[C:2]1[N:3]([H:7])[C:4]([H:8])([H:9])[C:5]([H:10])([H:11])[O:6]1>>[C:5](=[O:6])([H:10])[H:11].[N:3](=[C:4]([H:8])[H:9])[H:7].[O+:1]#[C-:2]"
O        2.80950813       0.26882383       0.41403958
C        1.75792725       0.09156126       0.01040590
N        0.52136584      -1.16939882       0.56417550
C       -0.74771692      -0.80500692       0.50338892
C       -0.64138180       1.19005472      -0.59856956
O        0.57197642       1.40608826      -0.84029476
H        0.75544500      -1.89720212      -0.10453643
H       -1.42225597      -1.29291815      -0.19548091
H       -1.19174901      -0.40883407       1.41013773
H       -1.10301371       1.67782299       0.26765272
H       -1.31010524       0.93900903      -1.43091868
11
Frame=4 idx=005451 GeodesicLength=0.2972692736456763 rxn_smarts="[O:1]=[C:2]1[N:3]([H:7])[C:4]([H:8])([H:9])[C:5]([H:10])([H:11])[O:6]1>>[C:5](=[O:6])([H:10])[H:11].[N:3](=[C:4]([H:8])[H:9])[H:7].[O+:1]#[C-:2]"
O        2.82709995       0.25211519       0.37130774
C        1.75179581       0.11158500       0.01564610
N        0.51935819      -1.15894982       0.58070199
C       -0.75813441      -0.81986543       0.50108844
C       -0.64145885       1.20388858      -0.60146181
O        0.57567217       1.41384839      -0.85026688
H        0.77359970      -1.91129745      -0.05204063
H       -1.41155006      -1.33245592      -0.20132776
H       -1.22863013      -0.44796973       1.40531004
H       -1.08943735       1.69686976       0.26929393
H       -1.31831501       0.99223143      -1.43825117
11
Frame=5 idx=005451 GeodesicLength=0.36964676479414466 rxn_smarts="[O:1]=[C:2]1[N:3]([H:7])[C:4]([H:8])([H:9])[C:5]([H:10])([H:11])[O:6]1>>[C:5](=[O:6])([H:10])[H:11].[N:3](=[C:4]([H:8])[H:9])[H:7].[O+:1]#[C-:2]"
O        2.84156472       0.23419921       0.32884248
C        1.74561949       0.13262602       0.02291941
N        0.51693006      -1.14880007       0.59594696
C       -0.76830710      -0.83524857       0.49875569
C       -0.64154112       1.21753285      -0.60516876
O        0.57941707       1.42089909      -0.86103422
H        0.79135765      -1.92318314      -0.00021048
H       -1.40070708      -1.37367008      -0.20473256
H       -1.26312998      -0.48786118       1.40029488
H       -1.07543330       1.71603099       0.26992340
H       -1.32577041       1.04747488      -1.44553680
11
Frame=6 idx=005451 GeodesicLength=0.44131718368000084 rxn_smarts="[O:1]=[C:2]1[N:3]([H:7])[C:4]([H:8])([H:9])[C:5]([H:10])([H:11])[O:6]1>>[C:5](=[O:6])([H:10])[H:11].[N:3](=[C:4]([H:8])[H:9])[H:7].[O+:1]#[C-:2]"
O        2.85317536       0.21522175       0.28671192
C        1.73924718       0.15567307       0.03526889
N        0.51400303      -1.13986772       0.60893271
C       -0.77833865      -0.85112555       0.49708530
C       -0.64145174       1.23052993      -0.61017108
O        0.58362294       1.42710745      -0.87183462
H        0.80792961      -1.93178098       0.04660094
H       -1.39126511      -1.41652759      -0.20368190
H       -1.29382720      -0.52783122       1.39659509
H       -1.06194701       1.73524048       0.26828613
H       -1.33114839       1.10336038      -1.45379339
11
Frame=7 idx=005451 GeodesicLength=0.5124257327803238 rxn_smarts="[O:1]=[C:2]1[N:3]([H:7])[C:4]([H:8])([H:9])[C:5]([H:10])([H:11])[O:6]1>>[C:5](=[O:6])([H:10])[H:11].[N:3](=[C:4]([H:8])[H:9])[H:7].[O+:1]#[C-:2]"
O        2.86107488       0.19575368       0.24517902
C        1.73277887       0.18071161       0.05249049
N        0.51071556      -1.13221462       0.61952849
C       -0.78822737      -0.86751410       0.49604050
C       -0.64110973       1.24292696      -0.61649422
O        0.58839578       1.43233032      -0.88272834
H        0.82337910      -1.93783623       0.08820990
H       -1.38324557      -1.46107968      -0.19811459
H       -1.32070715      -0.56785398       1.39446362
H       -1.04877042       1.75461507       0.26440580
H       -1.33428394       1.16016098      -1.46298066
11
Frame=8 idx=005451 GeodesicLength=0.5833977031512687 rxn_smarts="[O:1]=[C:2]1[N:3]([H:7])[C:4]([H:8])([H:9])[C:5]([H:10])([H:11])[O:6]1>>[C:5](=[O:6])([H:10])[H:11].[N:3](=[C:4]([H:8])[H:9])[H:7].[O+:1]#[C-:2]"
O        2.86414808       0.17737370       0.20482559
C        1.72663933       0.20511150       0.06757694
N        0.50713292      -1.12434938       0.62942167
C       -0.79799622      -0.88458676       0.49419229
C       -0.64072324       1.25578171      -0.62333310
O        0.59314129       1.43664895      -0.89530017
H        0.83874389      -1.94406251       0.13289791
H       -1.37389764      -1.50762644      -0.19155371
H       -1.34660460      -0.60950053       1.39144153
H       -1.03359249       1.77442864       0.26068625
H       -1.33699131       1.22078112      -1.47085520
11
Frame=9 idx=005451 GeodesicLength=0.6541358145228642 rxn_smarts="[O:1]=[C:2]1[N:3]([H:7])[C:4]([H:8])([H:9])[C:5]([H:10])([H:11])[O:6]1>>[C:5](=[O:6])([H:10])[H:11].[N:3](=[C:4]([H:8])[H:9])[H:7].[O+:1]#[C-:2]"
O        2.86299999       0.16016262       0.16577326
C        1.72061136       0.22940925       0.08245880
N        0.50311981      -1.11697198       0.63774595
C       -0.80778252      -0.90231529       0.49204215
C       -0.64019630       1.26881843      -0.63100655
O        0.59813384       1.44033661      -0.90852442
H        0.85332546      -1.94952468       0.17732191
H       -1.36440058      -1.55609211      -0.18235021
H       -1.37037822      -0.65212279       1.38863206
H       -1.01750251       1.79453609       0.25612581
H       -1.33793030       1.28376386      -1.47821876
11
Frame=10 idx=005451 GeodesicLength=0.7249509685607568 rxn_smarts="[O:1]=[C:2]1[N:3]([H:7])[C:4]([H:8])([H:9])[C:5]([H:10])([H:11])[O:6]1>>[C:5](=[O:6])([H:10])[H:11].[N:3](=[C:4]([H:8])[H:9])[H:7].[O+:1]#[C-:2]"
O        2.85825342       0.14415305       0.12799795
C        1.71485096       0.25161171       0.09142765
N        0.49854988      -1.10879278       0.64590329
C       -0.81764790      -0.92094130       0.48839172
C       -0.64002972       1.28292238      -0.63888731
O        0.60254812       1.44397039      -0.92336942
H        0.86786483      -1.95548436       0.22893658
H       -1.35238772      -1.60666851      -0.17339001
H       -1.39424135      -0.69694036       1.38378331
H       -0.99935754       1.81490528       0.25252441
H       -1.33840299       1.35126449      -1.48331817
11
Frame=11 idx=005451 GeodesicLength=0.7956736809155527 rxn_smarts="[O:1]=[C:2]1[N:3]([H:7])[C:4]([H:8])([H:9])[C:5]([H:10])([H:11])[O:6]1>>[C:5](=[O:6])([H:10])[H:11].[N:3](=[C:4]([H:8])[H:9])[H:7].[O+:1]#[C-:2]"
O        2.85062404       0.12898261       0.09168393
C        1.70907021       0.27267889       0.09720998
N        0.49331467      -1.10060940       0.65286501
C       -0.82769781      -0.94052959       0.48374582
C       -0.64016728       1.29775373      -0.64735395
O        0.60660585       1.44755984      -0.93914809
H        0.88172649      -1.96058524       0.28394862
H       -1.33910368      -1.65919959      -0.16300723
H       -1.41687930      -0.74318269       1.37804420
H       -0.98013479       1.83536838       0.24886911
H       -1.33735839       1.42176307      -1.48685740
11
Frame=12 idx=005451 GeodesicLength=0.8663264463776463 rxn_smarts="[O:1]=[C:2]1[N:3]([H:7])[C:4]([H:8])([H:9])[C:5]([H:10])([H:11])[O:6]1>>[C:5](=[O:6])([H:10])[H:11].[N:3](=[C:4]([H:8])[H:9])[H:7].[O+:1]#[C-:2]"
O        2.84067782       0.11380733       0.05575163
C        1.70320187       0.29220235       0.09849675
N        0.48729255      -1.09199474       0.65908923
C       -0.83793762      -0.96132289       0.47763531
C       -0.64090400       1.31362345      -0.65615112
O        0.60993547       1.45156508      -0.95577055
H        0.89502552      -1.96447803       0.34532567
H       -1.32354207      -1.71366817      -0.15227134
H       -1.43901151      -0.79119993       1.37050072
H       -0.95995350       1.85572604       0.24569662
H       -1.33478452       1.49573951      -1.48830291
11
Frame=13 idx=005451 GeodesicLength=0.9366133141350584 rxn_smarts="[O:1]=[C:2]1[N:3]([H:7])[C:4]([H:8])([H:9])[C:5]([H:10])([H:11])[O:6]1>>[C:5](=[O:6])([H:10])[H:11].[N:3](=[C:4]([H:8])[H:9])[H:7].[O+:1]#[C-:2]"
O        2.82841941       0.09956000       0.02234166
C        1.69693218       0.31163723       0.09956789
N        0.48056438      -1.08451409       0.66256174
C       -0.84848507      -0.98323399       0.47109732
C       -0.64179387       1.32991765      -0.66591206
O        0.61320880       1.45540714      -0.97270581
H        0.90682810      -1.96614262       0.40493047
H       -1.30830318      -1.76967354      -0.13810519
H       -1.45823988      -0.83945032       1.36364870
H       -0.93957767       1.87607832       0.24143068
H       -1.32955322       1.57041424      -1.48885540
11
Frame=14 idx=005451 GeodesicLength=1.0067205503939547 rxn_smarts="[O:1]=[C:2]1[N:3]([H:7])[C:4]([H:8])([H:9])[C:5]([H:10])([H:11])[O:6]1>>[C:5](=[O:6])([H:10])[H:11].[N:3](=[C:4]([H:8])[H:9])[H:7].[O+:1]#[C-:2]"
O        2.81431523       0.08548061      -0.00997176
C        1.69031596       0.33023798       0.09826409
N        0.47306369      -1.07753830       0.66407979
C       -0.85931070      -1.00657191       0.46350904
C       -0.64319769       1.34705689      -0.67624925
O        0.61596004       1.45951770      -0.99010109
H        0.91743025      -1.96558101       0.46733278
H       -1.29193346      -1.82711867      -0.12227877
H       -1.47580182      -0.88855299       1.35621743
H       -0.91887392       1.89621185       0.23698723
H       -1.32196758       1.64685784      -1.48778949
11
Frame=15 idx=005451 GeodesicLength=1.0765774030673392 rxn_smarts="[O:1]=[C:2]1[N:3]([H:7])[C:4]([H:8])([H:9])[C:5]([H:10])([H:11])[O:6]1>>[C:5](=[O:6])([H:10])[H:11].[N:3](=[C:4]([H:8])[H:9])[H:7].[O+:1]#[C-:2]"
O        2.79855592       0.07190858      -0.04061651
C        1.68323898       0.34827897       0.09550477
N        0.46480778      -1.07156914       0.66298795
C       -0.87046902      -1.03143954       0.45501232
C       -0.64497665       1.36501678      -0.68719562
O        0.61833429       1.46375176      -1.00788786
H        0.92653668      -1.96240151       0.53072861
H       -1.27503814      -1.88577941      -0.10420473
H       -1.49121867      -0.93799302       1.34874642
H       -0.89792245       1.91620319       0.23214525
H       -1.31184872       1.72402334      -1.48522060
11
Frame=16 idx=005451 GeodesicLength=1.1461921046088979 rxn_smarts="[O:1]=[C:2]1[N:3]([H:7])[C:4]([H:8])([H:9])[C:5]([H:10])([H:11])[O:6]1>>[C:5](=[O:6])([H:10])[H:11].[N:3](=[C:4]([H:8])[H:9])[H:7].[O+:1]#[C-:2]"
O        2.78133942       0.05866171      -0.06999186
C        1.67567910       0.36568794       0.09118541
N        0.45584290      -1.06676965       0.65905738
C       -0.88191701      -1.05802885       0.44547259
C       -0.64716244       1.38391040      -0.69858825
O        0.62027894       1.46829660      -1.02587536
H        0.93397056      -1.95624555       0.59578209
H       -1.25749345      -1.94547386      -0.08414566
H       -1.50455629      -0.98764497       1.34112293
H       -0.87688948       1.93600500       0.22707851
H       -1.29909226       1.80160123      -1.48109777
