16
Frame=0 idx=000228 GeodesicLength=0.0 rxn_smarts="[C:1]([C@@:2]1([H:10])[C:3]([H:11])([H:12])[C:4]([H:13])([H:14])[C:5]([H:15])=[C:6]1[H:16])([H:7])([H:8])[H:9]>>[C:1]([C@@:2]1([H:10])[C:3]([H:11])([H:12])[C:4]([H:13])([H:14])[C:5][C:6]1([H:15])[H:16])([H:7])([H:8])[H:9]"
C        1.91614485      -0.27409284       0.17082750
C        0.56031714       0.07054390      -0.42660017
C       -0.54051750      -0.97665977      -0.21302306
C       -1.83909649      -0.15112615      -0.13472635
C       -1.48781913       1.26334931       0.28362312
C       -0.09843975       1.31264477       0.14592927
H        1.83356520      -0.43409305       1.24924236
H        2.64278310       0.52371382       0.00309806
H        2.31888351      -1.18754521      -0.27062408
H        0.68451707       0.26256881      -1.50070249
H       -0.55556257      -1.74185681      -0.99030435
H       -0.36841845      -1.48701020       0.74094676
H       -2.61572006      -0.60410943       0.48223682
H       -2.28446462      -0.02317010      -1.12950107
H       -0.63060332       1.21285427       1.29717031
H        0.46443106       2.23398872       0.29240738
16
Frame=1 idx=000228 GeodesicLength=0.03740489594260965 rxn_smarts="[C:1]([C@@:2]1([H:10])[C:3]([H:11])([H:12])[C:4]([H:13])([H:14])[C:5]([H:15])=[C:6]1[H:16])([H:7])([H:8])[H:9]>>[C:1]([C@@:2]1([H:10])[C:3]([H:11])([H:12])[C:4]([H:13])([H:14])[C:5][C:6]1([H:15])[H:16])([H:7])([H:8])[H:9]"
C        1.91651554      -0.27597609       0.17033275
C        0.56064551       0.07109746      -0.42556763
C       -0.53971018      -0.97714226      -0.21395373
C       -1.83878658      -0.15307845      -0.13464210
C       -1.48588181       1.25975100       0.28141252
C       -0.09632125       1.31241772       0.15102517
H        1.83455045      -0.43794821       1.24849775
H        2.64392643       0.52127418       0.00325923
H        2.31829103      -1.18892261      -0.27320384
H        0.68479801       0.26354466      -1.49960945
H       -0.55421108      -1.74112151      -0.99247593
H       -0.36788296      -1.48888796       0.73925737
H       -2.61568217      -0.60591416       0.48217076
H       -2.28375273      -0.02384913      -1.12979213
H       -0.64022009       1.22740692       1.30981937
H        0.46372188       2.23734844       0.28346988
16
Frame=2 idx=000228 GeodesicLength=0.07480957765283024 rxn_smarts="[C:1]([C@@:2]1([H:10])[C:3]([H:11])([H:12])[C:4]([H:13])([H:14])[C:5]([H:15])=[C:6]1[H:16])([H:7])([H:8])[H:9]>>[C:1]([C@@:2]1([H:10])[C:3]([H:11])([H:12])[C:4]([H:13])([H:14])[C:5][C:6]1([H:15])[H:16])([H:7])([H:8])[H:9]"
C        1.91690434      -0.27789109       0.16983589
C        0.56099798       0.07163578      -0.42453146
C       -0.53887766      -0.97764632      -0.21492154
C       -1.83844332      -0.15504710      -0.13452064
C       -1.48386281       1.25608828       0.27936874
C       -0.09416229       1.31215657       0.15620215
H        1.83554023      -0.44183936       1.24774578
H        2.64509179       0.51880013       0.00342973
H        2.31771427      -1.19032143      -0.27579616
H        0.68509816       0.26454987      -1.49850440
H       -0.55285416      -1.74036228      -0.99472372
H       -0.36730981      -1.49082771       0.73750461
H       -2.61559937      -0.60776132       0.48213698
H       -2.28302636      -0.02445843      -1.13002392
H       -0.65016532       1.24238808       1.32235085
H        0.46295433       2.24053636       0.27444712
16
Frame=3 idx=000228 GeodesicLength=0.11221181420668308 rxn_smarts="[C:1]([C@@:2]1([H:10])[C:3]([H:11])([H:12])[C:4]([H:13])([H:14])[C:5]([H:15])=[C:6]1[H:16])([H:7])([H:8])[H:9]>>[C:1]([C@@:2]1([H:10])[C:3]([H:11])([H:12])[C:4]([H:13])([H:14])[C:5][C:6]1([H:15])[H:16])([H:7])([H:8])[H:9]"
C        1.91731209      -0.27983696       0.16933409
C        0.56137447       0.07215801      -0.42349309
C       -0.53801983      -0.97817235      -0.21592592
C       -1.83806636      -0.15703230      -0.13436218
C       -1.48176182       1.25235993       0.27749662
C       -0.09196204       1.31186126       0.16145683
H        1.83653690      -0.44575964       1.24698445
H        2.64627933       0.51629225       0.00360260
H        2.31715339      -1.19174264      -0.27839969
H        0.68541616       0.26558196      -1.49738896
H       -0.55149295      -1.73958103      -0.99704499
H       -0.36669816      -1.49282794       0.73568957
H       -2.61547211      -0.60965114       0.48213428
H       -2.28228476      -0.02499528      -1.13019601
H       -0.66044642       1.25780528       1.33474626
H        0.46213212       2.24354059       0.26536615
16
Frame=4 idx=000228 GeodesicLength=0.1496153747518659 rxn_smarts="[C:1]([C@@:2]1([H:10])[C:3]([H:11])([H:12])[C:4]([H:13])([H:14])[C:5]([H:15])=[C:6]1[H:16])([H:7])([H:8])[H:9]>>[C:1]([C@@:2]1([H:10])[C:3]([H:11])([H:12])[C:4]([H:13])([H:14])[C:5][C:6]1([H:15])[H:16])([H:7])([H:8])[H:9]"
C        1.91773954      -0.28181265       0.16882449
C        0.56177483       0.07266318      -0.42245462
C       -0.53713660      -0.97872102      -0.21696630
C       -1.83765546      -0.15903426      -0.13416709
C       -1.47957849       1.24856397       0.27580376
C       -0.08971994       1.31153272       0.16678386
H        1.83754255      -0.44970089       1.24621230
H        2.64748916       0.51375128       0.00376993
H        2.31660841      -1.19318794      -0.28101231
H        0.68575064       0.26663770      -1.49626581
H       -0.55012853      -1.73878040      -0.99943694
H       -0.36604699      -1.49488717       0.73381378
H       -2.61530142      -0.61158458       0.48216024
H       -2.28152673      -0.02545550      -1.13030830
H       -0.67107070       1.27366555       1.34698800
H        0.46125973       2.24635001       0.25625500
16
Frame=5 idx=000228 GeodesicLength=0.18700466494631882 rxn_smarts="[C:1]([C@@:2]1([H:10])[C:3]([H:11])([H:12])[C:4]([H:13])([H:14])[C:5]([H:15])=[C:6]1[H:16])([H:7])([H:8])[H:9]>>[C:1]([C@@:2]1([H:10])[C:3]([H:11])([H:12])[C:4]([H:13])([H:14])[C:5][C:6]1([H:15])[H:16])([H:7])([H:8])[H:9]"
C        1.91818772      -0.28381683       0.16830443
C        0.56219904       0.07314975      -0.42141855
C       -0.53622775      -0.97929329      -0.21804176
C       -1.83721112      -0.16105276      -0.13393522
C       -1.47731385       1.24469885       0.27430264
C       -0.08743545       1.31117150       0.17217492
H        1.83855937      -0.45365307       1.24542775
H        2.64872188       0.51117761       0.00392331
H        2.31607970      -1.19465895      -0.28363032
H        0.68610031       0.26771224      -1.49513821
H       -0.54876196      -1.73796364      -1.00189674
H       -0.36535467      -1.49700413       0.73187963
H       -2.61508964      -0.61356301       0.48221218
H       -2.28075173      -0.02583237      -1.13036110
H       -0.68204274       1.28997253       1.35905041
H        0.46034088       2.24895556       0.24714662
16
Frame=6 idx=000228 GeodesicLength=0.22432817865771978 rxn_smarts="[C:1]([C@@:2]1([H:10])[C:3]([H:11])([H:12])[C:4]([H:13])([H:14])[C:5]([H:15])=[C:6]1[H:16])([H:7])([H:8])[H:9]>>[C:1]([C@@:2]1([H:10])[C:3]([H:11])([H:12])[C:4]([H:13])([H:14])[C:5][C:6]1([H:15])[H:16])([H:7])([H:8])[H:9]"
C        1.91865781      -0.28585097       0.16776840
C        0.56264526       0.07362080      -0.42037939
C       -0.53529432      -0.97988779      -0.21914957
C       -1.83673190      -0.16308854      -0.13366678
C       -1.47497023       1.24077568       0.27294275
C       -0.08511183       1.31077023       0.17766064
H        1.83959658      -0.45762686       1.24462524
H        2.64997536       0.50857342       0.00405975
H        2.31556666      -1.19615389      -0.28626814
H        0.68645934       0.26881946      -1.49399868
H       -0.54739316      -1.73713030      -1.00441807
H       -0.36462422      -1.49917589       0.72988887
H       -2.61483075      -0.61557473       0.48230307
H       -2.27996260      -0.02615342      -1.13035230
H       -0.69336950       1.30673496       1.37090489
H        0.45938749       2.25134784       0.23807931
16
Frame=7 idx=000228 GeodesicLength=0.26164155185020616 rxn_smarts="[C:1]([C@@:2]1([H:10])[C:3]([H:11])([H:12])[C:4]([H:13])([H:14])[C:5]([H:15])=[C:6]1[H:16])([H:7])([H:8])[H:9]>>[C:1]([C@@:2]1([H:10])[C:3]([H:11])([H:12])[C:4]([H:13])([H:14])[C:5][C:6]1([H:15])[H:16])([H:7])([H:8])[H:9]"
C        1.91915102      -0.28791528       0.16721800
C        0.56311556       0.07407338      -0.41934008
C       -0.53433418      -0.98050631      -0.22029130
C       -1.83621824      -0.16514282      -0.13335829
C       -1.47254654       1.23677942       0.27178118
C       -0.08274547       1.31033485       0.18321523
H        1.84065126      -0.46161421       1.24380725
H        2.65125485       0.50593343       0.00417362
H        2.31506885      -1.19767750      -0.28891651
H        0.68683268       0.26994822      -1.49285187
H       -0.54602224      -1.73627868      -1.00700741
H       -0.36384955      -1.50140848       0.72783839
H       -2.61453066      -0.61763653       0.48241942
H       -2.27915609      -0.02639133      -1.13027870
H       -0.70506551       1.32397560       1.38254189
H        0.45839425       2.25352627       0.22904919
16
Frame=8 idx=000228 GeodesicLength=0.29895484640324216 rxn_smarts="[C:1]([C@@:2]1([H:10])[C:3]([H:11])([H:12])[C:4]([H:13])([H:14])[C:5]([H:15])=[C:6]1[H:16])([H:7])([H:8])[H:9]>>[C:1]([C@@:2]1([H:10])[C:3]([H:11])([H:12])[C:4]([H:13])([H:14])[C:5][C:6]1([H:15])[H:16])([H:7])([H:8])[H:9]"
C        1.91966796      -0.29001304       0.16665412
C        0.56361092       0.07450803      -0.41829722
C       -0.53334624      -0.98114901      -0.22146837
C       -1.83566821      -0.16721750      -0.13300430
C       -1.47004156       1.23271089       0.27081603
C       -0.08033508       1.30986442       0.18884283
H        1.84172439      -0.46563240       1.24297222
H        2.65256029       0.50325674       0.00427592
H        2.31458755      -1.19922646      -0.29158684
H        0.68722211       0.27110231      -1.49169348
H       -0.54465016      -1.73540351      -1.00967075
H       -0.36302822      -1.50370749       0.72572278
H       -2.61418373      -0.61975169       0.48257014
H       -2.27833462      -0.02655102      -1.13013243
H       -0.71714502       1.34172186       1.39394093
H        0.45735962       2.25548787       0.22005842
16
Frame=9 idx=000228 GeodesicLength=0.33628019064875553 rxn_smarts="[C:1]([C@@:2]1([H:10])[C:3]([H:11])([H:12])[C:4]([H:13])([H:14])[C:5]([H:15])=[C:6]1[H:16])([H:7])([H:8])[H:9]>>[C:1]([C@@:2]1([H:10])[C:3]([H:11])([H:12])[C:4]([H:13])([H:14])[C:5][C:6]1([H:15])[H:16])([H:7])([H:8])[H:9]"
C        1.92021169      -0.29214831       0.16607854
C        0.56413447       0.07492617      -0.41724671
C       -0.53233165      -0.98181910      -0.22268420
C       -1.83508285      -0.16931685      -0.13259863
C       -1.46745558       1.22856814       0.27005499
C       -0.07787533       1.30936157       0.19455423
H        1.84281802      -0.46969770       1.24212439
H        2.65389804       0.50054386       0.00437475
H        2.31412420      -1.20080249      -0.29428980
H        0.68763370       0.27228906      -1.49052254
H       -0.54327842      -1.73450186      -1.01242262
H       -0.36216322      -1.50608431       0.72353713
H       -2.61378946      -0.62192830       0.48276706
H       -2.27750147      -0.02663719      -1.12990825
H       -0.72962387       1.36000896       1.40508202
H        0.45628172       2.25723835       0.21109963
16
Frame=10 idx=000228 GeodesicLength=0.3735850221749246 rxn_smarts="[C:1]([C@@:2]1([H:10])[C:3]([H:11])([H:12])[C:4]([H:13])([H:14])[C:5]([H:15])=[C:6]1[H:16])([H:7])([H:8])[H:9]>>[C:1]([C@@:2]1([H:10])[C:3]([H:11])([H:12])[C:4]([H:13])([H:14])[C:5][C:6]1([H:15])[H:16])([H:7])([H:8])[H:9]"
C        1.92077997      -0.29432817       0.16548985
C        0.56468350       0.07532675      -0.41618074
C       -0.53128236      -0.98251037      -0.22394167
C       -1.83445535      -0.17143945      -0.13213499
C       -1.46478902       1.22435062       0.26949243
C       -0.07537657       1.30880849       0.20035903
H        1.84394003      -0.47380979       1.24125262
H        2.65526258       0.49777285       0.00445876
H        2.31367384      -1.20241152      -0.29701583
H        0.68806017       0.27351294      -1.48931895
H       -0.54189666      -1.73355300      -1.01526565
H       -0.36124033      -1.50854151       0.72126386
H       -2.61332938      -0.62416350       0.48301778
H       -2.27665582      -0.02664844      -1.12959053
H       -0.74253313       1.37885875       1.41592468
H        0.45515853       2.25877536       0.20218937
16
Frame=11 idx=000228 GeodesicLength=0.4108774380767335 rxn_smarts="[C:1]([C@@:2]1([H:10])[C:3]([H:11])([H:12])[C:4]([H:13])([H:14])[C:5]([H:15])=[C:6]1[H:16])([H:7])([H:8])[H:9]>>[C:1]([C@@:2]1([H:10])[C:3]([H:11])([H:12])[C:4]([H:13])([H:14])[C:5][C:6]1([H:15])[H:16])([H:7])([H:8])[H:9]"
C        1.92137302      -0.29654926       0.16488642
C        0.56525905       0.07570953      -0.41510558
C       -0.53020222      -0.98322626      -0.22524019
C       -1.83378671      -0.17358665      -0.13161073
C       -1.46204159       1.22005153       0.26914213
C       -0.07282853       1.30821884       0.20624589
H        1.84508107      -0.47797978       1.24035983
H        2.65664969       0.49496460       0.00454670
H        2.31324214      -1.20404593      -0.29977837
H        0.68850141       0.27476767      -1.48809825
H       -0.54051122      -1.73256739      -1.01819829
H       -0.36026125      -1.51107803       0.71891089
H       -2.61280733      -0.62646259       0.48332211
H       -2.27580094      -0.02657840      -1.12917680
H       -0.75585832       1.39828583       1.42643843
H        0.45399173       2.26007628       0.19335581
16
Frame=12 idx=000228 GeodesicLength=0.44818196332602456 rxn_smarts="[C:1]([C@@:2]1([H:10])[C:3]([H:11])([H:12])[C:4]([H:13])([H:14])[C:5]([H:15])=[C:6]1[H:16])([H:7])([H:8])[H:9]>>[C:1]([C@@:2]1([H:10])[C:3]([H:11])([H:12])[C:4]([H:13])([H:14])[C:5][C:6]1([H:15])[H:16])([H:7])([H:8])[H:9]"
C        1.92199810      -0.29881598       0.16426407
C        0.56586343       0.07607299      -0.41401800
C       -0.52909221      -0.98397341      -0.22657965
C       -1.83308046      -0.17576369      -0.13102390
C       -1.45921383       1.21567790       0.26900477
C       -0.07023129       1.30758737       0.21222808
H        1.84625426      -0.48221216       1.23944520
H        2.65807123       0.49211365       0.00462948
H        2.31283495      -1.20570997      -0.30259057
H        0.68895839       0.27605603      -1.48685923
H       -0.53912310      -1.73155277      -1.02122661
H       -0.35922934      -1.51370502       0.71647904
H       -2.61222985      -0.62883186       0.48368797
H       -2.27494049      -0.02643383      -1.12866925
H       -0.76963759       1.41832723       1.43659834
H        0.45279781       2.26116353       0.18463024
16
Frame=13 idx=000228 GeodesicLength=0.4854743143409335 rxn_smarts="[C:1]([C@@:2]1([H:10])[C:3]([H:11])([H:12])[C:4]([H:13])([H:14])[C:5]([H:15])=[C:6]1[H:16])([H:7])([H:8])[H:9]>>[C:1]([C@@:2]1([H:10])[C:3]([H:11])([H:12])[C:4]([H:13])([H:14])[C:5][C:6]1([H:15])[H:16])([H:7])([H:8])[H:9]"
C        1.92265258      -0.30113024       0.16362271
C        0.56649774       0.07641892      -0.41290989
C       -0.52794904      -0.98474464      -0.22795939
C       -1.83233102      -0.17797220      -0.13036583
C       -1.45630253       1.21121417       0.26909188
C       -0.06758280       1.30690576       0.21831465
H        1.84745453      -0.48652496       1.23849875
H        2.65952473       0.48921429       0.00471732
H        2.31244826      -1.20739343      -0.30546122
H        0.68943336       0.27738732      -1.48558560
H       -0.53773060      -1.73048790      -1.02435050
H       -0.35814173      -1.51642127       0.71395676
H       -2.61158728      -0.63127481       0.48412034
H       -2.27406841      -0.02621028      -1.12804917
H       -0.78388863       1.43900897       1.44635554
H        0.45157082       2.26201030       0.17600364
16
Frame=14 idx=000228 GeodesicLength=0.5227742351724538 rxn_smarts="[C:1]([C@@:2]1([H:10])[C:3]([H:11])([H:12])[C:4]([H:13])([H:14])[C:5]([H:15])=[C:6]1[H:16])([H:7])([H:8])[H:9]>>[C:1]([C@@:2]1([H:10])[C:3]([H:11])([H:12])[C:4]([H:13])([H:14])[C:5][C:6]1([H:15])[H:16])([H:7])([H:8])[H:9]"
C        1.92334016      -0.30349691       0.16296109
C        0.56716157       0.07674589      -0.41178185
C       -0.52677125      -0.98554621      -0.22938117
C       -1.83153891      -0.18021387      -0.12963428
C       -1.45331009       1.20666524       0.26941353
C       -0.06488379       1.30617651       0.22450881
H        1.84869065      -0.49092411       1.23752408
H        2.66101244       0.48626503       0.00480769
H        2.31208522      -1.20910544      -0.30839547
H        0.68992141       0.27876249      -1.48428262
H       -0.53633430      -1.72938096      -1.02757734
H       -0.35699174      -1.51923777       0.71134497
H       -2.61087735      -0.63379738       0.48462375
H       -2.27318958      -0.02590507      -1.12731787
H       -0.79862654       1.46036087       1.45567932
H        0.45031210       2.26263170       0.16750736
16
Frame=15 idx=000228 GeodesicLength=0.56007608384809 rxn_smarts="[C:1]([C@@:2]1([H:10])[C:3]([H:11])([H:12])[C:4]([H:13])([H:14])[C:5]([H:15])=[C:6]1[H:16])([H:7])([H:8])[H:9]>>[C:1]([C@@:2]1([H:10])[C:3]([H:11])([H:12])[C:4]([H:13])([H:14])[C:5][C:6]1([H:15])[H:16])([H:7])([H:8])[H:9]"
C        1.92406151      -0.30591728       0.16227688
C        0.56785567       0.07705354      -0.41063083
C       -0.52555828      -0.98637725      -0.23084516
C       -1.83070266      -0.18249100      -0.12882346
C       -1.45023500       1.20202408       0.26998150
C       -0.06213250       1.30539502       0.23081538
H        1.84996408      -0.49541446       1.23651648
H        2.66253517       0.48326386       0.00489976
H        2.31174537      -1.21084370      -0.31139858
H        0.69042264       0.28018458      -1.48294497
H       -0.53493505      -1.72822541      -1.03090896
H       -0.35577800      -1.52215718       0.70863849
H       -2.61009798      -0.63640479       0.48520199
H       -2.27230327      -0.02551527      -1.12646528
H       -0.81386892       1.48240574       1.46452226
H        0.44902723       2.26301953       0.15916450
16
Frame=16 idx=000228 GeodesicLength=0.597379926458322 rxn_smarts="[C:1]([C@@:2]1([H:10])[C:3]([H:11])([H:12])[C:4]([H:13])([H:14])[C:5]([H:15])=[C:6]1[H:16])([H:7])([H:8])[H:9]>>[C:1]([C@@:2]1([H:10])[C:3]([H:11])([H:12])[C:4]([H:13])([H:14])[C:5][C:6]1([H:15])[H:16])([H:7])([H:8])[H:9]"
C        1.92481817      -0.30839387       0.16156808
C        0.56858055       0.07734132      -0.40945406
C       -0.52430931      -0.98723868      -0.23235203
C       -1.82982118      -0.18480599      -0.12792762
C       -1.44707646       1.19728572       0.27080922
C       -0.05932757       1.30455798       0.23724057
H        1.85127833      -0.50000257       1.23547310
H        2.66409419       0.48020875       0.00499302
H        2.31142921      -1.21260852      -0.31447667
H        0.69093583       0.28165711      -1.48156912
H       -0.53353380      -1.72701744      -1.03434935
H       -0.35449765      -1.52518499       0.70583288
H       -2.60924683      -0.63910333       0.48585942
H       -2.27141018      -0.02503727      -1.12548290
H       -0.82963409       1.50517030       1.47283590
H        0.44772078       2.26317149       0.15099955
