21
Frame=0 idx=010331 GeodesicLength=0.0 rxn_smarts="[C:1]([C:2]([C:3]([H:12])([H:13])[H:14])([C:4]([C@@:5]([C:6]([H:18])([H:19])[H:20])([O:7][H:21])[H:17])([H:15])[H:16])[H:11])([H:8])([H:9])[H:10]>>[C:1](/[C:2](=[C:4](\[C@@:5]([C:6]([H:18])([H:19])[H:20])([O:7][H:21])[H:17])[H:15])[H:11])([H:8])([H:9])[H:10].[C:3]([H:12])([H:13])([H:14])[H:16]"
C       -1.41392753      -1.25139942      -0.72991204
C       -0.95686773      -0.63389336       0.55805731
C       -2.19262318       1.07830478       0.50358632
C        0.40046952      -0.21394015       0.77459742
C        1.33663303       0.01757504      -0.35482442
C        2.57261952       0.78434871       0.09067427
O        1.71372071      -1.24649947      -0.93517177
H       -2.49879013      -1.33044982      -0.78535427
H       -0.96938297      -2.24850606      -0.77444233
H       -1.04848640      -0.70231569      -1.59526723
H       -1.45356932      -1.00761535       1.44571067
H       -3.13656599       0.60610557       0.76927955
H       -2.22507054       1.47879032      -0.50975557
H       -1.96289032       1.86575301       1.22976839
H        0.78971199      -0.30061023       1.78041808
H       -0.76027298       0.64642527       0.71322310
H        0.83050813       0.60463735      -1.13970467
H        3.08831905       0.23386200       0.88019789
H        2.29406343       1.76680852       0.47571429
H        3.27172546       0.92904312      -0.73685612
H        2.32067633      -1.07642409      -1.65993892
21
Frame=1 idx=010331 GeodesicLength=0.11250962832169994 rxn_smarts="[C:1]([C:2]([C:3]([H:12])([H:13])[H:14])([C:4]([C@@:5]([C:6]([H:18])([H:19])[H:20])([O:7][H:21])[H:17])([H:15])[H:16])[H:11])([H:8])([H:9])[H:10]>>[C:1](/[C:2](=[C:4](\[C@@:5]([C:6]([H:18])([H:19])[H:20])([O:7][H:21])[H:17])[H:15])[H:11])([H:8])([H:9])[H:10].[C:3]([H:12])([H:13])([H:14])[H:16]"
C       -1.42461378      -1.23902466      -0.74646997
C       -0.95944121      -0.63517901       0.54544550
C       -2.19471211       1.08767663       0.53070947
C        0.39803884      -0.21947463       0.76194019
C        1.34740301      -0.00557421      -0.36054979
C        2.56176716       0.79827103       0.07963154
O        1.75287331      -1.28237463      -0.88807044
H       -2.50791261      -1.34701855      -0.78367938
H       -0.95729773      -2.22289038      -0.82906510
H       -1.09395013      -0.66169764      -1.60769182
H       -1.44171841      -1.03460347       1.43041949
H       -3.14188985       0.61543264       0.78586669
H       -2.23137356       1.50916964      -0.47404428
H       -1.97522249       1.86252683       1.27322761
H        0.78558995      -0.31551555       1.76819531
H       -0.74866716       0.67467118       0.71273847
H        0.84975529       0.54587726      -1.17542609
H        3.07573625       0.28420879       0.89439298
H        2.25826963       1.78748899       0.42678605
H        3.27178712       0.92845470      -0.74107703
H        2.37557848      -1.13042495      -1.60327941
21
Frame=2 idx=010331 GeodesicLength=0.22497521802573722 rxn_smarts="[C:1]([C:2]([C:3]([H:12])([H:13])[H:14])([C:4]([C@@:5]([C:6]([H:18])([H:19])[H:20])([O:7][H:21])[H:17])([H:15])[H:16])[H:11])([H:8])([H:9])[H:10]>>[C:1](/[C:2](=[C:4](\[C@@:5]([C:6]([H:18])([H:19])[H:20])([O:7][H:21])[H:17])[H:15])[H:11])([H:8])([H:9])[H:10].[C:3]([H:12])([H:13])([H:14])[H:16]"
C       -1.43495464      -1.22522635      -0.76450383
C       -0.96213201      -0.63690088       0.53220535
C       -2.19625243       1.09627511       0.55946147
C        0.39508812      -0.22436925       0.74920681
C        1.35836814      -0.03001999      -0.36566965
C        2.54989860       0.81182435       0.06642955
O        1.79256007      -1.31816972      -0.83600707
H       -2.51536724      -1.36391338      -0.78431894
H       -0.94439990      -2.19313145      -0.88744090
H       -1.14079203      -0.61810658      -1.61875823
H       -1.42978600      -1.06318356       1.41305029
H       -3.14673887       0.62410226       0.80359092
H       -2.23772040       1.53981618      -0.43569740
H       -1.98687908       1.85735357       1.31876191
H        0.78040351      -0.32823680       1.75620140
H       -0.73647566       0.70387849       0.71195106
H        0.87041163       0.48265020      -1.21052373
H        3.06056943       0.33720211       0.90675453
H        2.22145293       1.80668242       0.37246893
H        3.27150004       0.92625818      -0.74657631
H        2.43124577      -1.18478494      -1.54058617
21
Frame=3 idx=010331 GeodesicLength=0.33723107728208296 rxn_smarts="[C:1]([C:2]([C:3]([H:12])([H:13])[H:14])([C:4]([C@@:5]([C:6]([H:18])([H:19])[H:20])([O:7][H:21])[H:17])([H:15])[H:16])[H:11])([H:8])([H:9])[H:10]>>[C:1](/[C:2](=[C:4](\[C@@:5]([C:6]([H:18])([H:19])[H:20])([O:7][H:21])[H:17])[H:15])[H:11])([H:8])([H:9])[H:10].[C:3]([H:12])([H:13])([H:14])[H:16]"
C       -1.44472374      -1.21004262      -0.78394657
C       -0.96494732      -0.63908315       0.51841941
C       -2.19719742       1.10397214       0.58966135
C        0.39157078      -0.22847889       0.73652064
C        1.36941020      -0.05558975      -0.36999310
C        2.53711966       0.82472965       0.05093835
O        1.83214904      -1.35323683      -0.77910311
H       -2.52080044      -1.38120167      -0.78767666
H       -0.93057667      -2.15893733      -0.94912728
H       -1.18861071      -0.57191758      -1.62814703
H       -1.41780227      -1.09330889       1.39356661
H       -3.15107474       0.63203523       0.82227143
H       -2.24401368       1.57044281      -0.39486683
H       -1.99790547       1.85016780       1.36606809
H        0.77412494      -0.33869069       1.74457713
H       -0.72377604       0.73415310       0.71102705
H        0.89233915       0.41522226      -1.24429309
H        3.04285511       0.39240228       0.91665476
H        2.18406638       1.82379348       0.31285611
H        3.27085491       0.92228254      -0.75344865
H        2.48693834      -1.23871388      -1.47195863
21
Frame=4 idx=010331 GeodesicLength=0.44911225309578395 rxn_smarts="[C:1]([C:2]([C:3]([H:12])([H:13])[H:14])([C:4]([C@@:5]([C:6]([H:18])([H:19])[H:20])([O:7][H:21])[H:17])([H:15])[H:16])[H:11])([H:8])([H:9])[H:10]>>[C:1](/[C:2](=[C:4](\[C@@:5]([C:6]([H:18])([H:19])[H:20])([O:7][H:21])[H:17])[H:15])[H:11])([H:8])([H:9])[H:10].[C:3]([H:12])([H:13])([H:14])[H:16]"
C       -1.45370866      -1.19362774      -0.80463697
C       -0.96789780      -0.64177043       0.50421444
C       -2.19746417       1.11068353       0.62101156
C        0.38745159      -0.23170564       0.72401340
C        1.38037168      -0.08201749      -0.37334425
C        2.52357474       0.83670042       0.03314719
O        1.87092541      -1.38683276      -0.71781700
H       -2.52389943      -1.39896858      -0.79407618
H       -0.91579359      -2.12022870      -1.01338251
H       -1.23694885      -0.52378646      -1.63557657
H       -1.40579918      -1.12485368       1.37202643
H       -3.15483913       0.63924121       0.84163287
H       -2.25006746       1.60071374      -0.35187724
H       -2.00833221       1.84102979       1.41466146
H        0.76676688      -0.34694336       1.73344097
H       -0.71062501       0.76558177       0.71020795
H        0.91528124       0.34416949      -1.27595116
H        3.02275165       0.44917673       0.92350754
H        2.14661447       1.83822171       0.24838435
H        3.26983725       0.91645590      -0.76170944
H        2.54180059      -1.29123947      -1.39787685
21
Frame=5 idx=010331 GeodesicLength=0.5605088420241023 rxn_smarts="[C:1]([C:2]([C:3]([H:12])([H:13])[H:14])([C:4]([C@@:5]([C:6]([H:18])([H:19])[H:20])([O:7][H:21])[H:17])([H:15])[H:16])[H:11])([H:8])([H:9])[H:10]>>[C:1](/[C:2](=[C:4](\[C@@:5]([C:6]([H:18])([H:19])[H:20])([O:7][H:21])[H:17])[H:15])[H:11])([H:8])([H:9])[H:10].[C:3]([H:12])([H:13])([H:14])[H:16]"
C       -1.46172869      -1.17618720      -0.82636510
C       -0.97097810      -0.64501811       0.48971845
C       -2.19694873       1.11636223       0.65317887
C        0.38270038      -0.23396419       0.71178613
C        1.39107065      -0.10898790      -0.37558629
C        2.50940748       0.84747958       0.01313142
O        1.90818416      -1.41825609      -0.65277918
H       -2.52439708      -1.41728371      -0.80372050
H       -0.90009757      -2.07707468      -1.07938181
H       -1.28539743      -0.47448654      -1.64085076
H       -1.39375031      -1.15768285       1.34853518
H       -3.15796588       0.64576919       0.86130846
H       -2.25560799       1.63036268      -0.30710320
H       -2.01821818       1.82999140       1.46409334
H        0.75836612      -0.35312772       1.72285125
H       -0.69705497       0.79824626       0.70977135
H        0.93890359       0.27024836      -1.30477399
H        3.00046727       0.50686004       0.92685378
H        2.10958835       1.84947686       0.17959948
H        3.26843648       0.90872033      -0.77129018
H        2.59502047      -1.34144794      -1.31897671
21
Frame=6 idx=010331 GeodesicLength=0.6713351269531909 rxn_smarts="[C:1]([C:2]([C:3]([H:12])([H:13])[H:14])([C:4]([C@@:5]([C:6]([H:18])([H:19])[H:20])([O:7][H:21])[H:17])([H:15])[H:16])[H:11])([H:8])([H:9])[H:10]>>[C:1](/[C:2](=[C:4](\[C@@:5]([C:6]([H:18])([H:19])[H:20])([O:7][H:21])[H:17])[H:15])[H:11])([H:8])([H:9])[H:10].[C:3]([H:12])([H:13])([H:14])[H:16]"
C       -1.46869422      -1.15806723      -0.84883906
C       -0.97420918      -0.64892110       0.47509257
C       -2.19550008       1.12105104       0.68572932
C        0.37730536      -0.23529620       0.69993285
C        1.40132591      -0.13614377      -0.37663493
C        2.49477798       0.85686754      -0.00885678
O        1.94333466      -1.44684104      -0.58496087
H       -2.52216680      -1.43626005      -0.81665989
H       -0.88363113      -2.02984078      -1.14606238
H       -1.33364734      -0.42502062      -1.64385499
H       -1.38168337      -1.19156329       1.32331403
H       -3.16035342       0.65183570       0.88094142
H       -2.26030628       1.65907303      -0.26111573
H       -2.02752521       1.81736324       1.51366571
H        0.74899789      -0.35759164       1.71284594
H       -0.68302749       0.83217233       0.71003926
H        0.96281679       0.19446811      -1.33012632
H        2.97633399       0.56464021       0.92640934
H        2.07339603       1.85714583       0.10751524
H        3.26662129       0.89925654      -0.78202211
H        2.64583461      -1.38832784      -1.23635262
21
Frame=7 idx=010331 GeodesicLength=0.7815853367638924 rxn_smarts="[C:1]([C:2]([C:3]([H:12])([H:13])[H:14])([C:4]([C@@:5]([C:6]([H:18])([H:19])[H:20])([O:7][H:21])[H:17])([H:15])[H:16])[H:11])([H:8])([H:9])[H:10]>>[C:1](/[C:2](=[C:4](\[C@@:5]([C:6]([H:18])([H:19])[H:20])([O:7][H:21])[H:17])[H:15])[H:11])([H:8])([H:9])[H:10].[C:3]([H:12])([H:13])([H:14])[H:16]"
C       -1.47458994      -1.13958207      -0.87180122
C       -0.97759790      -0.65358196       0.46044599
C       -2.19294954       1.12482970       0.71829611
C        0.37125218      -0.23576612       0.68848563
C        1.41097755      -0.16317705      -0.37646276
C        2.47978400       0.86474511      -0.03253160
O        1.97597185      -1.47212532      -0.51525443
H       -2.51714926      -1.45598586      -0.83282828
H       -0.86658475      -1.97891958      -1.21254493
H       -1.38160588      -0.37627461      -1.64457824
H       -1.36955853      -1.22631734       1.29656773
H       -3.16187638       0.65766938       0.90020251
H       -2.26381687       1.68666820      -0.21441124
H       -2.03620488       1.80341164       1.56284985
H        0.73872375      -0.36068937       1.70339358
H       -0.66845460       0.86737541       0.71130798
H        0.98666688       0.11775198      -1.35160751
H        2.95063656       0.62186307       0.92208637
H        2.03828516       1.86100653       0.03304988
H        3.26434594       0.88824990      -0.79368820
H        2.69374466      -1.43115167      -1.15097723
21
Frame=8 idx=010331 GeodesicLength=0.8913008285522062 rxn_smarts="[C:1]([C:2]([C:3]([H:12])([H:13])[H:14])([C:4]([C@@:5]([C:6]([H:18])([H:19])[H:20])([O:7][H:21])[H:17])([H:15])[H:16])[H:11])([H:8])([H:9])[H:10]>>[C:1](/[C:2](=[C:4](\[C@@:5]([C:6]([H:18])([H:19])[H:20])([O:7][H:21])[H:17])[H:15])[H:11])([H:8])([H:9])[H:10].[C:3]([H:12])([H:13])([H:14])[H:16]"
C       -1.47947549      -1.12105047      -0.89502240
C       -0.98116483      -0.65912343       0.44585799
C       -2.18913206       1.12782727       0.75055417
C        0.36452869      -0.23549221       0.67744975
C        1.41990817      -0.18983465      -0.37508391
C        2.46450037       0.87107190      -0.05755265
O        2.00590159      -1.49382381      -0.44451100
H       -2.50936701      -1.47656427      -0.85208070
H       -0.84918036      -1.92475720      -1.27809271
H       -1.42936029      -0.32906549      -1.64306111
H       -1.35735504      -1.26178367       1.26850319
H       -3.16240825       0.66355200       0.91885410
H       -2.26582523       1.71302081      -0.16747160
H       -2.04417332       1.78850120       1.61113760
H        0.72759897      -0.36280730       1.69444546
H       -0.65320185       0.90384616       0.71385603
H        1.01016175       0.04093197      -1.36901707
H        2.92365921       0.67797507       0.91397318
H        2.00437371       1.86098873      -0.04282508
H        3.26156998       0.87597522      -0.80604647
H        2.73844129      -1.46938783      -1.06386678
21
Frame=9 idx=010331 GeodesicLength=1.000536974509497 rxn_smarts="[C:1]([C:2]([C:3]([H:12])([H:13])[H:14])([C:4]([C@@:5]([C:6]([H:18])([H:19])[H:20])([O:7][H:21])[H:17])([H:15])[H:16])[H:11])([H:8])([H:9])[H:10]>>[C:1](/[C:2](=[C:4](\[C@@:5]([C:6]([H:18])([H:19])[H:20])([O:7][H:21])[H:17])[H:15])[H:11])([H:8])([H:9])[H:10].[C:3]([H:12])([H:13])([H:14])[H:16]"
C       -1.48342360      -1.10263551      -0.91836999
C       -0.98490378      -0.66565018       0.43133661
C       -2.18388900       1.13013193       0.78231729
C        0.35710013      -0.23454013       0.66677619
C        1.42802140      -0.21595891      -0.37253017
C        2.44891828       0.87584758      -0.08367304
O        2.03304840      -1.51183396      -0.37321696
H       -2.49877205      -1.49808377      -0.87425813
H       -0.83162103      -1.86751274      -1.34235921
H       -1.47715907      -0.28390918      -1.63936321
H       -1.34497257      -1.29791995       1.23922756
H       -3.16180178       0.66966206       0.93674718
H       -2.26604441       1.73811420      -0.12058610
H       -2.05134864       1.77279873       1.65829336
H        0.71561946      -0.36418130       1.68591898
H       -0.63711458       0.94158715       0.71788902
H        1.03311105      -0.03547331      -1.38235100
H        2.89553372       0.73268278       0.90222331
H        1.97166832       1.85712729      -0.11954541
H        3.25822236       0.86258465      -0.81888789
H        2.77980739      -1.50283744      -0.97558838
21
Frame=10 idx=010331 GeodesicLength=1.109400784580882 rxn_smarts="[C:1]([C:2]([C:3]([H:12])([H:13])[H:14])([C:4]([C@@:5]([C:6]([H:18])([H:19])[H:20])([O:7][H:21])[H:17])([H:15])[H:16])[H:11])([H:8])([H:9])[H:10]>>[C:1](/[C:2](=[C:4](\[C@@:5]([C:6]([H:18])([H:19])[H:20])([O:7][H:21])[H:17])[H:15])[H:11])([H:8])([H:9])[H:10].[C:3]([H:12])([H:13])([H:14])[H:16]"
C       -1.48658020      -1.08454718      -0.94174354
C       -0.98885957      -0.67330846       0.41688413
C       -2.17704368       1.13191438       0.81341102
C        0.34894132      -0.23311001       0.65644318
C        1.43526793      -0.24146969      -0.36884377
C        2.43299432       0.87914263      -0.11062176
O        2.05754539      -1.52614712      -0.30188127
H       -2.48543190      -1.52058563      -0.89929515
H       -0.81409994      -1.80744122      -1.40496730
H       -1.52532500      -0.24135733      -1.63354359
H       -1.33241926      -1.33467216       1.20885519
H       -3.15990657       0.67629984       0.95380633
H       -2.26418615       1.76195699      -0.07407689
H       -2.05758552       1.75670149       1.70399851
H        0.70279139      -0.36519248       1.67776166
H       -0.61997786       0.98053398       0.72371397
H        1.05537438      -0.11107888      -1.39168476
H        2.86639960       0.78576690       0.88706673
H        1.93996186       1.84951984      -0.19641082
H        3.25420982       0.84840036      -0.83205373
H        2.81792963      -1.53132626      -0.88681813
21
Frame=11 idx=010331 GeodesicLength=1.2179912462241038 rxn_smarts="[C:1]([C:2]([C:3]([H:12])([H:13])[H:14])([C:4]([C@@:5]([C:6]([H:18])([H:19])[H:20])([O:7][H:21])[H:17])([H:15])[H:16])[H:11])([H:8])([H:9])[H:10]>>[C:1](/[C:2](=[C:4](\[C@@:5]([C:6]([H:18])([H:19])[H:20])([O:7][H:21])[H:17])[H:15])[H:11])([H:8])([H:9])[H:10].[C:3]([H:12])([H:13])([H:14])[H:16]"
C       -1.48905999      -1.06683294      -0.96512029
C       -0.99305208      -0.68221852       0.40245291
C       -2.16842392       1.13328715       0.84377075
C        0.34000354      -0.23134152       0.64640665
C        1.44159988      -0.26636690      -0.36405226
C        2.41660357       0.88102147      -0.13826692
O        2.07954554      -1.53683435      -0.23066717
H       -2.46927466      -1.54409529      -0.92718776
H       -0.79675916      -1.74442523      -1.46583425
H       -1.57423628      -0.20171835      -1.62562254
H       -1.31963827      -1.37209267       1.17739185
H       -3.15655696       0.68365538       0.96998064
H       -2.25995262       1.78463535      -0.02809298
H       -2.06276527       1.74038958       1.74816543
H        0.68906687      -0.36607802       1.66991445
H       -0.60156687       1.02062249       0.73162236
H        1.07687916      -0.18579979      -1.39715270
H        2.83623427       0.83721342       0.86867244
H        1.90897429       1.83826178      -0.27314526
H        3.24939454       0.83358848      -0.84546093
H        2.85298443      -1.55487150      -0.79777442
21
Frame=12 idx=010331 GeodesicLength=1.3264096708714235 rxn_smarts="[C:1]([C:2]([C:3]([H:12])([H:13])[H:14])([C:4]([C@@:5]([C:6]([H:18])([H:19])[H:20])([O:7][H:21])[H:17])([H:15])[H:16])[H:11])([H:8])([H:9])[H:10]>>[C:1](/[C:2](=[C:4](\[C@@:5]([C:6]([H:18])([H:19])[H:20])([O:7][H:21])[H:17])[H:15])[H:11])([H:8])([H:9])[H:10].[C:3]([H:12])([H:13])([H:14])[H:16]"
C       -1.49096342      -1.04951551      -0.98849350
C       -0.99751236      -0.69250171       0.38799879
C       -2.15787050       1.13437403       0.87334204
C        0.33023561      -0.22939521       0.63665573
C        1.44697755      -0.29068739      -0.35816676
C        2.39959320       0.88154760      -0.16651994
O        2.09924120      -1.54397775      -0.15966247
H       -2.45016076      -1.56863352      -0.95800936
H       -0.77970403      -1.67820232      -1.52491069
H       -1.62426671      -0.16529918      -1.61557256
H       -1.30660510      -1.41025150       1.14482065
H       -3.15160686       0.69193788       0.98519687
H       -2.25301506       1.80625122       0.01722293
H       -2.06679659       1.72406719       1.79071439
H        0.67439380      -0.36708249       1.66235573
H       -0.58163172       1.06174708       0.74198399
H        1.09756127      -0.25967068      -1.39886970
H        2.80499074       0.88704495       0.84716564
H        1.87836556       1.82343336      -0.34951264
H        3.24360457       0.81831849      -0.85910162
H        2.88516962      -1.57350451      -0.70863753
21
Frame=13 idx=010331 GeodesicLength=1.434770637087732 rxn_smarts="[C:1]([C:2]([C:3]([H:12])([H:13])[H:14])([C:4]([C@@:5]([C:6]([H:18])([H:19])[H:20])([O:7][H:21])[H:17])([H:15])[H:16])[H:11])([H:8])([H:9])[H:10]>>[C:1](/[C:2](=[C:4](\[C@@:5]([C:6]([H:18])([H:19])[H:20])([O:7][H:21])[H:17])[H:15])[H:11])([H:8])([H:9])[H:10].[C:3]([H:12])([H:13])([H:14])[H:16]"
C       -1.49234500      -1.03253205      -1.01188408
C       -1.00225919      -0.70425421       0.37346960
C       -2.14523771       1.13527039       0.90210972
C        0.31957860      -0.22740244       0.62720199
C        1.45135063      -0.31450644      -0.35116949
C        2.38176807       0.88074400      -0.19538232
O        2.11678953      -1.54765318      -0.08879869
H       -2.42775595      -1.59424649      -0.99194123
H       -0.76297072      -1.60815380      -1.58222908
H       -1.67583708      -0.13236111      -1.60329713
H       -1.29325789      -1.44925625       1.11106419
H       -3.14490374       0.70131132       0.99937462
H       -2.24303981       1.82692006       0.06178745
H       -2.06962303       1.70786360       1.83163418
H        0.65869895      -0.36839231       1.65509138
H       -0.55991453       1.10377433       0.75521000
H        1.11735566      -0.33287738      -1.39690076
H        2.77253629       0.93535242       0.82258587
H        1.84776485       1.80504304      -0.42549896
H        3.23663820       0.80264556      -0.87303456
H        2.91466390      -1.58728908      -0.61939270
21
Frame=14 idx=010331 GeodesicLength=1.5431893815830733 rxn_smarts="[C:1]([C:2]([C:3]([H:12])([H:13])[H:14])([C:4]([C@@:5]([C:6]([H:18])([H:19])[H:20])([O:7][H:21])[H:17])([H:15])[H:16])[H:11])([H:8])([H:9])[H:10]>>[C:1](/[C:2](=[C:4](\[C@@:5]([C:6]([H:18])([H:19])[H:20])([O:7][H:21])[H:17])[H:15])[H:11])([H:8])([H:9])[H:10].[C:3]([H:12])([H:13])([H:14])[H:16]"
C       -1.49322974      -1.01583757      -1.03528925
C       -1.00734186      -0.71759109       0.35885031
C       -2.13035462       1.13612708       0.93000242
C        0.30798038      -0.22561060       0.61813791
C        1.45466248      -0.33793622      -0.34301834
C        2.36285320       0.87863965      -0.22488124
O        2.13242633      -1.54790865      -0.01805766
H       -2.40164497      -1.62091347      -1.02927889
H       -0.74656829      -1.53357165      -1.63762891
H       -1.72928968      -0.10328944      -1.58865172
H       -1.27964345      -1.48920070       1.07605994
H       -3.13630321       0.71206778       1.01230661
H       -2.22953131       1.84678456       0.10542936
H       -2.07119228       1.69201764       1.87081437
H        0.64192607      -0.37035792       1.64819321
H       -0.53609206       1.14644000       0.77189081
H        1.13614655      -0.40567163      -1.39123194
H        2.73872176       0.98219178       0.79489864
H        1.81661198       1.78306449      -0.50095260
H        3.22816417       0.78673382      -0.88744810
H        2.94169853      -1.59617786      -0.53014491
21
Frame=15 idx=010331 GeodesicLength=1.651837010256084 rxn_smarts="[C:1]([C:2]([C:3]([H:12])([H:13])[H:14])([C:4]([C@@:5]([C:6]([H:18])([H:19])[H:20])([O:7][H:21])[H:17])([H:15])[H:16])[H:11])([H:8])([H:9])[H:10]>>[C:1](/[C:2](=[C:4](\[C@@:5]([C:6]([H:18])([H:19])[H:20])([O:7][H:21])[H:17])[H:15])[H:11])([H:8])([H:9])[H:10].[C:3]([H:12])([H:13])([H:14])[H:16]"
C       -1.49357273      -0.99930712      -1.05871154
C       -1.01280107      -0.73259165       0.34414060
C       -2.11307635       1.13708360       0.95695820
C        0.29539070      -0.22424789       0.60961168
C        1.45683760      -0.36111834      -0.33363685
C        2.34252785       0.87519609      -0.25512801
O        2.14634245      -1.54476856       0.05266957
H       -2.37107301      -1.64867953      -1.07045479
H       -0.73044193      -1.45325136      -1.69091534
H       -1.78507213      -0.07853809      -1.57141040
H       -1.26578056      -1.53019684       1.03970081
H       -3.12566989       0.72449520       1.02373172
H       -2.21197014       1.86599818       0.14798975
H       -2.07150678       1.67672815       1.90816885
H        0.62401689      -0.37330579       1.64178707
H       -0.50983047       1.18941490       0.79266654
H        1.15375966      -0.47840579      -1.38175696
H        2.70334789       1.02761879       0.76396179
H        1.78430332       1.75737283      -0.57586926
H        3.21779523       0.77061765      -0.90262675
H        2.96647347      -1.60011443      -0.44087668
21
Frame=16 idx=010331 GeodesicLength=1.7609505119886062 rxn_smarts="[C:1]([C:2]([C:3]([H:12])([H:13])[H:14])([C:4]([C@@:5]([C:6]([H:18])([H:19])[H:20])([O:7][H:21])[H:17])([H:15])[H:16])[H:11])([H:8])([H:9])[H:10]>>[C:1](/[C:2](=[C:4](\[C@@:5]([C:6]([H:18])([H:19])[H:20])([O:7][H:21])[H:17])[H:15])[H:11])([H:8])([H:9])[H:10].[C:3]([H:12])([H:13])([H:14])[H:16]"
C       -1.49323549      -0.98277494      -1.08213193
C       -1.01868890      -0.74932177       0.32938700
C       -2.09326037       1.13831079       0.98287148
C        0.28176961      -0.22360702       0.60187588
C        1.45777483      -0.38422782      -0.32291449
C        2.32038313       0.87032028      -0.28628454
O        2.15874376      -1.53822672       0.12346874
H       -2.33490059      -1.67755155      -1.11609073
H       -0.71450295      -1.36556302      -1.74162789
H       -1.84366111      -0.05876985      -1.55126363
H       -1.25174196      -1.57234676       1.00187401
H       -3.11286538       0.73896660       1.03329036
H       -2.18973741       1.88471095       0.18923014
H       -2.07059670       1.66227758       1.94352555
H        0.60493143      -0.37766758       1.63608744
H       -0.48076122       1.23223332       0.81827914
H        1.16991130      -0.55147961      -1.36826064
H        2.66615676       1.07163952       0.72954246
H        1.75008493       1.72775080      -0.65022773
H        3.20502119       0.75429619      -0.91897826
H        2.98917516      -1.59896940      -0.35165237
