17
Frame=0 idx=001537 GeodesicLength=0.0 rxn_smarts="[C:1]([C:2]([C:3]([C:4]([H:12])([H:13])[H:14])([C:5]([H:15])([H:16])[H:17])[H:11])([H:9])[H:10])([H:6])([H:7])[H:8]>>[C:1](=[C:2]([H:9])[H:10])([H:6])[H:7].[C:3]([C:4]([H:12])([H:13])[H:14])(=[C:5]([H:16])[H:17])[H:11].[H:8][H:15]"
C        1.71221889      -0.70687022       0.99398503
C        1.45823000       0.43288736       0.28139155
C       -0.63050133       0.31579441      -0.85270128
C       -1.30155413       1.47746076      -0.17081666
C       -1.10767735      -0.96319933      -0.71719241
H        2.43330706      -1.43141241       0.63110413
H        1.53097820      -0.73193794       2.06310523
H        0.53608002      -1.65880788       0.71913011
H        1.95258845       0.60271592      -0.66519138
H        1.06092765       1.30587785       0.77804432
H       -0.05611349       0.54766463      -1.74079662
H       -2.19827118       1.77775069      -0.72160987
H       -1.61209420       1.21440703       0.84291569
H       -0.65462030       2.35358547      -0.11038819
H       -0.20948807      -1.69626734       0.27438085
H       -1.99005807      -1.14435567      -0.10972263
H       -0.92395218      -1.69529332      -1.49563793
17
Frame=1 idx=001537 GeodesicLength=0.1227355023900584 rxn_smarts="[C:1]([C:2]([C:3]([C:4]([H:12])([H:13])[H:14])([C:5]([H:15])([H:16])[H:17])[H:11])([H:9])[H:10])([H:6])([H:7])[H:8]>>[C:1](=[C:2]([H:9])[H:10])([H:6])[H:7].[C:3]([C:4]([H:12])([H:13])[H:14])(=[C:5]([H:16])[H:17])[H:11].[H:8][H:15]"
C        1.75688222      -0.73437687       0.97118665
C        1.43629473       0.43084549       0.32234165
C       -0.62660988       0.30877095      -0.83284722
C       -1.31211902       1.49852509      -0.21659679
C       -1.13150472      -0.96141102      -0.68617727
H        2.48330309      -1.41423250       0.53848389
H        1.64263145      -0.80521124       2.04760967
H        0.56783761      -1.68614986       0.71539230
H        1.95456715       0.70419583      -0.58679450
H        1.00755930       1.24850853       0.88399132
H       -0.05089151       0.50930605      -1.72870812
H       -2.18101699       1.79331534      -0.81304836
H       -1.67123627       1.27191622       0.78987170
H       -0.65541262       2.36766152      -0.15799030
H       -0.22479147      -1.71154319       0.30251922
H       -2.02872335      -1.11368330      -0.09233286
H       -0.96676972      -1.70643702      -1.45690097
17
Frame=2 idx=001537 GeodesicLength=0.2407020409267898 rxn_smarts="[C:1]([C:2]([C:3]([C:4]([H:12])([H:13])[H:14])([C:5]([H:15])([H:16])[H:17])[H:11])([H:9])[H:10])([H:6])([H:7])[H:8]>>[C:1](=[C:2]([H:9])[H:10])([H:6])[H:7].[C:3]([C:4]([H:12])([H:13])[H:14])(=[C:5]([H:16])[H:17])[H:11].[H:8][H:15]"
C        1.79789294      -0.75705068       0.94656725
C        1.41427569       0.42780157       0.36293564
C       -0.62341948       0.30144559      -0.81289656
C       -1.31796829       1.51715191      -0.26068481
C       -1.15569579      -0.95930267      -0.65501412
H        2.52890080      -1.38687288       0.44998668
H        1.74824669      -0.87041335       2.02439431
H        0.59960277      -1.71271542       0.70884440
H        1.94883472       0.80144488      -0.50030185
H        0.95330038       1.18356529       0.98357486
H       -0.04552839       0.47010542      -1.71497046
H       -2.15920735       1.80509675      -0.89850797
H       -1.72119581       1.32676979       0.73655798
H       -0.65142003       2.37905459      -0.20489545
H       -0.23897068      -1.72762988       0.32877484
H       -2.06738895      -1.08215234      -0.07625457
H       -1.01025925      -1.71629857      -1.41811017
17
Frame=3 idx=001537 GeodesicLength=0.3559596514999356 rxn_smarts="[C:1]([C:2]([C:3]([C:4]([H:12])([H:13])[H:14])([C:5]([H:15])([H:16])[H:17])[H:11])([H:9])[H:10])([H:6])([H:7])[H:8]>>[C:1](=[C:2]([H:9])[H:10])([H:6])[H:7].[C:3]([C:4]([H:12])([H:13])[H:14])(=[C:5]([H:16])[H:17])[H:11].[H:8][H:15]"
C        1.83578604      -0.77499294       0.92089748
C        1.39244778       0.42378095       0.40281834
C       -0.62102968       0.29388003      -0.79297647
C       -1.31983787       1.53374370      -0.30274638
C       -1.18028397      -0.95700724      -0.62416779
H        2.57056625      -1.35036765       0.36662411
H        1.84765147      -0.92702214       1.99515815
H        0.63144616      -1.73833352       0.70025794
H        1.93644506       0.89220110      -0.40702543
H        0.89983389       1.11256564       1.07595365
H       -0.04080037       0.43042099      -1.70002558
H       -2.13431098       1.81360342      -0.97772511
H       -1.76222229       1.37947646       0.68404936
H       -0.64347220       2.38834964      -0.25125653
H       -0.25183732      -1.74520323       0.35216009
H       -2.10599413      -1.05005920      -0.06196103
H       -1.05438783      -1.72503601      -1.38003482
17
Frame=4 idx=001537 GeodesicLength=0.4689805657872252 rxn_smarts="[C:1]([C:2]([C:3]([C:4]([H:12])([H:13])[H:14])([C:5]([H:15])([H:16])[H:17])[H:11])([H:9])[H:10])([H:6])([H:7])[H:8]>>[C:1](=[C:2]([H:9])[H:10])([H:6])[H:7].[C:3]([C:4]([H:12])([H:13])[H:14])(=[C:5]([H:16])[H:17])[H:11].[H:8][H:15]"
C        1.87066685      -0.78854495       0.89459898
C        1.37053745       0.41856844       0.44158920
C       -0.61932752       0.28622655      -0.77326595
C       -1.31803146       1.54829188      -0.34276905
C       -1.20520549      -0.95428795      -0.59354250
H        2.60923426      -1.30531673       0.28935679
H        1.94078636      -0.97506124       1.96130710
H        0.66361917      -1.76314441       0.68903077
H        1.91776925       0.97577946      -0.30806627
H        0.84814529       1.03621098       1.16064301
H       -0.03703293       0.39071133      -1.68431122
H       -2.10746735       1.81869592      -1.05039493
H       -1.79413386       1.42984932       0.63319534
H       -0.63181265       2.39551039      -0.29796643
H       -0.26405523      -1.76402914       0.37296476
H       -2.14473797      -1.01711644      -0.04994811
H       -1.09895418      -1.73234340      -1.34242148
17
Frame=5 idx=001537 GeodesicLength=0.5806448675878602 rxn_smarts="[C:1]([C:2]([C:3]([C:4]([H:12])([H:13])[H:14])([C:5]([H:15])([H:16])[H:17])[H:11])([H:9])[H:10])([H:6])([H:7])[H:8]>>[C:1](=[C:2]([H:9])[H:10])([H:6])[H:7].[C:3]([C:4]([H:12])([H:13])[H:14])(=[C:5]([H:16])[H:17])[H:11].[H:8][H:15]"
C        1.90310024      -0.79797051       0.86787767
C        1.34861445       0.41224816       0.47933066
C       -0.61833133       0.27844056      -0.75373653
C       -1.31314032       1.56112168      -0.38088491
C       -1.23051283      -0.95117241      -0.56314146
H        2.64513254      -1.25231739       0.21790855
H        2.02814762      -1.01510850       1.92387157
H        0.69642234      -1.78712087       0.67533776
H        1.89367275       1.05136521      -0.20409397
H        0.79899061       0.95547713       1.23801853
H       -0.03465031       0.35082332      -1.66807693
H       -2.07952617       1.82088374      -1.11714666
H       -1.81775266       1.47856276       0.58435175
H       -0.61688063       2.40066216      -0.34533821
H       -0.27590940      -1.78412320       0.39136906
H       -2.18361187      -0.98332974      -0.04037845
H       -1.14376504      -1.73844212      -1.30526844
17
Frame=6 idx=001537 GeodesicLength=0.6912815511334287 rxn_smarts="[C:1]([C:2]([C:3]([C:4]([H:12])([H:13])[H:14])([C:5]([H:15])([H:16])[H:17])[H:11])([H:9])[H:10])([H:6])([H:7])[H:8]>>[C:1](=[C:2]([H:9])[H:10])([H:6])[H:7].[C:3]([C:4]([H:12])([H:13])[H:14])(=[C:5]([H:16])[H:17])[H:11].[H:8][H:15]"
C        1.93340451      -0.80356142       0.84073973
C        1.32642182       0.40475448       0.51616436
C       -0.61796279       0.27052705      -0.73442400
C       -1.30535872       1.57236288      -0.41747433
C       -1.25631298      -0.94754124      -0.53258745
H        2.67882775      -1.19170072       0.15226545
H        2.11037663      -1.04772744       1.88348527
H        0.73018634      -1.81033496       0.65855536
H        1.86416177       1.11923371      -0.09520584
H        0.75257314       0.87055143       1.30855487
H       -0.03372628       0.31067275      -1.65146627
H       -2.05106073       1.82030427      -1.17849815
H       -1.83336666       1.52588683       0.53756322
H       -0.59858882       2.40365304      -0.39416991
H       -0.28776307      -1.80537163       0.40769998
H       -2.22270832      -0.94838485      -0.03315176
H       -1.18910358      -1.74332416      -1.26805052
17
Frame=7 idx=001537 GeodesicLength=0.8011575011183288 rxn_smarts="[C:1]([C:2]([C:3]([C:4]([H:12])([H:13])[H:14])([C:5]([H:15])([H:16])[H:17])[H:11])([H:9])[H:10])([H:6])([H:7])[H:8]>>[C:1](=[C:2]([H:9])[H:10])([H:6])[H:7].[C:3]([C:4]([H:12])([H:13])[H:14])(=[C:5]([H:16])[H:17])[H:11].[H:8][H:15]"
C        1.96189165      -0.80534596       0.81306251
C        1.30388030       0.39620807       0.55242615
C       -0.61818125       0.26239000      -0.71522891
C       -1.29492715       1.58214969      -0.45283215
C       -1.28265123      -0.94334086      -0.50167288
H        2.70998026      -1.12341219       0.09176277
H        2.18804963      -1.07355956       1.84049941
H        0.76515531      -1.83264660       0.63856549
H        1.82952768       1.17893406       0.01838900
H        0.70914579       0.78180732       1.37291669
H       -0.03441077       0.26992279      -1.63450487
H       -2.02216388       1.81735241      -1.23537027
H       -1.84172626       1.57228183       0.49263000
H       -0.57695353       2.40420333      -0.44453142
H       -0.29993055      -1.82762744       0.42236215
H       -2.26180923      -0.91224041      -0.02802113
H       -1.23487676      -1.74707648      -1.23045254
17
Frame=8 idx=001537 GeodesicLength=0.9104433931897051 rxn_smarts="[C:1]([C:2]([C:3]([C:4]([H:12])([H:13])[H:14])([C:5]([H:15])([H:16])[H:17])[H:11])([H:9])[H:10])([H:6])([H:7])[H:8]>>[C:1](=[C:2]([H:9])[H:10])([H:6])[H:7].[C:3]([C:4]([H:12])([H:13])[H:14])(=[C:5]([H:16])[H:17])[H:11].[H:8][H:15]"
C        1.98877255      -0.80333226       0.78474298
C        1.28078464       0.38652336       0.58826198
C       -0.61892320       0.25398327      -0.69618439
C       -1.28184829       1.59052275      -0.48725617
C       -1.30963281      -0.93847439      -0.47007246
H        2.73859267      -1.04760445       0.03636126
H        2.26181787      -1.09279549       1.79508590
H        0.80154472      -1.85383441       0.61502375
H        1.78942524       1.23054137       0.13668509
H        0.66879576       0.68920847       1.43142153
H       -0.03672031       0.22840185      -1.61722088
H       -1.99295069       1.81224083      -1.28819171
H       -1.84305116       1.61789686       0.44933822
H       -0.55168170       2.40191520      -0.49668384
H       -0.31266138      -1.85081003       0.43561266
H       -2.30092855      -0.87460592      -0.02493574
H       -1.28133536      -1.74977701      -1.19198818
17
Frame=9 idx=001537 GeodesicLength=1.019292375630946 rxn_smarts="[C:1]([C:2]([C:3]([C:4]([H:12])([H:13])[H:14])([C:5]([H:15])([H:16])[H:17])[H:11])([H:9])[H:10])([H:6])([H:7])[H:8]>>[C:1](=[C:2]([H:9])[H:10])([H:6])[H:7].[C:3]([C:4]([H:12])([H:13])[H:14])(=[C:5]([H:16])[H:17])[H:11].[H:8][H:15]"
C        2.01414575      -0.79733152       0.75570113
C        1.25702362       0.37575464       0.62400024
C       -0.62020067       0.24521778      -0.67721924
C       -1.26617594       1.59754671      -0.52099534
C       -1.33733647      -0.93285903      -0.43756191
H        2.76436254      -0.96377158      -0.01397090
H        2.33186091      -1.10585681       1.74748323
H        0.83966475      -1.87374184       0.58733045
H        1.74394405       1.27327995       0.25908632
H        0.63179339       0.59304904       1.48449413
H       -0.04087119       0.18578393      -1.59961289
H       -1.96310120       1.80538413      -1.33786222
H       -1.83795723       1.66299042       0.40724382
H       -0.52260781       2.39638864      -0.55021639
H       -0.32622509      -1.87488043       0.44767661
H       -2.33965485      -0.83554326      -0.02321898
H       -1.32866454      -1.75141076      -1.15235805
17
Frame=10 idx=001537 GeodesicLength=1.127788258660742 rxn_smarts="[C:1]([C:2]([C:3]([C:4]([H:12])([H:13])[H:14])([C:5]([H:15])([H:16])[H:17])[H:11])([H:9])[H:10])([H:6])([H:7])[H:8]>>[C:1](=[C:2]([H:9])[H:10])([H:6])[H:7].[C:3]([C:4]([H:12])([H:13])[H:14])(=[C:5]([H:16])[H:17])[H:11].[H:8][H:15]"
C        2.03806886      -0.78709965       0.72577498
C        1.23244965       0.36376220       0.65972645
C       -0.62189044       0.23601638      -0.65834168
C       -1.24777109       1.60309496      -0.55414346
C       -1.36578245      -0.92635420      -0.40396284
H        2.78645062      -0.87228520      -0.05950243
H        2.39892163      -1.11240190       1.69749283
H        0.87953917      -1.89177958       0.55575409
H        1.69264562       1.30692250       0.38524328
H        0.59828845       0.49321861       1.53219417
H       -0.04677893       0.14195816      -1.58160184
H       -1.93223934       1.79699110      -1.38466236
H       -1.82672723       1.70737326       0.36602163
H       -0.48939202       2.38702632      -0.60464327
H       -0.34102719      -1.89959607       0.45904997
H       -2.37802370      -0.79477853      -0.02326357
H       -1.37673159      -1.75206837      -1.11113595
17
Frame=11 idx=001537 GeodesicLength=1.2361630878877818 rxn_smarts="[C:1]([C:2]([C:3]([C:4]([H:12])([H:13])[H:14])([C:5]([H:15])([H:16])[H:17])[H:11])([H:9])[H:10])([H:6])([H:7])[H:8]>>[C:1](=[C:2]([H:9])[H:10])([H:6])[H:7].[C:3]([C:4]([H:12])([H:13])[H:14])(=[C:5]([H:16])[H:17])[H:11].[H:8][H:15]"
C        2.06044727      -0.77237106       0.69497091
C        1.20707188       0.35050740       0.69567925
C       -0.62401298       0.22634762      -0.63952333
C       -1.22665776       1.60720661      -0.58683713
C       -1.39498559      -0.91890555      -0.36923982
H        2.80404019      -0.77279591      -0.10010339
H        2.46309926      -1.11258214       1.64537246
H        0.92136699      -1.90776533       0.51997943
H        1.63600881       1.33059797       0.51392416
H        0.56886331       0.39011806       1.57477247
H       -0.05476331       0.09684826      -1.56326834
H       -1.89975572       1.78751517      -1.42955059
H       -1.81006144       1.75098534       0.32514035
H       -0.45201464       2.37364148      -0.65887740
H       -0.35758536      -1.92494678       0.47022347
H       -2.41550373      -0.75266894      -0.02448639
H       -1.42555717      -1.75173221      -1.06817612
17
Frame=12 idx=001537 GeodesicLength=1.3443247606220374 rxn_smarts="[C:1]([C:2]([C:3]([C:4]([H:12])([H:13])[H:14])([C:5]([H:15])([H:16])[H:17])[H:11])([H:9])[H:10])([H:6])([H:7])[H:8]>>[C:1](=[C:2]([H:9])[H:10])([H:6])[H:7].[C:3]([C:4]([H:12])([H:13])[H:14])(=[C:5]([H:16])[H:17])[H:11].[H:8][H:15]"
C        2.08123329      -0.75286677       0.66336923
C        1.18083743       0.33565525       0.73149216
C       -0.62644309       0.21615452      -0.62077550
C       -1.20272053       1.60957549      -0.61883330
C       -1.42490428      -0.91020005      -0.33333515
H        2.81657610      -0.66620929      -0.13537936
H        2.52449795      -1.10561919       1.59113662
H        0.96527691      -1.92088640       0.48004140
H        1.57392562       1.34370871       0.64377603
H        0.54372628       0.28396239       1.61164557
H       -0.06479141       0.05049069      -1.54452202
H       -1.86517636       1.77698228      -1.47229489
H       -1.78830269       1.79329047       0.28449964
H       -0.41034298       2.35558359      -0.71193003
H       -0.37644362      -1.95044150       0.48176201
H       -2.45211945      -0.70888148      -0.02749989
H       -1.47482917      -1.75029872      -1.02315253
17
Frame=13 idx=001537 GeodesicLength=1.452771512452788 rxn_smarts="[C:1]([C:2]([C:3]([C:4]([H:12])([H:13])[H:14])([C:5]([H:15])([H:16])[H:17])[H:11])([H:9])[H:10])([H:6])([H:7])[H:8]>>[C:1](=[C:2]([H:9])[H:10])([H:6])[H:7].[C:3]([C:4]([H:12])([H:13])[H:14])(=[C:5]([H:16])[H:17])[H:11].[H:8][H:15]"
C        2.10044272      -0.72853291       0.63123952
C        1.15405213       0.31903974       0.76721300
C       -0.62929581       0.20549360      -0.60216997
C       -1.17619828       1.61041258      -0.65026213
C       -1.45560161      -0.90026167      -0.29637250
H        2.82350443      -0.55264622      -0.16478176
H        2.58320832      -1.09179696       1.53546454
H        1.01161782      -1.93117749       0.43550000
H        1.50768158       1.34583328       0.77325623
H        0.52374703       0.17529571       1.64292161
H       -0.07741782       0.00304121      -1.52563532
H       -1.82815186       1.76588706      -1.51391210
H       -1.76232397       1.83425633       0.24359400
H       -0.36479719       2.33333362      -0.76260639
H       -0.39829875      -1.97628608       0.49450267
H       -2.48745965      -0.66396675      -0.03184500
H       -1.52470910      -1.74792505      -0.97610640
17
Frame=14 idx=001537 GeodesicLength=1.5614318967955436 rxn_smarts="[C:1]([C:2]([C:3]([C:4]([H:12])([H:13])[H:14])([C:5]([H:15])([H:16])[H:17])[H:11])([H:9])[H:10])([H:6])([H:7])[H:8]>>[C:1](=[C:2]([H:9])[H:10])([H:6])[H:7].[C:3]([C:4]([H:12])([H:13])[H:14])(=[C:5]([H:16])[H:17])[H:11].[H:8][H:15]"
C        2.11786987      -0.69890465       0.59863073
C        1.12647540       0.30018989       0.80252586
C       -0.63233913       0.19422277      -0.58367697
C       -1.14673405       1.60918958      -0.68097360
C       -1.48700257      -0.88856539      -0.25815340
H        2.82409010      -0.43270421      -0.18808900
H        2.63914016      -1.07021362       1.47816244
H        1.06075210      -1.93752812       0.38583186
H        1.43698650       1.33642149       0.90175439
H        0.50871969       0.06390456       1.66789331
H       -0.09245132      -0.04564864      -1.50639292
H       -1.78804494       1.75371280      -1.55408837
H       -1.73197840       1.87333931       0.20234420
H       -0.31509649       2.30604023      -0.81056370
H       -0.42388900      -2.00192068       0.50894876
H       -2.52135819      -0.61743872      -0.03760298
H       -1.57513974      -1.74409661      -0.92655063
17
Frame=15 idx=001537 GeodesicLength=1.6707586056329005 rxn_smarts="[C:1]([C:2]([C:3]([C:4]([H:12])([H:13])[H:14])([C:5]([H:15])([H:16])[H:17])[H:11])([H:9])[H:10])([H:6])([H:7])[H:8]>>[C:1](=[C:2]([H:9])[H:10])([H:6])[H:7].[C:3]([C:4]([H:12])([H:13])[H:14])(=[C:5]([H:16])[H:17])[H:11].[H:8][H:15]"
C        2.13372943      -0.66415162       0.56607188
C        1.09871777       0.27884439       0.83714718
C       -0.63577478       0.18243213      -0.56551417
C       -1.11482234       1.60620810      -0.71110704
C       -1.51918601      -0.87516361      -0.21890743
H        2.81868383      -0.30680711      -0.20393568
H        2.69201366      -1.04156736       1.42050085
H        1.11324937      -1.93990370       0.32989836
H        1.36392845       1.31538274       1.02762001
H        0.49960067      -0.04946402       1.68632917
H       -0.11070006      -0.09532626      -1.48734357
H       -1.74504887       1.74082987      -1.59367503
H       -1.69815066       1.91063494       0.16044097
H       -0.26212806       2.27465913      -0.85497010
H       -0.45413230      -2.02761866       0.52637236
H       -2.55358172      -0.56988991      -0.04428692
H       -1.62639838      -1.73909905      -0.87464083
17
Frame=16 idx=001537 GeodesicLength=1.7809525959479013 rxn_smarts="[C:1]([C:2]([C:3]([C:4]([H:12])([H:13])[H:14])([C:5]([H:15])([H:16])[H:17])[H:11])([H:9])[H:10])([H:6])([H:7])[H:8]>>[C:1](=[C:2]([H:9])[H:10])([H:6])[H:7].[C:3]([C:4]([H:12])([H:13])[H:14])(=[C:5]([H:16])[H:17])[H:11].[H:8][H:15]"
C        2.14774903      -0.62346528       0.53372855
C        1.07035927       0.25431967       0.87078211
C       -0.63933707       0.16984966      -0.54778767
C       -1.07974903       1.60081110      -0.74079558
C       -1.55205617      -0.85943522      -0.17818835
H        2.80647506      -0.17467584      -0.21173493
H        2.74164332      -1.00485769       1.36237827
H        1.16983861      -1.93660431       0.26630320
H        1.28751634       1.28189032       1.15114527
H        0.49600470      -0.16578230       1.69721338
H       -0.13217174      -0.14635491      -1.46839993
H       -1.69864383       1.72645515      -1.63230149
H       -1.65963469       1.94568698       0.11784894
H       -0.20521525       2.23801224      -0.89666231
H       -0.49001198      -2.05305128       0.54714128
H       -2.58374761      -0.52070978      -0.05106435
H       -1.67901897      -1.73208853      -0.81960638
