14
Frame=0 idx=010943 GeodesicLength=0.0 rxn_smarts="[C:1]([c:2]1[c:3]([N:4]([H:11])[H:12])[c:5]([H:13])[c:6]([H:14])[o:7]1)([H:8])([H:9])[H:10]>>[C:1]([C:2]([C@@:3]([N:4]([H:11])[H:12])([C:5]#[C:6][H:14])[H:13])=[O:7])([H:8])([H:9])[H:10]"
C       -1.60085479      -1.04329745       0.08204268
C       -0.21018823      -0.54509691       0.15211577
C        0.36242940       0.67646566      -0.23253099
N       -0.41129480       1.77738791      -0.69015624
C        1.83243510       0.68209362       0.17126615
C        1.92327830      -0.59660471       0.64605459
O        0.72818905      -1.29880642       0.66994153
H       -2.08518171      -0.98614694       1.06049367
H       -2.16733518      -0.42871986      -0.61640455
H       -1.62474999      -2.08430144      -0.24172385
H        0.20620493       2.46214060      -1.10702556
H       -0.85670362       2.23228526       0.09578356
H        1.16046779       0.31570188      -1.04724795
H        2.74330377      -1.16310124       1.05739116
14
Frame=1 idx=010943 GeodesicLength=0.11508967819380009 rxn_smarts="[C:1]([c:2]1[c:3]([N:4]([H:11])[H:12])[c:5]([H:13])[c:6]([H:14])[o:7]1)([H:8])([H:9])[H:10]>>[C:1]([C:2]([C@@:3]([N:4]([H:11])[H:12])([C:5]#[C:6][H:14])[H:13])=[O:7])([H:8])([H:9])[H:10]"
C       -1.60570810      -1.04526665       0.07274215
C       -0.21531428      -0.54759360       0.15750999
C        0.36171388       0.67068293      -0.23940605
N       -0.41216664       1.78564009      -0.66006084
C        1.83138840       0.66894839       0.14718320
C        1.94379438      -0.59666913       0.63490166
O        0.71665341      -1.29685571       0.68940115
H       -2.12858756      -0.89932702       1.02153947
H       -2.14113384      -0.49572173      -0.70077432
H       -1.63052359      -2.11035111      -0.15953094
H        0.19858836       2.47934807      -1.07157584
H       -0.84983017       2.22238895       0.14028206
H        1.16233447       0.32096826      -1.07708330
H        2.76879128      -1.15619174       1.04487161
14
Frame=2 idx=010943 GeodesicLength=0.2298674649149206 rxn_smarts="[C:1]([c:2]1[c:3]([N:4]([H:11])[H:12])[c:5]([H:13])[c:6]([H:14])[o:7]1)([H:8])([H:9])[H:10]>>[C:1]([C:2]([C@@:3]([N:4]([H:11])[H:12])([C:5]#[C:6][H:14])[H:13])=[O:7])([H:8])([H:9])[H:10]"
C       -1.61055011      -1.04717480       0.06355429
C       -0.22110160      -0.54920057       0.16533824
C        0.36035547       0.66494901      -0.24587277
N       -0.41283793       1.79294160      -0.63016613
C        1.82957031       0.65542830       0.12276163
C        1.96402752      -0.59608006       0.62427250
O        0.70473394      -1.29426388       0.70978137
H       -2.17069409      -0.81779814       0.97357882
H       -2.11100336      -0.56593666      -0.77632159
H       -1.63966934      -2.12788093      -0.07812546
H        0.19138069       2.49480716      -1.03689473
H       -0.84194853       2.21247334       0.18378422
H        1.16311982       0.32642582      -1.10689583
H        2.79461720      -1.14869018       1.03120544
14
Frame=3 idx=010943 GeodesicLength=0.34478718543541553 rxn_smarts="[C:1]([c:2]1[c:3]([N:4]([H:11])[H:12])[c:5]([H:13])[c:6]([H:14])[o:7]1)([H:8])([H:9])[H:10]>>[C:1]([C:2]([C@@:3]([N:4]([H:11])[H:12])([C:5]#[C:6][H:14])[H:13])=[O:7])([H:8])([H:9])[H:10]"
C       -1.61556630      -1.04916405       0.05470945
C       -0.22746088      -0.55021073       0.17472239
C        0.35841938       0.65922330      -0.25217879
N       -0.41319938       1.79951998      -0.60063380
C        1.82702296       0.64160482       0.09837828
C        1.98417236      -0.59489111       0.61418148
O        0.69259347      -1.29157905       0.73015361
H       -2.21092068      -0.74137757       0.91788235
H       -2.07820592      -0.63908667      -0.84297068
H       -1.65254463      -2.13754324       0.00199030
H        0.18483718       2.50902206      -1.00273827
H       -0.83336587       2.20238521       0.22620642
H        1.16339712       0.33260268      -1.13677621
H        2.82082120      -1.14050563       1.01707349
14
Frame=4 idx=010943 GeodesicLength=0.45958641328996275 rxn_smarts="[C:1]([c:2]1[c:3]([N:4]([H:11])[H:12])[c:5]([H:13])[c:6]([H:14])[o:7]1)([H:8])([H:9])[H:10]>>[C:1]([C:2]([C@@:3]([N:4]([H:11])[H:12])([C:5]#[C:6][H:14])[H:13])=[O:7])([H:8])([H:9])[H:10]"
C       -1.62055203      -1.05129615       0.04599983
C       -0.23457369      -0.55042139       0.18587482
C        0.35578580       0.65356568      -0.25818220
N       -0.41312629       1.80563900      -0.57115990
C        1.82358824       0.62734092       0.07383428
C        2.00405086      -0.59311504       0.60441929
O        0.67985370      -1.28840841       0.75123820
H       -2.24921519      -0.66992799       0.85417096
H       -2.04229336      -0.71550347      -0.90155040
H       -1.66877308      -2.13988090       0.08139109
H        0.17913003       2.52224554      -0.96869467
H       -0.82396648       2.19232385       0.26789013
H        1.16278102       0.33944730      -1.16670223
H        2.84731048      -1.13200894       1.00147079
14
Frame=5 idx=010943 GeodesicLength=0.5743746184010582 rxn_smarts="[C:1]([c:2]1[c:3]([N:4]([H:11])[H:12])[c:5]([H:13])[c:6]([H:14])[o:7]1)([H:8])([H:9])[H:10]>>[C:1]([C:2]([C@@:3]([N:4]([H:11])[H:12])([C:5]#[C:6][H:14])[H:13])=[O:7])([H:8])([H:9])[H:10]"
C       -1.62569143      -1.05351088       0.03759949
C       -0.24222661      -0.55023420       0.19770396
C        0.35255026       0.64784008      -0.26422621
N       -0.41253007       1.81128003      -0.54191141
C        1.81926321       0.61267271       0.04943901
C        2.02382042      -0.59074765       0.59496768
O        0.66670583      -1.28531790       0.77194902
H       -2.28466543      -0.60333483       0.78361203
H       -2.00453788      -0.79483571      -0.95162031
H       -1.68883520      -2.13500276       0.15956103
H        0.17444401       2.53472823      -0.93436694
H       -0.81420227       2.18180265       0.30869644
H        1.16191501       0.34744785      -1.19679583
H        2.87399015      -1.12278764       0.98539204
14
Frame=6 idx=010943 GeodesicLength=0.6890744063772535 rxn_smarts="[C:1]([c:2]1[c:3]([N:4]([H:11])[H:12])[c:5]([H:13])[c:6]([H:14])[o:7]1)([H:8])([H:9])[H:10]>>[C:1]([C:2]([C@@:3]([N:4]([H:11])[H:12])([C:5]#[C:6][H:14])[H:13])=[O:7])([H:8])([H:9])[H:10]"
C       -1.63099309      -1.05580270       0.02944692
C       -0.25039849      -0.54974339       0.20989704
C        0.34870674       0.64201682      -0.27039468
N       -0.41133864       1.81651334      -0.51278733
C        1.81401608       0.59752124       0.02512739
C        2.04348944      -0.58777529       0.58573366
O        0.65301678      -1.28227955       0.79239379
H       -2.31683816      -0.54156622       0.70642640
H       -1.96531310      -0.87713301      -0.99321785
H       -1.71272541      -2.12299524       0.23638481
H        0.17091509       2.54663092      -0.89937247
H       -0.80421346       2.17064741       0.34874508
H        1.16084544       0.35678889      -1.22711087
H        2.90083078      -1.11282322       0.96872811
14
Frame=7 idx=010943 GeodesicLength=0.8037339642688951 rxn_smarts="[C:1]([c:2]1[c:3]([N:4]([H:11])[H:12])[c:5]([H:13])[c:6]([H:14])[o:7]1)([H:8])([H:9])[H:10]>>[C:1]([C:2]([C@@:3]([N:4]([H:11])[H:12])([C:5]#[C:6][H:14])[H:13])=[O:7])([H:8])([H:9])[H:10]"
C       -1.63644692      -1.05821444       0.02145638
C       -0.25909908      -0.54902203       0.22217814
C        0.34426234       0.63607964      -0.27676884
N       -0.40949626       1.82137876      -0.48365789
C        1.80786037       0.58178416       0.00078628
C        2.06309471      -0.58423079       0.57650248
O        0.63861380      -1.27909674       0.81289880
H       -2.34541522      -0.48473898       0.62251581
H       -1.92500484      -0.96241570      -1.02623041
H       -1.74038403      -2.10377622       0.31184374
H        0.16869608       2.55807657      -0.86328500
H       -0.79420700       2.15863792       0.38817951
H        1.15966825       0.36768745      -1.25771898
H        2.92785781      -1.10214961       0.95129998
14
Frame=8 idx=010943 GeodesicLength=0.9185143308874122 rxn_smarts="[C:1]([c:2]1[c:3]([N:4]([H:11])[H:12])[c:5]([H:13])[c:6]([H:14])[o:7]1)([H:8])([H:9])[H:10]>>[C:1]([C:2]([C@@:3]([N:4]([H:11])[H:12])([C:5]#[C:6][H:14])[H:13])=[O:7])([H:8])([H:9])[H:10]"
C       -1.64230436      -1.06067536       0.01365589
C       -0.26816099      -0.54828991       0.23402512
C        0.33931323       0.62997143      -0.28349813
N       -0.40698299       1.82578567      -0.45462080
C        1.80091773       0.56549904      -0.02342211
C        2.08283064      -0.57985336       0.56760930
O        0.62355589      -1.27586861       0.83329268
H       -2.36984860      -0.43292303       0.53261964
H       -1.88465524      -1.05059239      -1.05030949
H       -1.77203323      -2.07725482       0.38516503
H        0.16792469       2.56907175      -0.82578868
H       -0.78458934       2.14545562       0.42686213
H        1.15878792       0.38038890      -1.28859486
H        2.95524466      -1.09071493       0.93300429
14
Frame=9 idx=010943 GeodesicLength=1.0328845663450898 rxn_smarts="[C:1]([c:2]1[c:3]([N:4]([H:11])[H:12])[c:5]([H:13])[c:6]([H:14])[o:7]1)([H:8])([H:9])[H:10]>>[C:1]([C:2]([C@@:3]([N:4]([H:11])[H:12])([C:5]#[C:6][H:14])[H:13])=[O:7])([H:8])([H:9])[H:10]"
C       -1.64802170      -1.06327144       0.00583309
C       -0.27781918      -0.54747847       0.24558461
C        0.33368853       0.62376607      -0.29048020
N       -0.40377401       1.82979368      -0.42543642
C        1.79283132       0.54846221      -0.04773503
C        2.10224160      -0.57478056       0.55873282
O        0.60733253      -1.27201023       0.85459393
H       -2.38939962      -0.38669349       0.43542314
H       -1.84345252      -1.14160405      -1.06502832
H       -1.80726144      -2.04277768       0.45693384
H        0.16869020       2.57970543      -0.78636604
H       -0.77556555       2.13085426       0.46486251
H        1.15786661       0.39520865      -1.31958023
H        2.98264323      -1.07917436       0.91266231
14
Frame=10 idx=010943 GeodesicLength=1.1473354519616183 rxn_smarts="[C:1]([c:2]1[c:3]([N:4]([H:11])[H:12])[c:5]([H:13])[c:6]([H:14])[o:7]1)([H:8])([H:9])[H:10]>>[C:1]([C:2]([C@@:3]([N:4]([H:11])[H:12])([C:5]#[C:6][H:14])[H:13])=[O:7])([H:8])([H:9])[H:10]"
C       -1.65436369      -1.06574239      -0.00177080
C       -0.28752355      -0.54725066       0.25557062
C        0.32774338       0.61719842      -0.29819829
N       -0.39988947       1.83296654      -0.39655715
C        1.78406689       0.53080298      -0.07183387
C        2.12198977      -0.56845587       0.55054415
O        0.59047762      -1.26841382       0.87526232
H       -2.40336797      -0.34611702       0.33388803
H       -1.80456737      -1.23424385      -1.06975648
H       -1.84637316      -2.00058178       0.52500221
H        0.17108562       2.58963890      -0.74493298
H       -0.76779658       2.11419691       0.50169767
H        1.15805977       0.41244960      -1.35076339
H        3.01045874      -1.06644795       0.89184794
14
Frame=11 idx=010943 GeodesicLength=1.2617934605541987 rxn_smarts="[C:1]([c:2]1[c:3]([N:4]([H:11])[H:12])[c:5]([H:13])[c:6]([H:14])[o:7]1)([H:8])([H:9])[H:10]>>[C:1]([C:2]([C@@:3]([N:4]([H:11])[H:12])([C:5]#[C:6][H:14])[H:13])=[O:7])([H:8])([H:9])[H:10]"
C       -1.66116772      -1.06814792      -0.00935333
C       -0.29734074      -0.54776187       0.26393485
C        0.32142765       0.61024117      -0.30667024
N       -0.39541394       1.83526036      -0.36769755
C        1.77460971       0.51222139      -0.09610329
C        2.14211797      -0.56106606       0.54254889
O        0.57287577      -1.26487840       0.89577301
H       -2.41138649      -0.31166083       0.22728371
H       -1.76829566      -1.32819729      -1.06429779
H       -1.88904455      -1.94998222       0.58964072
H        0.17506898       2.59880727      -0.70098183
H       -0.76147990       2.09523403       0.53758623
H        1.15922141       0.43244510      -1.38215508
H        3.03880751      -1.05251472       0.87049169
14
Frame=12 idx=010943 GeodesicLength=1.3762509375743814 rxn_smarts="[C:1]([c:2]1[c:3]([N:4]([H:11])[H:12])[c:5]([H:13])[c:6]([H:14])[o:7]1)([H:8])([H:9])[H:10]>>[C:1]([C:2]([C@@:3]([N:4]([H:11])[H:12])([C:5]#[C:6][H:14])[H:13])=[O:7])([H:8])([H:9])[H:10]"
C       -1.66876656      -1.07015904      -0.01666742
C       -0.30688663      -0.54955374       0.26992904
C        0.31499169       0.60264665      -0.31618221
N       -0.39028834       1.83613074      -0.33928481
C        1.76457864       0.49273162      -0.12045943
C        2.16274375      -0.55182912       0.53554660
O        0.55463817      -1.26220586       0.91496276
H       -2.41282479      -0.28348243       0.11852516
H       -1.73693446      -1.42165699      -1.04834083
H       -1.93478084      -1.89152894       0.64891249
H        0.18072244       2.60658644      -0.65466054
H       -0.75694567       2.07330391       0.57189741
H        1.16211886       0.45547328      -1.41355954
H        3.06763374      -1.03645653       0.84938132
14
Frame=13 idx=010943 GeodesicLength=1.4908941222550756 rxn_smarts="[C:1]([c:2]1[c:3]([N:4]([H:11])[H:12])[c:5]([H:13])[c:6]([H:14])[o:7]1)([H:8])([H:9])[H:10]>>[C:1]([C:2]([C@@:3]([N:4]([H:11])[H:12])([C:5]#[C:6][H:14])[H:13])=[O:7])([H:8])([H:9])[H:10]"
C       -1.67730958      -1.07181285      -0.02386708
C       -0.31610439      -0.55293068       0.27342076
C        0.30848461       0.59429843      -0.32673970
N       -0.38463261       1.83534863      -0.31100490
C        1.75417454       0.47203261      -0.14520227
C        2.18422979      -0.54080770       0.52893351
O        0.53589204      -1.26037275       0.93297895
H       -2.40776095      -0.26196303       0.00689489
H       -1.71154172      -1.51435524      -1.02189015
H       -1.98322942      -1.82433065       0.70310958
H        0.18793449       2.61266318      -0.60541216
H       -0.75429053       2.04809242       0.60485969
H        1.16676024       0.48194444      -1.44482334
H        3.09739349      -1.01780681       0.82874221
14
Frame=14 idx=010943 GeodesicLength=1.6056917755870341 rxn_smarts="[C:1]([c:2]1[c:3]([N:4]([H:11])[H:12])[c:5]([H:13])[c:6]([H:14])[o:7]1)([H:8])([H:9])[H:10]>>[C:1]([C:2]([C@@:3]([N:4]([H:11])[H:12])([C:5]#[C:6][H:14])[H:13])=[O:7])([H:8])([H:9])[H:10]"
C       -1.68691511      -1.07279835      -0.03086476
C       -0.32487758      -0.55825697       0.27412306
C        0.30198240       0.58499194      -0.33847510
N       -0.37856500       1.83258289      -0.28317300
C        1.74344553       0.44985223      -0.17046149
C        2.20664912      -0.52719122       0.52359871
O        0.51677655      -1.26032630       0.94893972
H       -2.39612982      -0.24717200      -0.10489320
H       -1.69358435      -1.60435545      -0.98529520
H       -2.03338281      -1.74905578       0.75079347
H        0.19657447       2.61642642      -0.55363559
H       -0.75374924       2.01947513       0.63598206
H        1.17357739       0.51184734      -1.47563974
H        3.12819846      -0.99601987       0.80900106
14
Frame=15 idx=010943 GeodesicLength=1.7205627769914333 rxn_smarts="[C:1]([c:2]1[c:3]([N:4]([H:11])[H:12])[c:5]([H:13])[c:6]([H:14])[o:7]1)([H:8])([H:9])[H:10]>>[C:1]([C:2]([C@@:3]([N:4]([H:11])[H:12])([C:5]#[C:6][H:14])[H:13])=[O:7])([H:8])([H:9])[H:10]"
C       -1.69774198      -1.07296316      -0.03763985
C       -0.33306031      -0.56597943       0.27170379
C        0.29557707       0.57443828      -0.35153611
N       -0.37197661       1.82740753      -0.25571272
C        1.73241235       0.42573936      -0.19667074
C        2.23000693      -0.51042489       0.51937598
O        0.49738705      -1.26271777       0.96206895
H       -2.37818809      -0.23915887      -0.21553173
H       -1.68455069      -1.69051334      -0.93896155
H       -2.08427947      -1.66574198       0.79146559
H        0.20672765       2.61719831      -0.49917183
H       -0.75500105       1.98709073       0.66518432
H        1.18266093       0.54533718      -1.50567785
H        3.16002621      -0.96971197       0.79110373
14
Frame=16 idx=010943 GeodesicLength=1.8358454156378055 rxn_smarts="[C:1]([c:2]1[c:3]([N:4]([H:11])[H:12])[c:5]([H:13])[c:6]([H:14])[o:7]1)([H:8])([H:9])[H:10]>>[C:1]([C:2]([C@@:3]([N:4]([H:11])[H:12])([C:5]#[C:6][H:14])[H:13])=[O:7])([H:8])([H:9])[H:10]"
C       -1.71027154      -1.07194414      -0.04407430
C       -0.34050820      -0.57675746       0.26558207
C        0.28937386       0.56214940      -0.36635575
N       -0.36466681       1.81922075      -0.22862105
C        1.72124304       0.39888244      -0.22467579
C        2.25447153      -0.48983550       0.51605695
O        0.47802358      -1.26879076       0.97099424
H       -2.35490334      -0.23749401      -0.32295310
H       -1.68664838      -1.77102461      -0.88380877
H       -2.13470875      -1.57492616       0.82479155
H        0.21870594       2.61401379      -0.44183843
H       -0.75755919       1.95026898       0.69249180
H        1.19417609       0.58243175      -1.53496984
H        3.19327217      -0.93619446       0.77738044
