12
Frame=0 idx=001080 GeodesicLength=0.0 rxn_smarts="[N:1]([c:2]1[c:3]([H:9])[c:4]([H:10])[c:5]([H:11])[n:6]1[H:12])([H:7])[H:8]>>[H:7][H:12].[N:1](=[C:2]1\[C:3]([H:9])=[C:4]([H:10])[C:5]([H:11])=[N:6]1)\[H:8]"
N        1.83603708       0.01420474       0.42349373
C        0.61717032       0.11673394      -0.07938684
C       -0.25016640       1.25000414      -0.18060269
C       -1.51476296       0.72682520      -0.02578595
C       -1.39930667      -0.69605923      -0.06162095
N       -0.13115431      -1.02582782      -0.18513696
H        1.88987054      -1.39767266       0.25504255
H        2.45275352       0.75682009       0.08274133
H        0.05219539       2.28355474      -0.11381124
H       -2.44329258       1.28068532      -0.01896445
H       -2.19246874      -1.40618034      -0.25083776
H        1.08312481      -1.90308815       0.15486924
12
Frame=1 idx=001080 GeodesicLength=0.06851535439742751 rxn_smarts="[N:1]([c:2]1[c:3]([H:9])[c:4]([H:10])[c:5]([H:11])[n:6]1[H:12])([H:7])[H:8]>>[H:7][H:12].[N:1](=[C:2]1\[C:3]([H:9])=[C:4]([H:10])[C:5]([H:11])=[N:6]1)\[H:8]"
N        1.84788065       0.01436865       0.40901851
C        0.61653783       0.12206862      -0.06348855
C       -0.25151094       1.25336399      -0.17143880
C       -1.51797864       0.73040129      -0.03428028
C       -1.40107013      -0.69230639      -0.05901299
N       -0.13179627      -1.02396580      -0.15906188
H        1.89995769      -1.41635303       0.24484460
H        2.44865363       0.77484473       0.08135528
H        0.04900318       2.28776660      -0.10959506
H       -2.44740609       1.28252216      -0.03557859
H       -2.18830718      -1.40763164      -0.25347231
H        1.07603625      -1.92507918       0.15071008
12
Frame=2 idx=001080 GeodesicLength=0.13703211341782762 rxn_smarts="[N:1]([c:2]1[c:3]([H:9])[c:4]([H:10])[c:5]([H:11])[n:6]1[H:12])([H:7])[H:8]>>[H:7][H:12].[N:1](=[C:2]1\[C:3]([H:9])=[C:4]([H:10])[C:5]([H:11])=[N:6]1)\[H:8]"
N        1.86006945       0.01465524       0.39311698
C        0.61574218       0.12758032      -0.04507349
C       -0.25294257       1.25670957      -0.16169668
C       -1.52110621       0.73394332      -0.04305249
C       -1.40289212      -0.68852593      -0.05594007
N       -0.13265358      -1.02197908      -0.12820737
H        1.91012567      -1.43538604       0.23307688
H        2.44427421       0.79319130       0.08023708
H        0.04576425       2.29201741      -0.10658025
H       -2.45136388       1.28430519      -0.05292797
H       -2.18353302      -1.40900023      -0.25803906
H        1.06851563      -1.94751108       0.14508643
12
Frame=3 idx=001080 GeodesicLength=0.20555407914899723 rxn_smarts="[N:1]([c:2]1[c:3]([H:9])[c:4]([H:10])[c:5]([H:11])[n:6]1[H:12])([H:7])[H:8]>>[H:7][H:12].[N:1](=[C:2]1\[C:3]([H:9])=[C:4]([H:10])[C:5]([H:11])=[N:6]1)\[H:8]"
N        1.87265427       0.01503185       0.37559098
C        0.61466544       0.13334002      -0.02273233
C       -0.25446615       1.26003343      -0.15100420
C       -1.52416390       0.73746548      -0.05227085
C       -1.40482197      -0.68468765      -0.05206658
N       -0.13395047      -1.01974763      -0.08971476
H        1.92035157      -1.45475157       0.21866143
H        2.43960100       0.81172671       0.07918094
H        0.04252710       2.29628134      -0.10510276
H       -2.45516800       1.28602364      -0.07211081
H       -2.17772813      -1.41037849      -0.26516439
H        1.06049925      -1.97033713       0.13673332
12
Frame=4 idx=001080 GeodesicLength=0.27406592892055015 rxn_smarts="[N:1]([c:2]1[c:3]([H:9])[c:4]([H:10])[c:5]([H:11])[n:6]1[H:12])([H:7])[H:8]>>[H:7][H:12].[N:1](=[C:2]1\[C:3]([H:9])=[C:4]([H:10])[C:5]([H:11])=[N:6]1)\[H:8]"
N        1.88577858       0.01539547       0.35603548
C        0.61312185       0.13957363       0.00640035
C       -0.25608577       1.26338233      -0.13831634
C       -1.52715808       0.74096956      -0.06212761
C       -1.40684039      -0.68074626      -0.04631406
N       -0.13610462      -1.01688258      -0.03769457
H        1.93035571      -1.47443723       0.19937511
H        2.43468486       0.83007503       0.07725464
H        0.03932425       2.30055293      -0.10479703
H       -2.45877618       1.28747899      -0.09702605
H       -2.16988112      -1.41206397      -0.27538964
H        1.05158091      -1.99329789       0.12259971
12
Frame=5 idx=001080 GeodesicLength=0.3425048678434268 rxn_smarts="[N:1]([c:2]1[c:3]([H:9])[c:4]([H:10])[c:5]([H:11])[n:6]1[H:12])([H:7])[H:8]>>[H:7][H:12].[N:1](=[C:2]1\[C:3]([H:9])=[C:4]([H:10])[C:5]([H:11])=[N:6]1)\[H:8]"
N        1.89972246       0.01527301       0.33284770
C        0.61099550       0.14693546       0.04736648
C       -0.25767911       1.26695462      -0.12174412
C       -1.52973520       0.74415710      -0.07390591
C       -1.40823902      -0.67682293      -0.03609442
N       -0.13950036      -1.01227893       0.03495772
H        1.93854646      -1.49474529       0.17112722
H        2.42947176       0.84825746       0.07405168
H        0.03622732       2.30495001      -0.10427470
H       -2.46159050       1.28774207      -0.13496261
H       -2.15757116      -1.41505913      -0.28752368
H        1.03935186      -2.01536345       0.09815464
12
Frame=6 idx=001080 GeodesicLength=0.41071165635899437 rxn_smarts="[N:1]([c:2]1[c:3]([H:9])[c:4]([H:10])[c:5]([H:11])[n:6]1[H:12])([H:7])[H:8]>>[H:7][H:12].[N:1](=[C:2]1\[C:3]([H:9])=[C:4]([H:10])[C:5]([H:11])=[N:6]1)\[H:8]"
N        1.91256808       0.01450508       0.30839592
C        0.60899622       0.15691646       0.10228635
C       -0.25868101       1.27113336      -0.10250441
C       -1.53034907       0.74590097      -0.09202586
C       -1.40679668      -0.67342172      -0.02122398
N       -0.14256975      -1.00452237       0.11776589
H        1.94177562      -1.51501035       0.12861529
H        2.42434887       0.86549868       0.07582621
H        0.03327618       2.30979621      -0.10482442
H       -2.46208749       1.28481840      -0.18514319
H       -2.13965725      -1.42137453      -0.29193914
H        1.01917629      -2.03424018       0.06477135
12
Frame=7 idx=001080 GeodesicLength=0.4793621996991309 rxn_smarts="[N:1]([c:2]1[c:3]([H:9])[c:4]([H:10])[c:5]([H:11])[n:6]1[H:12])([H:7])[H:8]>>[H:7][H:12].[N:1](=[C:2]1\[C:3]([H:9])=[C:4]([H:10])[C:5]([H:11])=[N:6]1)\[H:8]"
N        1.92194845       0.01422207       0.28548658
C        0.60750572       0.16913485       0.16749428
C       -0.25877797       1.27500004      -0.08297767
C       -1.52829304       0.74570418      -0.11000148
C       -1.40260601      -0.67098537      -0.00285123
N       -0.14409340      -0.99526176       0.19471762
H        1.93929288      -1.53257386       0.06823123
H        2.41921474       0.88239334       0.09058995
H        0.03178781       2.31351167      -0.11646835
H       -2.45935040       1.27847650      -0.23747285
H       -2.11827141      -1.42943216      -0.29030104
H        0.99164263      -2.05018950       0.03355295
12
Frame=8 idx=001080 GeodesicLength=0.5486824410790385 rxn_smarts="[N:1]([c:2]1[c:3]([H:9])[c:4]([H:10])[c:5]([H:11])[n:6]1[H:12])([H:7])[H:8]>>[H:7][H:12].[N:1](=[C:2]1\[C:3]([H:9])=[C:4]([H:10])[C:5]([H:11])=[N:6]1)\[H:8]"
N        1.92744490       0.01598259       0.26323033
C        0.60782023       0.18211026       0.22306541
C       -0.25909050       1.27948295      -0.06178714
C       -1.52461162       0.74422315      -0.12464496
C       -1.39652892      -0.66912376       0.01586601
N       -0.14355682      -0.98553300       0.25933768
H        1.93212540      -1.54739860       0.00533470
H        2.41578389       0.89732622       0.11277013
H        0.03052009       2.31660987      -0.12928427
H       -2.45402284       1.26923236      -0.28954989
H       -2.09621962      -1.43808036      -0.28314177
H        0.96033582      -2.06483170       0.00880376
12
Frame=9 idx=001080 GeodesicLength=0.6182456826803343 rxn_smarts="[N:1]([c:2]1[c:3]([H:9])[c:4]([H:10])[c:5]([H:11])[n:6]1[H:12])([H:7])[H:8]>>[H:7][H:12].[N:1](=[C:2]1\[C:3]([H:9])=[C:4]([H:10])[C:5]([H:11])=[N:6]1)\[H:8]"
N        1.93040749       0.02013639       0.24005199
C        0.60946749       0.19512508       0.26664119
C       -0.26005413       1.28451321      -0.04199542
C       -1.52083150       0.74259449      -0.13339586
C       -1.38946818      -0.66764129       0.03143589
N       -0.14145576      -0.97590255       0.31101808
H        1.92312306      -1.56185175      -0.04594412
H        2.41365129       0.91021446       0.13466672
H        0.02876578       2.31914394      -0.14345539
H       -2.44866037       1.25924593      -0.32966308
H       -2.07297483      -1.44576840      -0.28139127
H        0.92802966      -2.07980949      -0.00796872
12
Frame=10 idx=001080 GeodesicLength=0.6879807258569637 rxn_smarts="[N:1]([c:2]1[c:3]([H:9])[c:4]([H:10])[c:5]([H:11])[n:6]1[H:12])([H:7])[H:8]>>[H:7][H:12].[N:1](=[C:2]1\[C:3]([H:9])=[C:4]([H:10])[C:5]([H:11])=[N:6]1)\[H:8]"
N        1.93159964       0.02616252       0.22166840
C        0.61162903       0.20823626       0.30369945
C       -0.26138582       1.28966594      -0.02480189
C       -1.51761249       0.74121066      -0.13653068
C       -1.38200826      -0.66635358       0.04534889
N       -0.13814470      -0.96675989       0.35320420
H        1.91401042      -1.57523599      -0.09064391
H        2.41264691       0.92079326       0.15670290
H        0.02704077       2.32054665      -0.16069486
H       -2.44321288       1.24885342      -0.36365149
H       -2.05018001      -1.45274935      -0.28010782
H        0.89561739      -2.09436990      -0.02419319
12
Frame=11 idx=001080 GeodesicLength=0.7578579963988911 rxn_smarts="[N:1]([c:2]1[c:3]([H:9])[c:4]([H:10])[c:5]([H:11])[n:6]1[H:12])([H:7])[H:8]>>[H:7][H:12].[N:1](=[C:2]1\[C:3]([H:9])=[C:4]([H:10])[C:5]([H:11])=[N:6]1)\[H:8]"
N        1.93177313       0.03359767       0.20586570
C        0.61409391       0.22142116       0.33588139
C       -0.26277132       1.29475812      -0.01092837
C       -1.51509042       0.74025916      -0.13566354
C       -1.37421506      -0.66522411       0.05689705
N       -0.13409337      -0.95791722       0.38883429
H        1.90532475      -1.58872925      -0.12816114
H        2.41219180       0.92996581       0.17623341
H        0.02494809       2.32123912      -0.17884120
H       -2.43850385       1.23878969      -0.38966928
H       -2.02661317      -1.45890227      -0.28300313
H        0.86295552      -2.10925786      -0.03744518
12
Frame=12 idx=001080 GeodesicLength=0.8278501951490905 rxn_smarts="[N:1]([c:2]1[c:3]([H:9])[c:4]([H:10])[c:5]([H:11])[n:6]1[H:12])([H:7])[H:8]>>[H:7][H:12].[N:1](=[C:2]1\[C:3]([H:9])=[C:4]([H:10])[C:5]([H:11])=[N:6]1)\[H:8]"
N        1.93140093       0.04196086       0.19417369
C        0.61666369       0.23468355       0.36515835
C       -0.26404767       1.29969334       0.00032804
C       -1.51297516       0.73953339      -0.13291541
C       -1.36620119      -0.66420064       0.06692593
N       -0.12946520      -0.94941372       0.41969439
H        1.89686458      -1.60178270      -0.16300907
H        2.41205243       0.93825361       0.19371525
H        0.02272051       2.32130973      -0.19721611
H       -2.43420033       1.22893218      -0.41098182
H       -2.00287020      -1.46449825      -0.28741125
H        0.83005761      -2.12447135      -0.04846199
12
Frame=13 idx=001080 GeodesicLength=0.8979478749471069 rxn_smarts="[N:1]([c:2]1[c:3]([H:9])[c:4]([H:10])[c:5]([H:11])[n:6]1[H:12])([H:7])[H:8]>>[H:7][H:12].[N:1](=[C:2]1\[C:3]([H:9])=[C:4]([H:10])[C:5]([H:11])=[N:6]1)\[H:8]"
N        1.93082367       0.05097795       0.18654270
C        0.61925802       0.24800010       0.39265178
C       -0.26518156       1.30446881       0.00991814
C       -1.51107102       0.73891508      -0.12913004
C       -1.35801354      -0.66326249       0.07601116
N       -0.12434657      -0.94126267       0.44701713
H        1.88821787      -1.61408954      -0.19786343
H        2.41202384       0.94624102       0.21000337
H        0.02057499       2.32063089      -0.21606688
H       -2.43001117       1.21914359      -0.42943137
H       -1.97912044      -1.46963393      -0.29233285
H        0.79684592      -2.14012881      -0.05731971
12
Frame=14 idx=001080 GeodesicLength=0.9681669590783781 rxn_smarts="[N:1]([c:2]1[c:3]([H:9])[c:4]([H:10])[c:5]([H:11])[n:6]1[H:12])([H:7])[H:8]>>[H:7][H:12].[N:1](=[C:2]1\[C:3]([H:9])=[C:4]([H:10])[C:5]([H:11])=[N:6]1)\[H:8]"
N        1.93022521       0.06049529       0.18212654
C        0.62185974       0.26138442       0.41885424
C       -0.26616058       1.30910764       0.01830006
C       -1.50924646       0.73833473      -0.12485225
C       -1.34964149      -0.66240575       0.08432610
N       -0.11881034      -0.93338980       0.47168792
H        1.87897866      -1.62563070      -0.23387307
H        2.41200390       0.95428118       0.22547169
H        0.01853903       2.31924723      -0.23518617
H       -2.42590512       1.20941777      -0.44555414
H       -1.95510531      -1.47435213      -0.29799172
H        0.76326277      -2.15648988      -0.06330921
12
Frame=15 idx=001080 GeodesicLength=1.038490681487932 rxn_smarts="[N:1]([c:2]1[c:3]([H:9])[c:4]([H:10])[c:5]([H:11])[n:6]1[H:12])([H:7])[H:8]>>[H:7][H:12].[N:1](=[C:2]1\[C:3]([H:9])=[C:4]([H:10])[C:5]([H:11])=[N:6]1)\[H:8]"
N        1.92971807       0.07050251       0.17964665
C        0.62451865       0.27483698       0.44373349
C       -0.26701371       1.31366374       0.02576542
C       -1.50736760       0.73770896      -0.12074630
C       -1.34106924      -0.66161240       0.09198129
N       -0.11282325      -0.92575120       0.49401513
H        1.86907649      -1.63661259      -0.27107339
H        2.41202560       0.96255471       0.24058276
H        0.01647148       2.31752422      -0.25349958
H       -2.42175703       1.19966683      -0.46032286
H       -1.93105645      -1.47875873      -0.30366100
H        0.72927698      -2.17372304      -0.06642162
12
Frame=16 idx=001080 GeodesicLength=1.1088852851591775 rxn_smarts="[N:1]([c:2]1[c:3]([H:9])[c:4]([H:10])[c:5]([H:11])[n:6]1[H:12])([H:7])[H:8]>>[H:7][H:12].[N:1](=[C:2]1\[C:3]([H:9])=[C:4]([H:10])[C:5]([H:11])=[N:6]1)\[H:8]"
N        1.92936800       0.08102700       0.17835621
C        0.62725631       0.28833852       0.46730404
C       -0.26776557       1.31816624       0.03251485
C       -1.50535874       0.73699222      -0.11716053
C       -1.33228173      -0.66088093       0.09895388
N       -0.10635342      -0.91835176       0.51409969
H        1.85860717      -1.64722973      -0.30918298
H        2.41210002       0.97116927       0.25554586
H        0.01430023       2.31573186      -0.27046777
H       -2.41752180       1.18987869      -0.47420197
H       -1.90723443      -1.48293144      -0.30890210
H        0.69488394      -2.19190993      -0.06685919
