13
Frame=0 idx=004991 GeodesicLength=0.0 rxn_smarts="[C:1]1([H:7])([H:8])[C:2]([H:9])([H:10])[O:3][C:4]([H:11])=[N:5][C:6]1([H:12])[H:13]>>[C:1]([C:2]([O:3][H:13])([H:9])[H:10])([C:6](=[N+:5]=[C-:4][H:11])[H:12])([H:7])[H:8]"
C        0.67256398      -0.74304982       0.55293943
C       -0.63784531      -1.04932873      -0.16894126
O       -0.97344931       0.18238111      -0.90100198
C       -0.92429249       1.37913622      -0.02808772
N        0.30804729       1.64516445       0.25837313
C        1.17195446       0.62481836       0.11052440
H        0.47725667      -0.71092701       1.63306033
H        1.41385408      -1.52057383       0.36894814
H       -0.55224006      -1.81035593      -0.94643117
H       -1.48250177      -1.25640666       0.48150165
H       -1.66127178       2.09712721      -0.35368899
H        2.21104263       0.84552124       0.32399216
H       -0.02311837       0.31649338      -1.33118814
13
Frame=1 idx=004991 GeodesicLength=0.11700065276272213 rxn_smarts="[C:1]1([H:7])([H:8])[C:2]([H:9])([H:10])[O:3][C:4]([H:11])=[N:5][C:6]1([H:12])[H:13]>>[C:1]([C:2]([O:3][H:13])([H:9])[H:10])([C:6](=[N+:5]=[C-:4][H:11])[H:12])([H:7])[H:8]"
C        0.67337074      -0.74540363       0.54998449
C       -0.64035622      -1.05168583      -0.16557585
O       -0.97925638       0.17110322      -0.90632670
C       -0.93391214       1.39173362      -0.02046137
N        0.29690902       1.64223577       0.27537166
C        1.16584397       0.62626198       0.11013637
H        0.48819178      -0.72566249       1.63182449
H        1.41713748      -1.51738984       0.35157166
H       -0.55538718      -1.82069908      -0.93555393
H       -1.48141767      -1.25636327       0.49036634
H       -1.64959265       2.12053450      -0.37231718
H        2.20294425       0.85289883       0.32773066
H       -0.00447500       0.31243623      -1.33675064
13
Frame=2 idx=004991 GeodesicLength=0.2338724047612139 rxn_smarts="[C:1]1([H:7])([H:8])[C:2]([H:9])([H:10])[O:3][C:4]([H:11])=[N:5][C:6]1([H:12])[H:13]>>[C:1]([C:2]([O:3][H:13])([H:9])[H:10])([C:6](=[N+:5]=[C-:4][H:11])[H:12])([H:7])[H:8]"
C        0.67400681      -0.74760629       0.54708255
C       -0.64283552      -1.05406082      -0.16238706
O       -0.98529907       0.15953505      -0.91189758
C       -0.94362577       1.40464601      -0.01244173
N        0.28578789       1.63923145       0.29161973
C        1.15960797       0.62773356       0.10962525
H        0.49880723      -0.73996162       1.63038440
H        1.42011350      -1.51398183       0.33465069
H       -0.55828764      -1.83108982      -0.92464434
H       -1.48033097      -1.25634237       0.49895264
H       -1.63744230       2.14357181      -0.38964707
H        2.19469332       0.86021788       0.33134026
H        0.01480454       0.30810699      -1.34263774
13
Frame=3 idx=004991 GeodesicLength=0.3506562069502166 rxn_smarts="[C:1]1([H:7])([H:8])[C:2]([H:9])([H:10])[O:3][C:4]([H:11])=[N:5][C:6]1([H:12])[H:13]>>[C:1]([C:2]([O:3][H:13])([H:9])[H:10])([C:6](=[N+:5]=[C-:4][H:11])[H:12])([H:7])[H:8]"
C        0.67446530      -0.74965374       0.54423756
C       -0.64528582      -1.05644595      -0.15938693
O       -0.99157876       0.14767259      -0.91772650
C       -0.95342772       1.41788914      -0.00398407
N        0.27471292       1.63618420       0.30708519
C        1.15325755       0.62922239       0.10896735
H        0.50907707      -0.75379065       1.62875275
H        1.42277943      -1.51037170       0.31821646
H       -0.56094018      -1.84152084      -0.91370654
H       -1.47925068      -1.25633736       0.50724225
H       -1.62492458       2.16622663      -0.40562081
H        2.18630495       0.86745977       0.33479146
H        0.03481052       0.30346553      -1.34886816
13
Frame=4 idx=004991 GeodesicLength=0.4673766199707233 rxn_smarts="[C:1]1([H:7])([H:8])[C:2]([H:9])([H:10])[O:3][C:4]([H:11])=[N:5][C:6]1([H:12])[H:13]>>[C:1]([C:2]([O:3][H:13])([H:9])[H:10])([C:6](=[N+:5]=[C-:4][H:11])[H:12])([H:7])[H:8]"
C        0.67473830      -0.75154062       0.54145376
C       -0.64771004      -1.05883277      -0.15658870
O       -0.99809833       0.13551231      -0.92382672
C       -0.96330368       1.43148188       0.00495672
N        0.26371217       1.63312670       0.32172494
C        1.14680486       0.63071969       0.10813777
H        0.51897264      -0.76711546       1.62694458
H        1.42513243      -1.50658139       0.30230407
H       -0.56334210      -1.85198364      -0.90274639
H       -1.47818761      -1.25634097       0.51521530
H       -1.61214657       2.18848172      -0.42016893
H        2.17779245       0.87460499       0.33805699
H        0.05563548       0.29846756      -1.35546338
13
Frame=5 idx=004991 GeodesicLength=0.5840805583587002 rxn_smarts="[C:1]1([H:7])([H:8])[C:2]([H:9])([H:10])[O:3][C:4]([H:11])=[N:5][C:6]1([H:12])[H:13]>>[C:1]([C:2]([O:3][H:13])([H:9])[H:10])([C:6](=[N+:5]=[C-:4][H:11])[H:12])([H:7])[H:8]"
C        0.67481574      -0.75326127       0.53873677
C       -0.65011104      -1.06121012      -0.15400948
O       -1.00485735       0.12305091      -0.93021476
C       -0.97324952       1.44544195       0.01444609
N        0.25282541       1.63010076       0.33550778
C        1.14026299       0.63221319       0.10710228
H        0.52846098      -0.77989873       1.62497946
H        1.42716810      -1.50263756       0.28695462
H       -0.56549214      -1.86246629      -0.89177108
H       -1.47715401      -1.25634608       0.52284525
H       -1.59923921       2.21032476      -0.43322947
H        2.16917729       0.88163137       0.34109335
H        0.07739275       0.29305711      -1.36244080
13
Frame=6 idx=004991 GeodesicLength=0.7007741026055503 rxn_smarts="[C:1]1([H:7])([H:8])[C:2]([H:9])([H:10])[O:3][C:4]([H:11])=[N:5][C:6]1([H:12])[H:13]>>[C:1]([C:2]([O:3][H:13])([H:9])[H:10])([C:6](=[N+:5]=[C-:4][H:11])[H:12])([H:7])[H:8]"
C        0.67469124      -0.75481151       0.53608811
C       -0.65249239      -1.06356773      -0.15166211
O       -1.01185927       0.11028562      -0.93690282
C       -0.98324336       1.45978986       0.02454432
N        0.24207614       1.62713566       0.34838784
C        1.13364483       0.63369531       0.10583794
H        0.53751398      -0.79210969       1.62286990
H        1.42888605      -1.49856414       0.27219658
H       -0.56739156      -1.87295981      -0.88078620
H       -1.47616032      -1.25634356       0.53011438
H       -1.58632769       2.23175370      -0.44474633
H        2.16047329       0.88852086       0.34387545
H        0.10018905       0.28717542      -1.36981705
13
Frame=7 idx=004991 GeodesicLength=0.8175152359625291 rxn_smarts="[C:1]1([H:7])([H:8])[C:2]([H:9])([H:10])[O:3][C:4]([H:11])=[N:5][C:6]1([H:12])[H:13]>>[C:1]([C:2]([O:3][H:13])([H:9])[H:10])([C:6](=[N+:5]=[C-:4][H:11])[H:12])([H:7])[H:8]"
C        0.67435354      -0.75618363       0.53351079
C       -0.65485736      -1.06589325      -0.14956744
O       -1.01911466       0.09721651      -0.94390336
C       -0.99327470       1.47454236       0.03533839
N        0.23149852       1.62427040       0.36031652
C        1.12696241       0.63515507       0.10430424
H        0.54609252      -0.80370561       1.62063880
H        1.43028373      -1.49438969       0.25807373
H       -0.56903915      -1.88344667      -0.86980543
H       -1.47521838      -1.25633106       0.53699424
H       -1.57355028       2.25276926      -0.45465337
H        2.15169998       0.89525361       0.34635870
H        0.12416382       0.28074271      -1.37760582
13
Frame=8 idx=004991 GeodesicLength=0.9343116153963898 rxn_smarts="[C:1]1([H:7])([H:8])[C:2]([H:9])([H:10])[O:3][C:4]([H:11])=[N:5][C:6]1([H:12])[H:13]>>[C:1]([C:2]([O:3][H:13])([H:9])[H:10])([C:6](=[N+:5]=[C-:4][H:11])[H:12])([H:7])[H:8]"
C        0.67379283      -0.75737288       0.53100908
C       -0.65721000      -1.06817669      -0.14774159
O       -1.02663679       0.08383864      -0.95122817
C       -1.00332029       1.48972041       0.04690496
N        0.22112161       1.62154081       0.37124677
C        1.12022874       0.63658455       0.10246878
H        0.55416079      -0.81465330       1.61830412
H        1.43135943      -1.49014102       0.24462335
H       -0.57043377      -1.89391510      -0.85883849
H       -1.47434038      -1.25630526       0.54346267
H       -1.56104162       2.27337064      -0.46289539
H        2.14287443       0.90181011       0.34850317
H        0.14944500       0.27369908      -1.38581924
13
Frame=9 idx=004991 GeodesicLength=1.0511269824401626 rxn_smarts="[C:1]1([H:7])([H:8])[C:2]([H:9])([H:10])[O:3][C:4]([H:11])=[N:5][C:6]1([H:12])[H:13]>>[C:1]([C:2]([O:3][H:13])([H:9])[H:10])([C:6](=[N+:5]=[C-:4][H:11])[H:12])([H:7])[H:8]"
C        0.67299591      -0.75836846       0.52858849
C       -0.65955212      -1.07039711      -0.14620982
O       -1.03440584       0.07016358      -0.95890411
C       -1.01338704       1.50534681       0.05933094
N        0.21099602       1.61898537       0.38114282
C        1.11345999       0.63796663       0.10028984
H        0.56167711      -0.82490993       1.61589685
H        1.43210677      -1.48585227       0.23189839
H       -0.57157877      -1.90434117      -0.84789943
H       -1.47354272      -1.25624731       0.54947981
H       -1.54900203       2.29356492      -0.46938715
H        2.13403314       0.90816390       0.35023665
H        0.17619957       0.26592506      -1.39446327
13
Frame=10 idx=004991 GeodesicLength=1.1680341999285768 rxn_smarts="[C:1]1([H:7])([H:8])[C:2]([H:9])([H:10])[O:3][C:4]([H:11])=[N:5][C:6]1([H:12])[H:13]>>[C:1]([C:2]([O:3][H:13])([H:9])[H:10])([C:6](=[N+:5]=[C-:4][H:11])[H:12])([H:7])[H:8]"
C        0.67194798      -0.75916103       0.52624857
C       -0.66189132      -1.07254273      -0.14499557
O       -1.04246598       0.05618327      -0.96693846
C       -1.02343361       1.52144358       0.07273319
N        0.20114972       1.61665196       0.38993245
C        1.10666824       0.63929684       0.09771098
H        0.56859123      -0.83442502       1.61343385
H        1.43252343      -1.48155078       0.21994408
H       -0.57247316      -1.91470585      -0.83700874
H       -1.47283898      -1.25616407       0.55501945
H       -1.53755805       2.31333187      -0.47406517
H        2.12518558       0.91429764       0.35152116
H        0.20459492       0.25734432      -1.40353580
13
Frame=11 idx=004991 GeodesicLength=1.2849696660776582 rxn_smarts="[C:1]1([H:7])([H:8])[C:2]([H:9])([H:10])[O:3][C:4]([H:11])=[N:5][C:6]1([H:12])[H:13]>>[C:1]([C:2]([O:3][H:13])([H:9])[H:10])([C:6](=[N+:5]=[C-:4][H:11])[H:12])([H:7])[H:8]"
C        0.67063719      -0.75974091       0.52398596
C       -0.66423328      -1.07459773      -0.14412073
O       -1.05082908       0.04189328      -0.97535203
C       -1.03343312       1.53803395       0.08721687
N        0.19161206       1.61457629       0.39756309
C        1.09986372       0.64056771       0.09469252
H        0.57486546      -0.84315972       1.61093078
H        1.43260776      -1.47726380       0.20879536
H       -0.57312475      -1.92499376      -0.82617702
H       -1.47224132      -1.25604287       0.56005575
H       -1.52685655       2.33266288      -0.47687612
H        2.11634961       0.92019596       0.35231425
H        0.23478231       0.24786872      -1.41302868
13
Frame=12 idx=004991 GeodesicLength=1.4019563187503865 rxn_smarts="[C:1]1([H:7])([H:8])[C:2]([H:9])([H:10])[O:3][C:4]([H:11])=[N:5][C:6]1([H:12])[H:13]>>[C:1]([C:2]([O:3][H:13])([H:9])[H:10])([C:6](=[N+:5]=[C-:4][H:11])[H:12])([H:7])[H:8]"
C        0.66904655      -0.76009424       0.52179735
C       -0.66658523      -1.07654159      -0.14361514
O       -1.05951881       0.02729556      -0.98416381
C       -1.04335264       1.55514799       0.10291405
N        0.18241756       1.61279936       0.40396594
C        1.09305577       0.64177121       0.09117250
H        0.58044792      -0.85105912       1.60840548
H        1.43235425      -1.47302083       0.19849907
H       -0.57354128      -1.93517764      -0.81542652
H       -1.47176462      -1.25587477       0.56455310
H       -1.51708319       2.35155106      -0.47773980
H        2.10754321       0.92583942       0.35255259
H        0.26698052       0.23736360      -1.42291479
13
Frame=13 idx=004991 GeodesicLength=1.5189457442447218 rxn_smarts="[C:1]1([H:7])([H:8])[C:2]([H:9])([H:10])[O:3][C:4]([H:11])=[N:5][C:6]1([H:12])[H:13]>>[C:1]([C:2]([O:3][H:13])([H:9])[H:10])([C:6](=[N+:5]=[C-:4][H:11])[H:12])([H:7])[H:8]"
C        0.66715862      -0.76020575       0.51967777
C       -0.66895444      -1.07835638      -0.14350821
O       -1.06856793       0.01238953      -0.99339135
C       -1.05314703       1.57281036       0.11995681
N        0.17359277       1.61136119       0.40905682
C        1.08625358       0.64290019       0.08708895
H        0.58528518      -0.85806571       1.60587397
H        1.43175688      -1.46884875       0.18910446
H       -0.57372756      -1.94523428      -0.80478087
H       -1.47142246      -1.25565388       0.56847866
H       -1.50839547       2.36997617      -0.47657448
H        2.09878123       0.93121336       0.35218291
H        0.30138665       0.22571395      -1.43316544
13
Frame=14 idx=004991 GeodesicLength=1.6359088548983032 rxn_smarts="[C:1]1([H:7])([H:8])[C:2]([H:9])([H:10])[O:3][C:4]([H:11])=[N:5][C:6]1([H:12])[H:13]>>[C:1]([C:2]([O:3][H:13])([H:9])[H:10])([C:6](=[N+:5]=[C-:4][H:11])[H:12])([H:7])[H:8]"
C        0.66495369      -0.76005858       0.51761973
C       -0.67134954      -1.08001975      -0.14383508
O       -1.07800728      -0.00282863      -1.00305888
C       -1.06276106       1.59105516       0.13849863
N        0.16517067       1.61030337       0.41275251
C        1.07946606       0.64394549       0.08237065
H        0.58931948      -0.86411794       1.60335404
H        1.43080920      -1.46477788       0.18066212
H       -0.57369309      -1.95513680      -0.79426484
H       -1.47123021      -1.25537024       0.57179294
H       -1.50099192       2.38792263      -0.47329766
H        2.09008233       0.93630106       0.35113634
H        0.33823167       0.21278210      -1.44373051
13
Frame=15 idx=004991 GeodesicLength=1.7527829180030652 rxn_smarts="[C:1]1([H:7])([H:8])[C:2]([H:9])([H:10])[O:3][C:4]([H:11])=[N:5][C:6]1([H:12])[H:13]>>[C:1]([C:2]([O:3][H:13])([H:9])[H:10])([C:6](=[N+:5]=[C-:4][H:11])[H:12])([H:7])[H:8]"
C        0.66240921      -0.75963231       0.51561511
C       -0.67377975      -1.08150966      -0.14463404
O       -1.08787411      -0.01836068      -1.01319145
C       -1.07212345       1.60991306       0.15870370
N        0.15717935       1.60966954       0.41495098
C        1.07270090       0.64489919       0.07693589
H        0.59248430      -0.86914402       1.60086162
H        1.42950143      -1.46083555       0.17323145
H       -0.57344522      -1.96485512      -0.78390918
H       -1.47120447      -1.25501500       0.57445317
H       -1.49506512       2.40535881      -0.46780831
H        2.08146061       0.94108835       0.34933794
H        0.37775634       0.19842338      -1.45454688
13
Frame=16 idx=004991 GeodesicLength=1.8695018743461873 rxn_smarts="[C:1]1([H:7])([H:8])[C:2]([H:9])([H:10])[O:3][C:4]([H:11])=[N:5][C:6]1([H:12])[H:13]>>[C:1]([C:2]([O:3][H:13])([H:9])[H:10])([C:6](=[N+:5]=[C-:4][H:11])[H:12])([H:7])[H:8]"
C        0.65949956      -0.75890179       0.51365174
C       -0.67625481      -1.08280013      -0.14595013
O       -1.09820966      -0.03420872      -1.02381983
C       -1.08114049       1.62942002       0.18075577
N        0.14964637       1.60950315       0.41552903
C        1.06596633       0.64575218       0.07069058
H        0.59470368      -0.87305882       1.59841234
H        1.42782172      -1.45704997       0.16687906
H       -0.57299180      -1.97435734      -0.77374885
H       -1.47136266      -1.25457548       0.57641021
H       -1.49083238       2.42224350      -0.45998445
H        2.07292771       0.94555994       0.34670570
H        0.42022644       0.18247346      -1.46553116
