17
Frame=0 idx=009569 GeodesicLength=0.0 rxn_smarts="[C:1]1([H:8])([H:9])[C:2]([H:10])([H:11])[C:3]12[C:4]([H:12])([H:13])[C@@:5]1([H:14])[C:6]([H:15])([H:16])[C@@:7]21[H:17]>>[C:1]1([H:8])([H:9])[C:2]([H:10])([H:11])[C:3]1([C:4]([C:5](=[C:6]([H:15])[H:16])[H:14])([H:12])[H:13])[C:7][H:17]"
C       -1.74964629      -0.67103703       0.12159889
C       -1.88219237       0.58823256      -0.69665869
C       -0.54955554       0.19434227      -0.14140793
C        0.60891863      -0.34871963      -0.95379327
C        1.55796692      -0.63692314       0.18259436
C        2.35972346       0.30670330       0.68873171
C        0.07848296       1.11437357       0.86429863
H       -1.83226247      -1.62090401      -0.39501414
H       -2.17213162      -0.66109689       1.11977084
H       -2.02958619       0.50247656      -1.76640928
H       -2.38479849       1.43627050      -0.24549703
H        0.34432876      -1.23088876      -1.53764017
H        1.01858770       0.41377937      -1.61836550
H        1.42626861      -1.57525965       0.71380137
H        2.55459049       1.23209960       0.16626734
H        2.89499048       0.14202400       1.61657025
H       -0.24368497       0.81452738       1.88115269
17
Frame=1 idx=009569 GeodesicLength=0.043135548363792534 rxn_smarts="[C:1]1([H:8])([H:9])[C:2]([H:10])([H:11])[C:3]12[C:4]([H:12])([H:13])[C@@:5]1([H:14])[C:6]([H:15])([H:16])[C@@:7]21[H:17]>>[C:1]1([H:8])([H:9])[C:2]([H:10])([H:11])[C:3]1([C:4]([C:5](=[C:6]([H:15])[H:16])[H:14])([H:12])[H:13])[C:7][H:17]"
C       -1.76101767      -0.67112024       0.11265894
C       -1.87631607       0.59824884      -0.69121158
C       -0.54918572       0.18089141      -0.13611011
C        0.60957868      -0.36098316      -0.94900870
C        1.55917523      -0.63457353       0.19084688
C        2.35374277       0.32566083       0.68715026
C        0.07966751       1.08870368       0.87514503
H       -1.85062676      -1.61443524      -0.41455679
H       -2.18764733      -0.66797238       1.10900976
H       -2.01568997       0.52614189      -1.76301674
H       -2.36987575       1.44756085      -0.23278881
H        0.34622645      -1.24946193      -1.52371614
H        1.01409514       0.39669112      -1.62218379
H        1.45119035      -1.57710958       0.71951069
H        2.55376578       1.23866605       0.14457866
H        2.90750412       0.16634620       1.60496321
H       -0.26458678       0.80674519       1.88872924
17
Frame=2 idx=009569 GeodesicLength=0.08609001666125904 rxn_smarts="[C:1]1([H:8])([H:9])[C:2]([H:10])([H:11])[C:3]12[C:4]([H:12])([H:13])[C@@:5]1([H:14])[C:6]([H:15])([H:16])[C@@:7]21[H:17]>>[C:1]1([H:8])([H:9])[C:2]([H:10])([H:11])[C:3]1([C:4]([C:5](=[C:6]([H:15])[H:16])[H:14])([H:12])[H:13])[C:7][H:17]"
C       -1.77221087      -0.67097451       0.10369756
C       -1.87013235       0.60818037      -0.68554178
C       -0.54883184       0.16736508      -0.13080352
C        0.61024856      -0.37333276      -0.94419520
C        1.56039509      -0.63238127       0.19893590
C        2.34737286       0.34445446       0.68536018
C        0.08074280       1.06278802       0.88607474
H       -1.86862290      -1.60753895      -0.43412291
H       -2.20308955      -0.67459725       1.09811617
H       -2.00130834       0.54965234      -1.75918299
H       -2.35469254       1.45854418      -0.21979343
H        0.34808753      -1.26802152      -1.50968702
H        1.00963573       0.37941139      -1.62589473
H        1.47642488      -1.57869285       0.72477323
H        2.55217738       1.24491540       0.12330421
H        2.91906061       0.19079979       1.59306375
H       -0.28525707       0.79942809       1.89589585
17
Frame=3 idx=009569 GeodesicLength=0.1288261540356137 rxn_smarts="[C:1]1([H:8])([H:9])[C:2]([H:10])([H:11])[C:3]12[C:4]([H:12])([H:13])[C@@:5]1([H:14])[C:6]([H:15])([H:16])[C@@:7]21[H:17]>>[C:1]1([H:8])([H:9])[C:2]([H:10])([H:11])[C:3]1([C:4]([C:5](=[C:6]([H:15])[H:16])[H:14])([H:12])[H:13])[C:7][H:17]"
C       -1.78318193      -0.67060126       0.09475424
C       -1.86366455       0.61798899      -0.67965208
C       -0.54848896       0.15379535      -0.12551819
C        0.61093193      -0.38572075      -0.93939695
C        1.56160738      -0.63036278       0.20682665
C        2.34059464       0.36302479       0.68339189
C        0.08173260       1.03666024       0.89703601
H       -1.88616686      -1.60025078      -0.45362154
H       -2.21838056      -0.68095038       1.08714345
H       -1.98650551       0.57290909      -1.75490331
H       -2.33928674       1.46918415      -0.20653172
H        0.34990625      -1.28649180      -1.49563790
H        1.00523017       0.36201349      -1.62950614
H        1.50188149      -1.58001317       0.72952987
H        2.54988683       1.25082841       0.10250400
H        2.92955407       0.21529126       1.58097860
H       -0.30565023       0.79269516       1.90260312
17
Frame=4 idx=009569 GeodesicLength=0.17129664096166106 rxn_smarts="[C:1]1([H:8])([H:9])[C:2]([H:10])([H:11])[C:3]12[C:4]([H:12])([H:13])[C@@:5]1([H:14])[C:6]([H:15])([H:16])[C@@:7]21[H:17]>>[C:1]1([H:8])([H:9])[C:2]([H:10])([H:11])[C:3]1([C:4]([C:5](=[C:6]([H:15])[H:16])[H:14])([H:12])[H:13])[C:7][H:17]"
C       -1.79388997      -0.67000654       0.08587084
C       -1.85695157       0.62763008      -0.67354724
C       -0.54815152       0.14021895      -0.12029371
C        0.61163925      -0.39809073      -0.93466482
C        1.56279634      -0.62853794       0.21449097
C        2.33340362       0.38129923       0.68129211
C        0.08265918       1.01036453       0.90796776
H       -1.90317927      -1.59261868      -0.47295095
H       -2.23343688      -0.68701651       1.07614983
H       -1.97137293       0.59580499      -1.75017668
H       -2.32371611       1.47943801      -0.19302903
H        0.35168444      -1.30478397      -1.48167329
H        1.00091012       0.34458700      -1.63302532
H        1.52746176      -1.58108283       0.73372386
H        2.54697329       1.25638407       0.08224067
H        2.93888549       0.23970548       1.56882172
H       -0.32571523       0.78670485       1.90880328
17
Frame=5 idx=009569 GeodesicLength=0.213479364282359 rxn_smarts="[C:1]1([H:8])([H:9])[C:2]([H:10])([H:11])[C:3]12[C:4]([H:12])([H:13])[C@@:5]1([H:14])[C:6]([H:15])([H:16])[C@@:7]21[H:17]>>[C:1]1([H:8])([H:9])[C:2]([H:10])([H:11])[C:3]1([C:4]([C:5](=[C:6]([H:15])[H:16])[H:14])([H:12])[H:13])[C:7][H:17]"
C       -1.80427186      -0.66920743       0.07709505
C       -1.85002027       0.63706651      -0.66724291
C       -0.54781738       0.12668324      -0.11514219
C        0.61236093      -0.41037353      -0.93002914
C        1.56391880      -0.62689373       0.22189894
C        2.32575573       0.39926571       0.67910410
C        0.08354390       0.98397896       0.91880532
H       -1.91955239      -1.58470887      -0.49200815
H       -2.24815643      -0.69279437       1.06520201
H       -1.95598309       0.61824321      -1.74501845
H       -2.30801893       1.48928083      -0.17932657
H        0.35341391      -1.32280743      -1.46786213
H        0.99667133       0.32723175      -1.63645062
H        1.55299840      -1.58189238       0.73733729
H        2.54356820       1.26150983       0.06256890
H        2.94703551       0.26392116       1.55667021
H       -0.34544638       0.78149653       1.91439833
17
Frame=6 idx=009569 GeodesicLength=0.25543160334774606 rxn_smarts="[C:1]1([H:8])([H:9])[C:2]([H:10])([H:11])[C:3]12[C:4]([H:12])([H:13])[C@@:5]1([H:14])[C:6]([H:15])([H:16])[C@@:7]21[H:17]>>[C:1]1([H:8])([H:9])[C:2]([H:10])([H:11])[C:3]1([C:4]([C:5](=[C:6]([H:15])[H:16])[H:14])([H:12])[H:13])[C:7][H:17]"
C       -1.81439434      -0.66819895       0.06838830
C       -1.84285002       0.64633277      -0.66072657
C       -0.54748555       0.11313342      -0.11005498
C        0.61310322      -0.42264391      -0.92547911
C        1.56502744      -0.62545413       0.22906848
C        2.31768323       0.41693442       0.67679041
C        0.08437590       0.95737895       0.92962591
H       -1.93541471      -1.57648532      -0.51088366
H       -2.26264147      -0.69829438       1.05425005
H       -1.94028487       0.64031936      -1.73943252
H       -2.29215209       1.49875170      -0.16539088
H        0.35509824      -1.34066164      -1.45416930
H        0.99250774       0.30986210      -1.63980499
H        1.57863079      -1.58244257       0.74039023
H        2.53957912       1.26633134       0.04342886
H        2.95402190       0.28805143       1.54453047
H       -0.36480454       0.77708541       1.91946929
17
Frame=7 idx=009569 GeodesicLength=0.2972450759241722 rxn_smarts="[C:1]1([H:8])([H:9])[C:2]([H:10])([H:11])[C:3]12[C:4]([H:12])([H:13])[C@@:5]1([H:14])[C:6]([H:15])([H:16])[C@@:7]21[H:17]>>[C:1]1([H:8])([H:9])[C:2]([H:10])([H:11])[C:3]1([C:4]([C:5](=[C:6]([H:15])[H:16])[H:14])([H:12])[H:13])[C:7][H:17]"
C       -1.82430247      -0.66697057       0.05970552
C       -1.83539003       0.65546765      -0.65398799
C       -0.54716080       0.09951304      -0.10499034
C        0.61384462      -0.43497711      -0.92096619
C        1.56615119      -0.62420937       0.23601396
C        2.30916132       0.43436928       0.67430306
C        0.08514121       0.93043905       0.94051677
H       -1.95086834      -1.56789276      -0.52968368
H       -2.27698005      -0.70351864       1.04322560
H       -1.92417764       0.66213993      -1.73341394
H       -2.27603156       1.50789171      -0.15119571
H        0.35671714      -1.35844816      -1.44048861
H        0.98836524       0.29237186      -1.64308165
H        1.60447542      -1.58270057       0.74290560
H        2.53491118       1.27093892       0.02475865
H        2.95990347       0.31222149       1.53236587
H       -0.38375992       0.77336424       1.92401311
17
Frame=8 idx=009569 GeodesicLength=0.3388606877585065 rxn_smarts="[C:1]1([H:8])([H:9])[C:2]([H:10])([H:11])[C:3]12[C:4]([H:12])([H:13])[C@@:5]1([H:14])[C:6]([H:15])([H:16])[C@@:7]21[H:17]>>[C:1]1([H:8])([H:9])[C:2]([H:10])([H:11])[C:3]1([C:4]([C:5](=[C:6]([H:15])[H:16])[H:14])([H:12])[H:13])[C:7][H:17]"
C       -1.83395459      -0.66554419       0.05110190
C       -1.82768037       0.66442841      -0.64703681
C       -0.54683654       0.08586320      -0.09998874
C        0.61460304      -0.44730810      -0.91655329
C        1.56727097      -0.62317100       0.24270332
C        2.30017755       0.45151783       0.67169451
C        0.08585894       0.90322324       0.95140445
H       -1.96583197      -1.55900510      -0.54829257
H       -2.29109602      -0.70846500       1.03221079
H       -1.90774627       0.68359625      -1.72697373
H       -2.25971242       1.51666777      -0.13677086
H        0.35828689      -1.37608097      -1.42694648
H        0.98428552       0.27487437      -1.64630061
H        1.63040047      -1.58268142       0.74484263
H        2.52965594       1.27528721       0.00661844
H        2.96458381       0.33629760       1.52028091
H       -0.40226497       0.77049992       1.92800613
17
Frame=9 idx=009569 GeodesicLength=0.380241194756814 rxn_smarts="[C:1]1([H:8])([H:9])[C:2]([H:10])([H:11])[C:3]12[C:4]([H:12])([H:13])[C@@:5]1([H:14])[C:6]([H:15])([H:16])[C@@:7]21[H:17]>>[C:1]1([H:8])([H:9])[C:2]([H:10])([H:11])[C:3]1([C:4]([C:5](=[C:6]([H:15])[H:16])[H:14])([H:12])[H:13])[C:7][H:17]"
C       -1.84327637      -0.66392484       0.04263359
C       -1.81978858       0.67315561      -0.63989818
C       -0.54650984       0.07224604      -0.09508454
C        0.61536872      -0.45953989      -0.91227941
C        1.56833678      -0.62234286       0.24912093
C        2.29070723       0.46830653       0.66906018
C        0.08654588       0.87583138       0.96219911
H       -1.98017657      -1.54989725      -0.56656356
H       -2.30483191      -0.71311183       1.02128068
H       -1.89116998       0.70453796      -1.72014005
H       -2.24328203       1.52503926      -0.12218618
H        0.35979940      -1.39341450      -1.41364886
H        0.98026291       0.25751075      -1.64944595
H        1.65623145      -1.58240569       0.74617065
H        2.52398905       1.27930902      -0.01090033
H        2.96806063       0.36011977       1.50839839
H       -0.42026676       0.76858053       1.93128354
17
Frame=10 idx=009569 GeodesicLength=0.42145480156789594 rxn_smarts="[C:1]1([H:8])([H:9])[C:2]([H:10])([H:11])[C:3]12[C:4]([H:12])([H:13])[C@@:5]1([H:14])[C:6]([H:15])([H:16])[C@@:7]21[H:17]>>[C:1]1([H:8])([H:9])[C:2]([H:10])([H:11])[C:3]1([C:4]([C:5](=[C:6]([H:15])[H:16])[H:14])([H:12])[H:13])[C:7][H:17]"
C       -1.85234992      -0.66211520       0.03425834
C       -1.81165041       0.68169376      -0.63255491
C       -0.54618277       0.05858999      -0.09025196
C        0.61614562      -0.47176847      -0.90812207
C        1.56940001      -0.62172646       0.25527212
C        2.28074581       0.48480226       0.66633556
C        0.08718595       0.84811330       0.97299750
H       -1.99405726      -1.54052724      -0.58461244
H       -2.31834178      -0.71747129       1.01037614
H       -1.87430005       0.72508638      -1.71290248
H       -2.22663557       1.53305527      -0.10739880
H        0.36125532      -1.41059045      -1.40052811
H        0.97629205       0.24016596      -1.65253849
H        1.68210929      -1.58184739       0.74690291
H        2.51775308       1.28313459      -0.02786285
H        2.97032257       0.38383058       1.49667721
H       -0.43769195       0.76757442       1.93395234
17
Frame=11 idx=009569 GeodesicLength=0.46259986440401224 rxn_smarts="[C:1]1([H:8])([H:9])[C:2]([H:10])([H:11])[C:3]12[C:4]([H:12])([H:13])[C@@:5]1([H:14])[C:6]([H:15])([H:16])[C@@:7]21[H:17]>>[C:1]1([H:8])([H:9])[C:2]([H:10])([H:11])[C:3]1([C:4]([C:5](=[C:6]([H:15])[H:16])[H:14])([H:12])[H:13])[C:7][H:17]"
C       -1.86121565      -0.66009082       0.02592478
C       -1.80322456       0.69009223      -0.62499194
C       -0.54586048       0.04483915      -0.08545829
C        0.61691810      -0.48408170      -0.90403728
C        1.57049277      -0.62131876       0.26118299
C        2.27024793       0.50106449       0.66350086
C        0.08775762       0.81993083       0.98387515
H       -2.00756052      -1.53081872      -0.60254901
H       -2.33170737      -0.72153543       0.99942352
H       -1.85705061       0.74536200      -1.70525002
H       -2.20970658       1.54076248      -0.09236605
H        0.36264661      -1.42773355      -1.38747423
H        0.97232902       0.22271432      -1.65559047
H        1.70817137      -1.58097492       0.74706221
H        2.51083888       1.28685385      -0.04433449
H        2.97145309       0.40756907       1.48506955
H       -0.45452963       0.76736546       1.93601272
17
Frame=12 idx=009569 GeodesicLength=0.5037313591645236 rxn_smarts="[C:1]1([H:8])([H:9])[C:2]([H:10])([H:11])[C:3]12[C:4]([H:12])([H:13])[C@@:5]1([H:14])[C:6]([H:15])([H:16])[C@@:7]21[H:17]>>[C:1]1([H:8])([H:9])[C:2]([H:10])([H:11])[C:3]1([C:4]([C:5](=[C:6]([H:15])[H:16])[H:14])([H:12])[H:13])[C:7][H:17]"
C       -1.86992358      -0.65783064       0.01757484
C       -1.79443444       0.69839330      -0.61719523
C       -0.54554747       0.03092832      -0.08066214
C        0.61766580      -0.49657125      -0.89997174
C        1.57165369      -0.62110477       0.26686605
C        2.25916570       0.51716549       0.66050394
C        0.08823490       0.79113917       0.99493811
H       -2.02079499      -1.52069745      -0.62049994
H       -2.34503398      -0.72529499       0.98833600
H       -1.83928001       0.76548112      -1.69717241
H       -2.19237151       1.54820425      -0.07705264
H        0.36395051      -1.44496097      -1.37436298
H        0.96832490       0.20501749      -1.65859449
H        1.73454119      -1.57973449       0.74668941
H        2.50307075       1.29057979      -0.06038641
H        2.97146030       0.43147874       1.47349805
H       -0.47068176       0.76780688       1.93749157
17
Frame=13 idx=009569 GeodesicLength=0.5448188781355192 rxn_smarts="[C:1]1([H:8])([H:9])[C:2]([H:10])([H:11])[C:3]12[C:4]([H:12])([H:13])[C@@:5]1([H:14])[C:6]([H:15])([H:16])[C@@:7]21[H:17]>>[C:1]1([H:8])([H:9])[C:2]([H:10])([H:11])[C:3]1([C:4]([C:5](=[C:6]([H:15])[H:16])[H:14])([H:12])[H:13])[C:7][H:17]"
C       -1.87843331      -0.65535276       0.00927202
C       -1.78533213       0.70655121      -0.60917537
C       -0.54524032       0.01689567      -0.07590985
C        0.61840794      -0.50917155      -0.89599281
C        1.57285426      -0.62110131       0.27229246
C        2.24747037       0.53303835       0.65742020
C        0.08863142       0.76179622       1.00609561
H       -2.03367875      -1.51023830      -0.63833418
H       -2.35823306      -0.72874415       0.97720852
H       -1.82109252       0.78533249      -1.68868328
H       -2.17470227       1.55534612      -0.06149232
H        0.36519082      -1.46218722      -1.36132997
H        0.96432343       0.18719799      -1.66157391
H        1.76108366      -1.57814524       0.74573485
H        2.49454546       1.29427369      -0.07593260
H        2.97026502       0.45542470       1.46209088
H       -0.48606001       0.76908410       1.93830975
17
Frame=14 idx=009569 GeodesicLength=0.5858125778373634 rxn_smarts="[C:1]1([H:8])([H:9])[C:2]([H:10])([H:11])[C:3]12[C:4]([H:12])([H:13])[C@@:5]1([H:14])[C:6]([H:15])([H:16])[C@@:7]21[H:17]>>[C:1]1([H:8])([H:9])[C:2]([H:10])([H:11])[C:3]1([C:4]([C:5](=[C:6]([H:15])[H:16])[H:14])([H:12])[H:13])[C:7][H:17]"
C       -1.88667918      -0.65267741       0.00107190
C       -1.77597807       0.71449692      -0.60095941
C       -0.54493592       0.00280444      -0.07124733
C        0.61914165      -0.52178420      -0.89214986
C        1.57404150      -0.62130701       0.27744770
C        2.23515302       0.54861381       0.65432964
C        0.08896293       0.73200901       1.01724889
H       -2.04611435      -1.49952502      -0.65591587
H       -2.37116562      -0.73186884       0.96612152
H       -1.80263342       0.80476049      -1.67980796
H       -2.15677539       1.56212856      -0.04574818
H        0.36636437      -1.47926846      -1.34850513
H        0.96034154       0.16940454      -1.66450939
H        1.78758327      -1.57621917       0.74419747
H        2.48538895       1.29787534      -0.09087241
H        2.96782542       0.47924452       1.45095646
H       -0.50052071       0.77131247       1.93834193
17
Frame=15 idx=009569 GeodesicLength=0.6267953167309204 rxn_smarts="[C:1]1([H:8])([H:9])[C:2]([H:10])([H:11])[C:3]12[C:4]([H:12])([H:13])[C@@:5]1([H:14])[C:6]([H:15])([H:16])[C@@:7]21[H:17]>>[C:1]1([H:8])([H:9])[C:2]([H:10])([H:11])[C:3]1([C:4]([C:5](=[C:6]([H:15])[H:16])[H:14])([H:12])[H:13])[C:7][H:17]"
C       -1.89473571      -0.64977837      -0.00707488
C       -1.76629629       0.72229478      -0.59252826
C       -0.54464293      -0.01142679      -0.06663956
C        0.61986209      -0.53452876      -0.88840772
C        1.57526591      -0.62171748       0.28233864
C        2.22214673       0.56396696       0.65118285
C        0.08919240       0.70160433       1.02849900
H       -2.05823056      -1.48847862      -0.67337108
H       -2.38397893      -0.73465519       0.95500825
H       -1.78373764       0.82391259      -1.67053948
H       -2.13846906       1.56862328      -0.02977097
H        0.36746854      -1.49637652      -1.33577218
H        0.95635318       0.15147729      -1.66743692
H        1.81422533      -1.57390816       0.74209268
H        2.47540273       1.30152505      -0.10528244
H        2.96412068       0.50311570       1.44005709
H       -0.51394647       0.77434991       1.93764499
17
Frame=16 idx=009569 GeodesicLength=0.6678761414745952 rxn_smarts="[C:1]1([H:8])([H:9])[C:2]([H:10])([H:11])[C:3]12[C:4]([H:12])([H:13])[C@@:5]1([H:14])[C:6]([H:15])([H:16])[C@@:7]21[H:17]>>[C:1]1([H:8])([H:9])[C:2]([H:10])([H:11])[C:3]1([C:4]([C:5](=[C:6]([H:15])[H:16])[H:14])([H:12])[H:13])[C:7][H:17]"
C       -1.90263313      -0.64660559      -0.01522897
C       -1.75621738       0.72998000      -0.58386313
C       -0.54436336      -0.02585174      -0.06206345
C        0.62055052      -0.54749484      -0.88470792
C        1.57655189      -0.62231209       0.28698924
C        2.20837181       0.57915123       0.64796127
C        0.08930265       0.67043302       1.03989505
H       -2.07010096      -1.47698575      -0.69079982
H       -2.39674273      -0.73705427       0.94376455
H       -1.76429559       0.84287685      -1.66083485
H       -2.11967679       1.57484971      -0.01352609
H        0.36848703      -1.51362209      -1.32299235
H        0.95231408       0.13326688      -1.67033765
H        1.84113483      -1.57113425       0.73942207
H        2.46440415       1.30530116      -0.11921216
H        2.95914360       0.52718638       1.42931899
H       -0.52623060       0.77801541       1.93621522
