17
Frame=0 idx=010652 GeodesicLength=0.0 rxn_smarts="[C:1]([C@@:2]1([H:11])[O:3][C@@:4]2([H:12])[C:5]([H:13])([H:14])[C:6]([H:15])([H:16])[C@@:7]12[H:17])([H:8])([H:9])[H:10]>>[C:1]([C:2](=[O:3])[H:11])([H:8])([H:9])[H:10].[C:4]1([H:12])=[C:7]([H:17])[C:6]([H:15])([H:16])[C:5]1([H:13])[H:14]"
C        2.01595644       0.75658317      -0.27605890
C        1.16604850      -0.31553480       0.35841919
O        0.71036576      -0.09086726       1.55778298
C       -0.82024395      -1.10908447       0.53553274
C       -1.78546848       0.01413088       0.67859551
C       -1.28438105       0.54189673      -0.69600507
C       -0.32942853      -0.65103570      -0.70458952
H        1.49831839       1.71604575      -0.25802644
H        2.91596718       0.85033283       0.33871300
H        2.30614388       0.50960152      -1.29897211
H        1.57059718      -1.32213518       0.14955843
H       -0.71624518      -2.03550869       1.08514232
H       -1.61601270       0.64059468       1.55242504
H       -2.81731507      -0.34823532       0.66607497
H       -2.04402423       0.54200412      -1.47776820
H       -0.80759179       1.52288009      -0.66359926
H        0.03731364      -1.22166833      -1.54722464
17
Frame=1 idx=010652 GeodesicLength=0.05686622292892082 rxn_smarts="[C:1]([C@@:2]1([H:11])[O:3][C@@:4]2([H:12])[C:5]([H:13])([H:14])[C:6]([H:15])([H:16])[C@@:7]12[H:17])([H:8])([H:9])[H:10]>>[C:1]([C:2](=[O:3])[H:11])([H:8])([H:9])[H:10].[C:4]1([H:12])=[C:7]([H:17])[C:6]([H:15])([H:16])[C:5]1([H:13])[H:14]"
C        2.02555385       0.76045117      -0.27565296
C        1.17954201      -0.31375627       0.35907571
O        0.71301501      -0.09033584       1.55534682
C       -0.82244613      -1.10895761       0.54006164
C       -1.79306208       0.01281009       0.67833673
C       -1.28802839       0.53989548      -0.69512478
C       -0.33391906      -0.65370224      -0.70367233
H        1.50903965       1.72030712      -0.25176734
H        2.93154591       0.85178162       0.33045593
H        2.30622139       0.51451619      -1.30152992
H        1.59163641      -1.31908912       0.15923223
H       -0.73271669      -2.04270872       1.08017367
H       -1.62664436       0.64203373       1.55092483
H       -2.82508305      -0.34851420       0.66426341
H       -2.04632214       0.54036399      -1.47822156
H       -0.81080635       1.52061978      -0.66175265
H        0.02247401      -1.22571519      -1.55014943
17
Frame=2 idx=010652 GeodesicLength=0.1137393898618409 rxn_smarts="[C:1]([C@@:2]1([H:11])[O:3][C@@:4]2([H:12])[C:5]([H:13])([H:14])[C:6]([H:15])([H:16])[C@@:7]12[H:17])([H:8])([H:9])[H:10]>>[C:1]([C:2](=[O:3])[H:11])([H:8])([H:9])[H:10].[C:4]1([H:12])=[C:7]([H:17])[C:6]([H:15])([H:16])[C:5]1([H:13])[H:14]"
C        2.03527487       0.76432952      -0.27531413
C        1.19321952      -0.31196323       0.35973841
O        0.71569637      -0.08977990       1.55275724
C       -0.82469780      -1.10887408       0.54465373
C       -1.80074740       0.01140719       0.67808158
C       -1.29168003       0.53787837      -0.69416987
C       -0.33848001      -0.65644114      -0.70271670
H        1.51993135       1.72456540      -0.24554244
H        2.94723920       0.85331482       0.32194018
H        2.30628210       0.51942974      -1.30409265
H        1.61316367      -1.31584678       0.16933186
H       -0.74961979      -2.04985012       1.07489404
H       -1.63744284       0.64336223       1.54944264
H       -2.83294566      -0.34885564       0.66236463
H       -2.04859397       0.53879549      -1.47862525
H       -0.81399183       1.51832265      -0.65975033
H        0.00739226      -1.22979452      -1.55299295
17
Frame=3 idx=010652 GeodesicLength=0.17061871669885642 rxn_smarts="[C:1]([C@@:2]1([H:11])[O:3][C@@:4]2([H:12])[C:5]([H:13])([H:14])[C:6]([H:15])([H:16])[C@@:7]12[H:17])([H:8])([H:9])[H:10]>>[C:1]([C:2](=[O:3])[H:11])([H:8])([H:9])[H:10].[C:4]1([H:12])=[C:7]([H:17])[C:6]([H:15])([H:16])[C:5]1([H:13])[H:14]"
C        2.04511919       0.76821559      -0.27504430
C        1.20708506      -0.31015975       0.36040746
O        0.71840925      -0.08920575       1.55000681
C       -0.82700380      -1.10884108       0.54930632
C       -1.80852395       0.00991992       0.67783050
C       -1.29533586       0.53584509      -0.69313821
C       -0.34311552      -0.65925567      -0.70172461
H        1.53099128       1.72881636      -0.23935648
H        2.96304264       0.85493724       0.31316146
H        2.30632706       0.52433637      -1.30665749
H        1.63519562      -1.31239288       0.17987871
H       -0.76695917      -2.05691901       1.06929014
H       -1.64840540       0.64457540       1.54797960
H       -2.84090370      -0.34925621       0.66037921
H       -2.05084027       0.53730264      -1.47897607
H       -0.81714627       1.51598686      -0.65758809
H       -0.00793614      -1.23390513      -1.55575496
17
Frame=4 idx=010652 GeodesicLength=0.22750398440213676 rxn_smarts="[C:1]([C@@:2]1([H:11])[O:3][C@@:4]2([H:12])[C:5]([H:13])([H:14])[C:6]([H:15])([H:16])[C@@:7]12[H:17])([H:8])([H:9])[H:10]>>[C:1]([C:2](=[O:3])[H:11])([H:8])([H:9])[H:10].[C:4]1([H:12])=[C:7]([H:17])[C:6]([H:15])([H:16])[C:5]1([H:13])[H:14]"
C        2.05508643       0.77210618      -0.27484590
C        1.22114284      -0.30835107       0.36108251
O        0.72115257      -0.08862037       1.54708704
C       -0.82936972      -1.10886656       0.55401569
C       -1.81639155       0.00834566       0.67758361
C       -1.29899571       0.53379571      -0.69202749
C       -0.34783020      -0.66214906      -0.70069877
H        1.54221696       1.73305515      -0.23321496
H        2.97895167       0.85665328       0.30411553
H        2.30635703       0.52922934      -1.30922212
H        1.65774973      -1.30870921       0.19089734
H       -0.78473720      -2.06390049       1.06335090
H       -1.65952966       0.64566735       1.54653718
H       -2.84895843      -0.34971262       0.65830694
H       -2.05306126       0.53589112      -1.47927082
H       -0.82026727       1.51361075      -0.65526046
H       -0.02351622      -1.23804516      -1.55843620
17
Frame=5 idx=010652 GeodesicLength=0.2843944605434568 rxn_smarts="[C:1]([C@@:2]1([H:11])[O:3][C@@:4]2([H:12])[C:5]([H:13])([H:14])[C:6]([H:15])([H:16])[C@@:7]12[H:17])([H:8])([H:9])[H:10]>>[C:1]([C:2](=[O:3])[H:11])([H:8])([H:9])[H:10].[C:4]1([H:12])=[C:7]([H:17])[C:6]([H:15])([H:16])[C:5]1([H:13])[H:14]"
C        2.06517621       0.77599702      -0.27472196
C        1.23539711      -0.30654309       0.36176286
O        0.72392471      -0.08803082       1.54398819
C       -0.83180152      -1.10895910       0.55877725
C       -1.82435049       0.00668110       0.67734104
C       -1.30265944       0.53173089      -0.69083504
C       -0.35262923      -0.66512428      -0.69964259
H        1.55360535       1.73727569      -0.22712451
H        2.99496090       0.85846791       0.29479841
H        2.30637479       0.53409953      -1.31178470
H        1.68084288      -1.30477512       0.20241454
H       -0.80295355      -2.07077870       1.05706690
H       -1.67081376       0.64663112       1.54511742
H       -2.85711166      -0.35022200       0.65614719
H       -2.05525733       0.53456795      -1.47950588
H       -0.82335226       1.51119325      -0.65276075
H       -0.03935272      -1.24221134      -1.56103837
17
Frame=6 idx=010652 GeodesicLength=0.3412894107852846 rxn_smarts="[C:1]([C@@:2]1([H:11])[O:3][C@@:4]2([H:12])[C:5]([H:13])([H:14])[C:6]([H:15])([H:16])[C@@:7]12[H:17])([H:8])([H:9])[H:10]>>[C:1]([C:2](=[O:3])[H:11])([H:8])([H:9])[H:10].[C:4]1([H:12])=[C:7]([H:17])[C:6]([H:15])([H:16])[C:5]1([H:13])[H:14]"
C        2.07538710       0.77988468      -0.27467434
C        1.24985243      -0.30474238       0.36244815
O        0.72672378      -0.08744722       1.54070117
C       -0.83430658      -1.10912808       0.56358565
C       -1.83240062       0.00492445       0.67710241
C       -1.30632652       0.52965054      -0.68955893
C       -0.35751800      -0.66818547      -0.69855928
H        1.56515285       1.74147277      -0.22108889
H        3.01106543       0.86038457       0.28520614
H        2.30637913       0.53894147      -1.31434313
H        1.70449234      -1.30057030       0.21445378
H       -0.82160577      -2.07753632       1.05043174
H       -1.68225421       0.64746094       1.54372138
H       -2.86536485      -0.35077898       0.65389921
H       -2.05742817       0.53333931      -1.47967840
H       -0.82639813       1.50873197      -0.65008377
H       -0.05545019      -1.24640196      -1.56356290
17
Frame=7 idx=010652 GeodesicLength=0.39818786755019997 rxn_smarts="[C:1]([C@@:2]1([H:11])[O:3][C@@:4]2([H:12])[C:5]([H:13])([H:14])[C:6]([H:15])([H:16])[C@@:7]12[H:17])([H:8])([H:9])[H:10]>>[C:1]([C:2](=[O:3])[H:11])([H:8])([H:9])[H:10].[C:4]1([H:12])=[C:7]([H:17])[C:6]([H:15])([H:16])[C:5]1([H:13])[H:14]"
C        2.08571823       0.78376444      -0.27470554
C        1.26451321      -0.30295567       0.36313797
O        0.72954719      -0.08687899       1.53721533
C       -0.83689246      -1.10938323       0.56843484
C       -1.84054269       0.00307278       0.67686710
C       -1.30999650       0.52755563      -0.68819693
C       -0.36250217      -0.67133581      -0.69745350
H        1.57685591       1.74563996      -0.21511337
H        3.02725954       0.86240695       0.27533364
H        2.30637202       0.54374664      -1.31689548
H        1.72871335      -1.29607229       0.22704219
H       -0.84068700      -2.08415572       1.04344195
H       -1.69384905       0.64814923       1.54235139
H       -2.87372076      -0.35137976       0.65156145
H       -2.05957355       0.53221339      -1.47978535
H       -0.82940166       1.50622592      -0.64722252
H       -0.07181362      -1.25061346      -1.56601318
17
Frame=8 idx=010652 GeodesicLength=0.45508941086013355 rxn_smarts="[C:1]([C@@:2]1([H:11])[O:3][C@@:4]2([H:12])[C:5]([H:13])([H:14])[C:6]([H:15])([H:16])[C@@:7]12[H:17])([H:8])([H:9])[H:10]>>[C:1]([C:2](=[O:3])[H:11])([H:8])([H:9])[H:10].[C:4]1([H:12])=[C:7]([H:17])[C:6]([H:15])([H:16])[C:5]1([H:13])[H:14]"
C        2.09616788       0.78763132      -0.27481863
C        1.27938415      -0.30119185       0.36383121
O        0.73239172      -0.08633722       1.53351912
C       -0.83956801      -1.10973493       0.57331739
C       -1.84877760       0.00112353       0.67663405
C       -1.31366892       0.52544724      -0.68674634
C       -0.36758842      -0.67457886      -0.69633020
H        1.58870950       1.74977060      -0.20920395
H        3.04353767       0.86453755       0.26517675
H        2.30635383       0.54850659      -1.31943996
H        1.75352371      -1.29125528       0.24020877
H       -0.86018833      -2.09061911       1.03609662
H       -1.70559573       0.64868815       1.54100888
H       -2.88218185      -0.35201898       0.64913141
H       -2.06169295       0.53119979      -1.47982320
H       -0.83235918       1.50367324      -0.64416891
H       -0.08844745      -1.25484180      -1.56839298
17
Frame=9 idx=010652 GeodesicLength=0.5119932115568075 rxn_smarts="[C:1]([C@@:2]1([H:11])[O:3][C@@:4]2([H:12])[C:5]([H:13])([H:14])[C:6]([H:15])([H:16])[C@@:7]12[H:17])([H:8])([H:9])[H:10]>>[C:1]([C:2](=[O:3])[H:11])([H:8])([H:9])[H:10].[C:4]1([H:12])=[C:7]([H:17])[C:6]([H:15])([H:16])[C:5]1([H:13])[H:14]"
C        2.10673468       0.79147830      -0.27501607
C        1.29447106      -0.29946203       0.36452556
O        0.73525546      -0.08583913       1.52959992
C       -0.84234367      -1.11019534       0.57822371
C       -1.85710628      -0.00092613       0.67640228
C       -1.31734222       0.52332684      -0.68520615
C       -0.37278391      -0.67791903      -0.69519628
H        1.60070702       1.75385366      -0.20336369
H        3.05988961       0.86678410       0.25473151
H        2.30632711       0.55321085      -1.32197608
H        1.77893668      -1.28608634       0.25398399
H       -0.88009489      -2.09690624       1.02840151
H       -1.71749034       0.64906951       1.53969725
H       -2.89075246      -0.35268995       0.64660730
H       -2.06378515       0.53030990      -1.47979027
H       -0.83526518       1.50107352      -0.64091571
H       -0.10535753      -1.25908248      -1.57070880
17
Frame=10 idx=010652 GeodesicLength=0.5688971752663694 rxn_smarts="[C:1]([C@@:2]1([H:11])[O:3][C@@:4]2([H:12])[C:5]([H:13])([H:14])[C:6]([H:15])([H:16])[C@@:7]12[H:17])([H:8])([H:9])[H:10]>>[C:1]([C:2](=[O:3])[H:11])([H:8])([H:9])[H:10].[C:4]1([H:12])=[C:7]([H:17])[C:6]([H:15])([H:16])[C:5]1([H:13])[H:14]"
C        2.11741555       0.79530066      -0.27530086
C        1.30977835      -0.29777462       0.36522080
O        0.73813380      -0.08539653       1.52544496
C       -0.84522867      -1.11077530       0.58314451
C       -1.86552927      -0.00307795       0.67617017
C       -1.32101659       0.52119626      -0.68357345
C       -0.37809571      -0.68135891      -0.69405790
H        1.61284196       1.75788346      -0.19760114
H        3.07631047       0.86914690       0.24399476
H        2.30629307       0.55784969      -1.32449978
H        1.80496830      -1.28054004       0.26839742
H       -0.90039318      -2.10300031       1.02035956
H       -1.72952910       0.64928526       1.53841740
H       -2.89943358      -0.35338745       0.64398628
H       -2.06585032       0.52955421      -1.47968216
H       -0.83811673       1.49842476      -0.63745462
H       -0.12254834      -1.26333010      -1.57296595
17
Frame=11 idx=010652 GeodesicLength=0.6257992959202466 rxn_smarts="[C:1]([C@@:2]1([H:11])[O:3][C@@:4]2([H:12])[C:5]([H:13])([H:14])[C:6]([H:15])([H:16])[C@@:7]12[H:17])([H:8])([H:9])[H:10]>>[C:1]([C:2](=[O:3])[H:11])([H:8])([H:9])[H:10].[C:4]1([H:12])=[C:7]([H:17])[C:6]([H:15])([H:16])[C:5]1([H:13])[H:14]"
C        2.12820858       0.79909141      -0.27567517
C        1.32531122      -0.29614076       0.36591547
O        0.74102298      -0.08502692       1.52103984
C       -0.84823392      -1.11148708       0.58806796
C       -1.87404757      -0.00533409       0.67593573
C       -1.32469129       0.51905803      -0.68184680
C       -0.38353156      -0.68490161      -0.69292346
H        1.62510668       1.76184964      -0.19192209
H        3.09279131       0.87163058       0.23296357
H        2.30625356       0.56241202      -1.32700996
H        1.83163147      -1.27458362       0.28348215
H       -0.92106255      -2.10888351       1.01198177
H       -1.74170770       0.64932679       1.53717193
H       -2.90822848      -0.35410491       0.64126562
H       -2.06788795       0.52894575      -1.47949636
H       -0.84090877       1.49572663      -0.63377745
H       -0.14002601      -1.26757835      -1.57517274
17
Frame=12 idx=010652 GeodesicLength=0.682697687854323 rxn_smarts="[C:1]([C@@:2]1([H:11])[O:3][C@@:4]2([H:12])[C:5]([H:13])([H:14])[C:6]([H:15])([H:16])[C@@:7]12[H:17])([H:8])([H:9])[H:10]>>[C:1]([C:2](=[O:3])[H:11])([H:8])([H:9])[H:10].[C:4]1([H:12])=[C:7]([H:17])[C:6]([H:15])([H:16])[C:5]1([H:13])[H:14]"
C        2.13910959       0.80284304      -0.27614215
C        1.34107611      -0.29457410       0.36660762
O        0.74391968      -0.08475081       1.51636948
C       -0.85137124      -1.11234329       0.59298130
C       -1.88266170      -0.00769575       0.67569697
C       -1.32836528       0.51691464      -0.68002475
C       -0.38910006      -0.68855087      -0.69180194
H        1.63749038       1.76574159      -0.18633267
H        3.10932256       0.87423936       0.22163503
H        2.30621141       0.56688561      -1.32950373
H        1.85893890      -1.26817826       0.29927292
H       -0.94208152      -2.11453956       1.00328050
H       -1.75401999       0.64918602       1.53596309
H       -2.91713981      -0.35483376       0.63844276
H       -2.06989729       0.52849819      -1.47922975
H       -0.84363584       1.49297791      -0.62987611
H       -0.15779590      -1.27181997      -1.57733855
17
Frame=13 idx=010652 GeodesicLength=0.7395891158057581 rxn_smarts="[C:1]([C@@:2]1([H:11])[O:3][C@@:4]2([H:12])[C:5]([H:13])([H:14])[C:6]([H:15])([H:16])[C@@:7]12[H:17])([H:8])([H:9])[H:10]>>[C:1]([C:2](=[O:3])[H:11])([H:8])([H:9])[H:10].[C:4]1([H:12])=[C:7]([H:17])[C:6]([H:15])([H:16])[C:5]1([H:13])[H:14]"
C        2.15011568       0.80654770      -0.27670428
C        1.35707956      -0.29308837       0.36729590
O        0.74682046      -0.08458896       1.51141818
C       -0.85465210      -1.11335564       0.59787127
C       -1.89137281      -0.01016410       0.67545132
C       -1.33203725       0.51476946      -0.67810608
C       -0.39480978      -0.69230957      -0.69070311
H        1.64998262       1.76954754      -0.18083937
H        3.12589393       0.87697880       0.21000732
H        2.30616956       0.57125770      -1.33197929
H        1.88689969      -1.26128547       0.31580257
H       -0.96342470      -2.11995446       0.99427338
H       -1.76646081       0.64885467       1.53479345
H       -2.92617069      -0.35556657       0.63551408
H       -2.07187710       0.52822674      -1.47887978
H       -0.84629174       1.49017820      -0.62574194
H       -0.17586453      -1.27604766      -1.57947360
17
Frame=14 idx=010652 GeodesicLength=0.7964718777865222 rxn_smarts="[C:1]([C@@:2]1([H:11])[O:3][C@@:4]2([H:12])[C:5]([H:13])([H:14])[C:6]([H:15])([H:16])[C@@:7]12[H:17])([H:8])([H:9])[H:10]>>[C:1]([C:2](=[O:3])[H:11])([H:8])([H:9])[H:10].[C:4]1([H:12])=[C:7]([H:17])[C:6]([H:15])([H:16])[C:5]1([H:13])[H:14]"
C        2.16122112       0.81019721      -0.27736417
C        1.37332943      -0.29170011       0.36797867
O        0.74972272      -0.08456760       1.50616913
C       -0.85808934      -1.11453691       0.60272290
C       -1.90018099      -0.01273867       0.67519616
C       -1.33570567       0.51262564      -0.67608968
C       -0.40067003      -0.69618119      -0.68963803
H        1.66256909       1.77325528      -0.17544774
H        3.14249506       0.87985292       0.19807681
H        2.30612968       0.57551479      -1.33443424
H        1.91552436      -1.25385684       0.33311132
H       -0.98506634      -2.12511723       0.98497695
H       -1.77902142       0.64832561       1.53366499
H       -2.93532330      -0.35629213       0.63247695
H       -2.07382615       0.52814704      -1.47844317
H       -0.84886984       1.48732620      -0.62136703
H       -0.19423838      -1.28025400      -1.58158982
17
Frame=15 idx=010652 GeodesicLength=0.8533438587545934 rxn_smarts="[C:1]([C@@:2]1([H:11])[O:3][C@@:4]2([H:12])[C:5]([H:13])([H:14])[C:6]([H:15])([H:16])[C@@:7]12[H:17])([H:8])([H:9])[H:10]>>[C:1]([C:2](=[O:3])[H:11])([H:8])([H:9])[H:10].[C:4]1([H:12])=[C:7]([H:17])[C:6]([H:15])([H:16])[C:5]1([H:13])[H:14]"
C        2.17242192       0.81378262      -0.27812479
C        1.38983432      -0.29042580       0.36865493
O        0.75262417      -0.08471299       1.50060569
C       -0.86169498      -1.11589861       0.60752139
C       -1.90908720      -0.01541942       0.67492869
C       -1.33936879       0.51048729      -0.67397444
C       -0.40669030      -0.70016837      -0.68861813
H        1.67523570       1.77685111      -0.17016541
H        3.15911451       0.88286799       0.18584088
H        2.30609485       0.57964118      -1.33686692
H        1.94482019      -1.24584324       0.35123789
H       -1.00697886      -2.13001955       0.97541081
H       -1.79169489       0.64759117       1.53258056
H       -2.94460057      -0.35700083       0.62932787
H       -2.07574278       0.52827641      -1.47791692
H       -0.85136275       1.48442145      -0.61674232
H       -0.21292453      -1.28443041      -1.58369976
17
Frame=16 idx=010652 GeodesicLength=0.9102022123427499 rxn_smarts="[C:1]([C@@:2]1([H:11])[O:3][C@@:4]2([H:12])[C:5]([H:13])([H:14])[C:6]([H:15])([H:16])[C@@:7]12[H:17])([H:8])([H:9])[H:10]>>[C:1]([C:2](=[O:3])[H:11])([H:8])([H:9])[H:10].[C:4]1([H:12])=[C:7]([H:17])[C:6]([H:15])([H:16])[C:5]1([H:13])[H:14]"
C        2.18371310       0.81729329      -0.27898997
C        1.40660431      -0.28928370       0.36932439
O        0.75552265      -0.08505214       1.49470890
C       -0.86548088      -1.11745239       0.61225083
C       -1.91809223      -0.01820632       0.67464603
C       -1.34302409       0.50835922      -0.67175857
C       -0.41288031      -0.70427354      -0.68765580
H        1.68796685       1.78031974      -0.16500188
H        3.17574051       0.88603004       0.17329571
H        2.30606868       0.58361812      -1.33927614
H        1.97479052      -1.23718709       0.37022661
H       -1.02913320      -2.13465653       0.96559498
H       -1.80447416       0.64664303       1.53154379
H       -2.95400484      -0.35768348       0.62606269
H       -2.07762419       0.52863437      -1.47729721
H       -0.85376216       1.48146385      -0.61185683
H       -0.23193056      -1.28856646      -1.58581755
