12
Frame=0 idx=004521 GeodesicLength=0.0 rxn_smarts="[O:1]([C@@:2]1([H:8])[C@@:3]2([H:9])[C:4]([H:10])([H:11])[O:5][C@@:6]12[H:12])[H:7]>>[O:1]=[C:2]([C@@:6]1([H:12])[C:3]([H:7])([H:9])[C:4]([H:10])([H:11])[O:5]1)[H:8]"
O       -0.54423285       1.04921559      -1.66544040
C        0.15911009       1.19855700      -0.55180045
C       -0.50268568       0.08734169       0.58247200
C       -0.23822154      -1.34601730       0.08151209
O        1.07705276      -1.05893696      -0.40906025
C        1.02414416       0.23999480       0.08865456
H       -1.11603570       0.54427370      -0.60151823
H        0.20875645       2.17869105      -0.05744701
H       -0.80863277       0.32870470       1.59067871
H       -0.19084475      -2.06465251       0.90201406
H       -0.89335802      -1.71440964      -0.70982758
H        1.82494790       0.55723786       0.74976250
12
Frame=1 idx=004521 GeodesicLength=0.07391169394804065 rxn_smarts="[O:1]([C@@:2]1([H:8])[C@@:3]2([H:9])[C:4]([H:10])([H:11])[O:5][C@@:6]12[H:12])[H:7]>>[O:1]=[C:2]([C@@:6]1([H:12])[C:3]([H:7])([H:9])[C:4]([H:10])([H:11])[O:5]1)[H:8]"
O       -0.53374683       1.06307635      -1.66782115
C        0.16477663       1.20815250      -0.55337114
C       -0.50312904       0.08452935       0.58231083
C       -0.23844054      -1.34950044       0.08682139
O        1.07001396      -1.05474896      -0.41871668
C        1.01936567       0.24044565       0.09274672
H       -1.12688666       0.53290567      -0.61446351
H        0.21402227       2.18829249      -0.05918377
H       -0.80838772       0.32198752       1.59196618
H       -0.18176243      -2.06827077       0.90651238
H       -0.89934951      -1.72044842      -0.69862118
H        1.82352422       0.55357907       0.75181995
12
Frame=2 idx=004521 GeodesicLength=0.14777064864105388 rxn_smarts="[O:1]([C@@:2]1([H:8])[C@@:3]2([H:9])[C:4]([H:10])([H:11])[O:5][C@@:6]12[H:12])[H:7]>>[O:1]=[C:2]([C@@:6]1([H:12])[C:3]([H:7])([H:9])[C:4]([H:10])([H:11])[O:5]1)[H:8]"
O       -0.52363121       1.07726555      -1.66974479
C        0.17072886       1.21793903      -0.55488462
C       -0.50369466       0.08174342       0.58202658
C       -0.23860375      -1.35299317       0.09219626
O        1.06274784      -1.05047505      -0.42838159
C        1.01451504       0.24089357       0.09674054
H       -1.13775851       0.52096910      -0.62798553
H        0.21970022       2.19802934      -0.06075768
H       -0.80829813       0.31536657       1.59309062
H       -0.17251007      -2.07177138       0.91107597
H       -0.90522626      -1.72669506      -0.68720997
H        1.82203061       0.54972808       0.75383421
12
Frame=3 idx=004521 GeodesicLength=0.2215963656040076 rxn_smarts="[O:1]([C@@:2]1([H:8])[C@@:3]2([H:9])[C:4]([H:10])([H:11])[O:5][C@@:6]12[H:12])[H:7]>>[O:1]=[C:2]([C@@:6]1([H:12])[C:3]([H:7])([H:9])[C:4]([H:10])([H:11])[O:5]1)[H:8]"
O       -0.51392526       1.09179275      -1.67117910
C        0.17699033       1.22792381      -0.55634121
C       -0.50438728       0.07898875       0.58160802
C       -0.23870961      -1.35649189       0.09763771
O        1.05524824      -1.04611450      -0.43805448
C        1.00959112       0.24133966       0.10063475
H       -1.14864928       0.50842837      -0.64210809
H        0.22581627       2.20790480      -0.06216124
H       -0.80837199       0.30885170       1.59403974
H       -0.16308671      -2.07514246       0.91570723
H       -0.91098056      -1.73315700      -0.67558908
H        1.82046473       0.54567601       0.75580575
12
Frame=4 idx=004521 GeodesicLength=0.29540399559860087 rxn_smarts="[O:1]([C@@:2]1([H:8])[C@@:3]2([H:9])[C:4]([H:10])([H:11])[O:5][C@@:6]12[H:12])[H:7]>>[O:1]=[C:2]([C@@:6]1([H:12])[C:3]([H:7])([H:9])[C:4]([H:10])([H:11])[O:5]1)[H:8]"
O       -0.50466885       1.10666829      -1.67208880
C        0.18358358       1.23811297      -0.55774182
C       -0.50521240       0.07627021       0.58104423
C       -0.23875662      -1.35999264       0.10314623
O        1.04750558      -1.04166551      -0.44773245
C        1.00459198       0.24178476       0.10442718
H       -1.15955535       0.49524662      -0.65685672
H        0.23239914       2.21792060      -0.06338704
H       -0.80861835       0.30245317       1.59480187
H       -0.15348976      -2.07837054       0.92040779
H       -0.91660215      -1.73984094      -0.66375342
H        1.81882319       0.54141300       0.75773295
12
Frame=5 idx=004521 GeodesicLength=0.36921996544070096 rxn_smarts="[O:1]([C@@:2]1([H:8])[C@@:3]2([H:9])[C:4]([H:10])([H:11])[O:5][C@@:6]12[H:12])[H:7]>>[O:1]=[C:2]([C@@:6]1([H:12])[C:3]([H:7])([H:9])[C:4]([H:10])([H:11])[O:5]1)[H:8]"
O       -0.49590443       1.12190152      -1.67243692
C        0.19053711       1.24851320      -0.55908787
C       -0.50617474       0.07359314       0.58032217
C       -0.23874313      -1.36349052       0.10872079
O        1.03951542      -1.03712861      -0.45741826
C        0.99951668       0.24223159       0.10811691
H       -1.17047548       0.48138341      -0.67225378
H        0.23947616       2.22807950      -0.06442844
H       -0.80904580       0.29618105       1.59536234
H       -0.14371915      -2.08144346       0.92518331
H       -0.92208638      -1.74675285      -0.65169900
H        1.81710375       0.53693204       0.75961874
12
Frame=6 idx=004521 GeodesicLength=0.44304765246215866 rxn_smarts="[O:1]([C@@:2]1([H:8])[C@@:3]2([H:9])[C:4]([H:10])([H:11])[O:5][C@@:6]12[H:12])[H:7]>>[O:1]=[C:2]([C@@:6]1([H:12])[C:3]([H:7])([H:9])[C:4]([H:10])([H:11])[O:5]1)[H:8]"
O       -0.48768439       1.13750168      -1.67217883
C        0.19787741       1.25912977      -0.56038157
C       -0.50728038       0.07096297       0.57942975
C       -0.23866768      -1.36698060       0.11436249
O        1.03126770      -1.03250142      -0.46710754
C        0.99436288       0.24268111       0.11170145
H       -1.18139998       0.46679856      -0.68833059
H        0.24708183       2.23838134      -0.06527796
H       -0.80966492       0.29004754       1.59570774
H       -0.13377371      -2.08434628       0.93003363
H       -0.92742095      -1.75389838      -0.63942064
H        1.81530217       0.53222372       0.76146206
12
Frame=7 idx=004521 GeodesicLength=0.5168901009340017 rxn_smarts="[O:1]([C@@:2]1([H:8])[C@@:3]2([H:9])[C:4]([H:10])([H:11])[O:5][C@@:6]12[H:12])[H:7]>>[O:1]=[C:2]([C@@:6]1([H:12])[C:3]([H:7])([H:9])[C:4]([H:10])([H:11])[O:5]1)[H:8]"
O       -0.48006911       1.15347766      -1.67126346
C        0.20563648       1.26996765      -0.56162611
C       -0.50853544       0.06838577       0.57835251
C       -0.23852878      -1.37045683       0.12007129
O        1.02275531      -1.02778368      -0.47679933
C        0.98912874       0.24313619       0.11517917
H       -1.19231671       0.45144898      -0.70512127
H        0.25525205       2.24882553      -0.06592789
H       -0.81048777       0.28406550       1.59582210
H       -0.12365285      -2.08706287       0.93496051
H       -0.93259599      -1.76128280      -0.62691204
H        1.81341407       0.52727891       0.76326452
12
Frame=8 idx=004521 GeodesicLength=0.5907742016701932 rxn_smarts="[O:1]([C@@:2]1([H:8])[C@@:3]2([H:9])[C:4]([H:10])([H:11])[O:5][C@@:6]12[H:12])[H:7]>>[O:1]=[C:2]([C@@:6]1([H:12])[C:3]([H:7])([H:9])[C:4]([H:10])([H:11])[O:5]1)[H:8]"
O       -0.47310244       1.16983188      -1.66964750
C        0.21384322       1.28102819      -0.56282840
C       -0.50994348       0.06586630       0.57708154
C       -0.23832689      -1.37391266       0.12584337
O        1.01398115      -1.02297735      -0.48649289
C        0.98381261       0.24360203       0.11855178
H       -1.20322474       0.43529717      -0.72264061
H        0.26401489       2.25941061      -0.06638057
H       -0.81152091       0.27824464       1.59569537
H       -0.11336116      -2.08958358       0.93996623
H       -0.93760724      -1.76890301      -0.61417686
H        1.81143498       0.52209578       0.76502854
12
Frame=9 idx=004521 GeodesicLength=0.6646907628926606 rxn_smarts="[O:1]([C@@:2]1([H:8])[C@@:3]2([H:9])[C:4]([H:10])([H:11])[O:5][C@@:6]12[H:12])[H:7]>>[O:1]=[C:2]([C@@:6]1([H:12])[C:3]([H:7])([H:9])[C:4]([H:10])([H:11])[O:5]1)[H:8]"
O       -0.46687366       1.18658130      -1.66725014
C        0.22254006       1.29231748      -0.56399341
C       -0.51151386       0.06341322       0.57559471
C       -0.23805760      -1.37733943       0.13167992
O        1.00492718      -1.01807836      -0.49618394
C        0.97841245       0.24408063       0.12181450
H       -1.21410051       0.41828527      -0.74094563
H        0.27342283       2.27013219      -0.06662375
H       -0.81278367       0.27260272       1.59530192
H       -0.10289558      -2.09188341       0.94505434
H       -0.94243614      -1.77676959      -0.60120269
H        1.80935850       0.51665798       0.76675417
12
Frame=10 idx=004521 GeodesicLength=0.7386337071364839 rxn_smarts="[O:1]([C@@:2]1([H:8])[C@@:3]2([H:9])[C:4]([H:10])([H:11])[O:5][C@@:6]12[H:12])[H:7]>>[O:1]=[C:2]([C@@:6]1([H:12])[C:3]([H:7])([H:9])[C:4]([H:10])([H:11])[O:5]1)[H:8]"
O       -0.46143861       1.20372008      -1.66402000
C        0.23175254       1.30383069      -0.56513398
C       -0.51324956       0.06102971       0.57388824
C       -0.23772419      -1.38073073       0.13757655
O        0.99560438      -1.01309042      -0.50586748
C        0.97292489       0.24457940       0.12496998
H       -1.22492662       0.40038432      -0.76005330
H        0.28350670       2.28098499      -0.06666543
H       -0.81428000       0.26714806       1.59463777
H       -0.09226611      -2.09395578       0.95022349
H       -0.94708193      -1.78487293      -0.58800029
H        1.80717850       0.51097262       0.76844445
12
Frame=11 idx=004521 GeodesicLength=0.812606585401671 rxn_smarts="[O:1]([C@@:2]1([H:8])[C@@:3]2([H:9])[C:4]([H:10])([H:11])[O:5][C@@:6]12[H:12])[H:7]>>[O:1]=[C:2]([C@@:6]1([H:12])[C:3]([H:7])([H:9])[C:4]([H:10])([H:11])[O:5]1)[H:8]"
O       -0.45688081       1.22125719      -1.65987005
C        0.24152101       1.31556710      -0.56626265
C       -0.51515807       0.05872297       0.57194553
C       -0.23732484      -1.38407693       0.14353117
O        0.98600360      -1.00801097      -0.51553357
C        0.96734664       0.24510276       0.12801426
H       -1.23568217       0.38154183      -0.78000733
H        0.29431663       2.29195962      -0.06650608
H       -0.81602358       0.26189671       1.59368431
H       -0.08147867      -2.09578165       0.95547321
H       -0.95152652      -1.79321248      -0.57456782
H        1.80488679       0.50503384       0.77009902
12
Frame=12 idx=004521 GeodesicLength=0.8865917513114561 rxn_smarts="[O:1]([C@@:2]1([H:8])[C@@:3]2([H:9])[C:4]([H:10])([H:11])[O:5][C@@:6]12[H:12])[H:7]>>[O:1]=[C:2]([C@@:6]1([H:12])[C:3]([H:7])([H:9])[C:4]([H:10])([H:11])[O:5]1)[H:8]"
O       -0.45328409       1.23919052      -1.65471432
C        0.25187878       1.32751919      -0.56739820
C       -0.51724488       0.05649752       0.56975736
C       -0.23686105      -1.38736869       0.14953942
O        0.97612942      -1.00284254      -0.52517255
C        0.96167359       0.24565921       0.13094786
H       -1.24633628       0.36172176      -0.80084581
H        0.30589869       2.30304396      -0.06615510
H       -0.81802362       0.25685964       1.59243159
H       -0.07054279      -2.09734623       0.96080055
H       -0.95576166      -1.80178022      -0.56091135
H        1.80247388       0.49884589       0.77172054
12
Frame=13 idx=004521 GeodesicLength=0.9605817134985194 rxn_smarts="[O:1]([C@@:2]1([H:8])[C@@:3]2([H:9])[C:4]([H:10])([H:11])[O:5][C@@:6]12[H:12])[H:7]>>[O:1]=[C:2]([C@@:6]1([H:12])[C:3]([H:7])([H:9])[C:4]([H:10])([H:11])[O:5]1)[H:8]"
O       -0.45073575       1.25751633      -1.64845509
C        0.26285994       1.33967743      -0.56856450
C       -0.51951552       0.05435806       0.56731642
C       -0.23633513      -1.39059623       0.15559533
O        0.96598882      -0.99758594      -0.53477310
C        0.95590077       0.24625855       0.13377173
H       -1.25685657       0.34088710      -0.82260648
H        0.31830283       2.31422369      -0.06562884
H       -0.82028792       0.25204762       1.59087081
H       -0.05947196      -2.09863808       0.96620337
H       -0.95977871      -1.81056588      -0.54704186
H        1.79992920       0.49241735       0.77331221
12
Frame=14 idx=004521 GeodesicLength=1.03454825580758 rxn_smarts="[O:1]([C@@:2]1([H:8])[C@@:3]2([H:9])[C:4]([H:10])([H:11])[O:5][C@@:6]12[H:12])[H:7]>>[O:1]=[C:2]([C@@:6]1([H:12])[C:3]([H:7])([H:9])[C:4]([H:10])([H:11])[O:5]1)[H:8]"
O       -0.44933234       1.27622614      -1.64098016
C        0.27449404       1.35202729      -0.56979057
C       -0.52197622       0.05230760       0.56461823
C       -0.23574993      -1.39374913       0.16169288
O        0.95558869      -0.99224272      -0.54431759
C        0.95002111       0.24691238       0.13648566
H       -1.26719483       0.31900913      -0.84533525
H        0.33158270       2.32547946      -0.06494944
H       -0.82282322       0.24746932       1.58899825
H       -0.04828287      -2.09964513       0.97167561
H       -0.96356675      -1.81955515      -0.53297189
H        1.79723963       0.48576081       0.77487427
12
Frame=15 idx=004521 GeodesicLength=1.1084790548576355 rxn_smarts="[O:1]([C@@:2]1([H:8])[C@@:3]2([H:9])[C:4]([H:10])([H:11])[O:5][C@@:6]12[H:12])[H:7]>>[O:1]=[C:2]([C@@:6]1([H:12])[C:3]([H:7])([H:9])[C:4]([H:10])([H:11])[O:5]1)[H:8]"
O       -0.44915852       1.29530431      -1.63217291
C        0.28680454       1.36454820      -0.57111263
C       -0.52463203       0.05034676       0.56166374
C       -0.23510971      -1.39681660       0.16782304
O        0.94494326      -0.98681539      -0.55378663
C        0.94402625       0.24763564       0.13909197
H       -1.27730647       0.29606931      -0.86906591
H        0.34578981       2.33678881      -0.06415179
H       -0.82563197       0.24312840       1.58681589
H       -0.03699625      -2.10036008       0.97720829
H       -0.96711851      -1.82872779      -0.51872124
H        1.79438958       0.47889843       0.77640818
12
Frame=16 idx=004521 GeodesicLength=1.1823496319235165 rxn_smarts="[O:1]([C@@:2]1([H:8])[C@@:3]2([H:9])[C:4]([H:10])([H:11])[O:5][C@@:6]12[H:12])[H:7]>>[O:1]=[C:2]([C@@:6]1([H:12])[C:3]([H:7])([H:9])[C:4]([H:10])([H:11])[O:5]1)[H:8]"
O       -0.45030532       1.31472610      -1.62190192
C        0.29980751       1.37721455      -0.57257462
C       -0.52748831       0.04847457       0.55846083
C       -0.23442060      -1.39978820       0.17397570
O        0.93406886      -0.98130520      -0.56315422
C        0.93790537       0.24844558       0.14159318
H       -1.28713135       0.27206013      -0.89383803
H        0.36097974       2.34812450      -0.06328212
H       -0.82871355       0.23902542       1.58433473
H       -0.02563751      -2.10077948       0.98278835
H       -0.97042675      -1.83805852      -0.50431652
H        1.79136194       0.47186057       0.77791465
