14
Frame=0 idx=002701 GeodesicLength=0.0 rxn_smarts="[O:1]([C@@:2]1([H:8])[C:3]([H:9])([H:10])[C:4]([H:11])([H:12])[C@:5]1([O:6][H:14])[H:13])[H:7]>>[H:7][H:10].[O:1]=[C:2]([C@@:3]1([H:9])[C:4]([H:11])([H:12])[C@:5]1([O:6][H:14])[H:13])[H:8]"
O       -0.11377992      -1.27586960       1.15524194
C       -0.18738885      -1.06198925      -0.12311920
C       -0.89761583       0.15272319      -0.50838777
C        0.04095595       1.25011132      -0.15638968
C        1.04672591       0.14343121      -0.48351853
O        2.05896511      -0.08305602       0.41392827
H       -1.46602167      -0.56067397       1.35627804
H       -0.27651550      -1.92202607      -0.79765056
H       -1.37157785       0.19426341      -1.49236536
H       -1.97345297      -0.06618695       0.87100622
H        0.01364773       2.12951977      -0.79197632
H        0.08778048       1.51145453       0.89677385
H        1.40363073       0.12262913      -1.50808578
H        1.63464671      -0.53433068       1.16826489
14
Frame=1 idx=002701 GeodesicLength=0.07328769344416323 rxn_smarts="[O:1]([C@@:2]1([H:8])[C:3]([H:9])([H:10])[C:4]([H:11])([H:12])[C@:5]1([O:6][H:14])[H:13])[H:7]>>[H:7][H:10].[O:1]=[C:2]([C@@:3]1([H:9])[C:4]([H:11])([H:12])[C@:5]1([O:6][H:14])[H:13])[H:8]"
O       -0.12265229      -1.27812616       1.15689944
C       -0.18830418      -1.06928072      -0.12404367
C       -0.89116722       0.15088615      -0.51478682
C        0.04296918       1.25227143      -0.15519009
C        1.04586459       0.14723275      -0.48769431
O        2.06067850      -0.08361522       0.40732489
H       -1.46879444      -0.56655854       1.37127080
H       -0.28377258      -1.93316147      -0.79290831
H       -1.35794800       0.19022875      -1.50179070
H       -1.97820817      -0.05684106       0.87450483
H        0.01544105       2.13430486      -0.78711502
H        0.08356219       1.50732906       0.89971764
H        1.40480855       0.13338364      -1.51182158
H        1.63752282      -0.52805346       1.16563290
14
Frame=2 idx=002701 GeodesicLength=0.14650761887999447 rxn_smarts="[O:1]([C@@:2]1([H:8])[C:3]([H:9])([H:10])[C:4]([H:11])([H:12])[C@:5]1([O:6][H:14])[H:13])[H:7]>>[H:7][H:10].[O:1]=[C:2]([C@@:3]1([H:9])[C:4]([H:11])([H:12])[C@:5]1([O:6][H:14])[H:13])[H:8]"
O       -0.13165404      -1.28044880       1.15843795
C       -0.18921620      -1.07657397      -0.12501427
C       -0.88463252       0.14901959      -0.52125987
C        0.04497375       1.25441024      -0.15403761
C        1.04507460       0.15108328      -0.49187095
O        2.06239178      -0.08414748       0.40075898
H       -1.47147797      -0.57258990       1.38672880
H       -0.29124295      -1.94420391      -0.78818483
H       -1.34421662       0.18615205      -1.51122914
H       -1.98305207      -0.04740193       0.87795013
H        0.01719729       2.13903996      -0.78230815
H        0.07928196       1.50317006       0.90254293
H        1.40612650       0.14425986      -1.51548404
H        1.64044651      -0.52176906       1.16297008
14
Frame=3 idx=002701 GeodesicLength=0.2196974006946733 rxn_smarts="[O:1]([C@@:2]1([H:8])[C:3]([H:9])([H:10])[C:4]([H:11])([H:12])[C@:5]1([O:6][H:14])[H:13])[H:7]>>[H:7][H:10].[O:1]=[C:2]([C@@:3]1([H:9])[C:4]([H:11])([H:12])[C@:5]1([O:6][H:14])[H:13])[H:8]"
O       -0.14078922      -1.28283734       1.15985379
C       -0.19012691      -1.08387021      -0.12603345
C       -0.87800970       0.14712228      -0.52781090
C        0.04696848       1.25652609      -0.15293295
C        1.04435765       0.15498323      -0.49604882
O        2.06410619      -0.08465398       0.39423058
H       -1.47404856      -0.57877652       1.40268764
H       -0.29893190      -1.95514848      -0.78348468
H       -1.33037951       0.18203167      -1.52068599
H       -1.98800151      -0.03786042       0.88132399
H        0.01891501       2.14372458      -0.77755491
H        0.07493649       1.49897445       0.90524857
H        1.40758640       0.15525941      -1.51907144
H        1.64341708      -0.51547475       1.16027855
14
Frame=4 idx=002701 GeodesicLength=0.2928758294058947 rxn_smarts="[O:1]([C@@:2]1([H:8])[C:3]([H:9])([H:10])[C:4]([H:11])([H:12])[C@:5]1([O:6][H:14])[H:13])[H:7]>>[H:7][H:10].[O:1]=[C:2]([C@@:3]1([H:9])[C:4]([H:11])([H:12])[C@:5]1([O:6][H:14])[H:13])[H:8]"
O       -0.15006259      -1.28529119       1.16114290
C       -0.19103833      -1.09117060      -0.12710358
C       -0.87129679       0.14519297      -0.53444376
C        0.04895212       1.25861737      -0.15187684
C        1.04371546       0.15893309      -0.50022808
O        2.06582265      -0.08513583       0.38773990
H       -1.47648240      -0.58512756       1.41918265
H       -0.30684436      -1.96599011      -0.77881280
H       -1.31643210       0.17786581      -1.53016649
H       -1.99307224      -0.02820688       0.88460928
H        0.02059267       2.14835819      -0.77285513
H        0.07052227       1.49473925       0.90783338
H        1.40919008       0.16638379      -1.52258192
H        1.64643356      -0.50916830       1.15756048
14
Frame=5 idx=002701 GeodesicLength=0.3660586365696467 rxn_smarts="[O:1]([C@@:2]1([H:8])[C:3]([H:9])([H:10])[C:4]([H:11])([H:12])[C@:5]1([O:6][H:14])[H:13])[H:7]>>[H:7][H:10].[O:1]=[C:2]([C@@:3]1([H:9])[C:4]([H:11])([H:12])[C@:5]1([O:6][H:14])[H:13])[H:8]"
O       -0.15947889      -1.28780997       1.16230031
C       -0.19195272      -1.09847656      -0.12822709
C       -0.86449175       0.14323034      -0.54116234
C        0.05092327       1.26068248      -0.15087040
C        1.04314962       0.16293318      -0.50440875
O        2.06754186      -0.08559419       0.38128765
H       -1.47875246      -0.59165254       1.43625195
H       -0.31498498      -1.97672350      -0.77417496
H       -1.30237013       0.17365325      -1.53967570
H       -1.99828190      -0.01843078       0.88778686
H        0.02222874       2.15294041      -0.76820870
H        0.06603537       1.49046143       0.91029599
H        1.41093954       0.17763393      -1.52601322
H        1.64949441      -0.50284746       1.15481840
14
Frame=6 idx=002701 GeodesicLength=0.4392893833871774 rxn_smarts="[O:1]([C@@:2]1([H:8])[C:3]([H:9])([H:10])[C:4]([H:11])([H:12])[C@:5]1([O:6][H:14])[H:13])[H:7]>>[H:7][H:10].[O:1]=[C:2]([C@@:3]1([H:9])[C:4]([H:11])([H:12])[C@:5]1([O:6][H:14])[H:13])[H:8]"
O       -0.16904401      -1.29039320       1.16332167
C       -0.19287331      -1.10578914      -0.12940714
C       -0.85759242       0.14123318      -0.54797193
C        0.05288011       1.26271947      -0.14991404
C        1.04266154       0.16698400      -0.50859085
O        2.06926398      -0.08603095       0.37487468
H       -1.48082269      -0.59836364       1.45394392
H       -0.32335935      -1.98734283      -0.76957719
H       -1.28818782       0.16939226      -1.54922040
H       -2.00365262      -0.00851807       0.89082912
H        0.02382150       2.15747034      -0.76361452
H        0.06147070       1.48613715       0.91263500
H        1.41283662       0.18901181      -1.52936287
H        1.65259778      -0.49651039       1.15205454
14
Frame=7 idx=002701 GeodesicLength=0.5125525142550804 rxn_smarts="[O:1]([C@@:2]1([H:8])[C:3]([H:9])([H:10])[C:4]([H:11])([H:12])[C@:5]1([O:6][H:14])[H:13])[H:7]>>[H:7][H:10].[O:1]=[C:2]([C@@:3]1([H:9])[C:4]([H:11])([H:12])[C@:5]1([O:6][H:14])[H:13])[H:8]"
O       -0.17876693      -1.29303913       1.16420174
C       -0.19380297      -1.11310988      -0.13064795
C       -0.85059686       0.13920051      -0.55487765
C        0.05482065       1.26472678      -0.14900960
C        1.04225267       0.17108605      -0.51277419
O        2.07098835      -0.08644781       0.36850325
H       -1.48266060      -0.60527159       1.47230069
H       -0.33197206      -1.99784256      -0.76502674
H       -1.27387952       0.16508277      -1.55880722
H       -2.00919917       0.00154048       0.89371896
H        0.02536929       2.16194730      -0.75907347
H        0.05682322       1.48176383       0.91484767
H        1.41488402       0.20051847      -1.53262771
H        1.65573991      -0.49015524       1.14927224
14
Frame=8 idx=002701 GeodesicLength=0.5858637962479909 rxn_smarts="[O:1]([C@@:2]1([H:8])[C:3]([H:9])([H:10])[C:4]([H:11])([H:12])[C@:5]1([O:6][H:14])[H:13])[H:7]>>[H:7][H:10].[O:1]=[C:2]([C@@:3]1([H:9])[C:4]([H:11])([H:12])[C@:5]1([O:6][H:14])[H:13])[H:8]"
O       -0.18865498      -1.29574722       1.16493441
C       -0.19474594      -1.12043983      -0.13195292
C       -0.84350289       0.13713131      -0.56188505
C        0.05674274       1.26670266      -0.14815791
C        1.04192413       0.17523973      -0.51695819
O        2.07271400      -0.08684702       0.36217530
H       -1.48422452      -0.61238867       1.49137499
H       -0.34082819      -2.00821608      -0.76053135
H       -1.25943918       0.16072280      -1.56844323
H       -2.01494425       0.01175914       0.89642696
H        0.02687075       2.16637064      -0.75458494
H        0.05208694       1.47733765       0.91693214
H        1.41708391       0.21215543      -1.53580461
H        1.65891747      -0.48378053       1.14647440
14
Frame=9 idx=002701 GeodesicLength=0.6592070573070482 rxn_smarts="[O:1]([C@@:2]1([H:8])[C:3]([H:9])([H:10])[C:4]([H:11])([H:12])[C@:5]1([O:6][H:14])[H:13])[H:7]>>[H:7][H:10].[O:1]=[C:2]([C@@:3]1([H:9])[C:4]([H:11])([H:12])[C@:5]1([O:6][H:14])[H:13])[H:8]"
O       -0.19871457      -1.29851718       1.16551271
C       -0.19570646      -1.12778048      -0.13332485
C       -0.83630845       0.13502433      -0.56899952
C        0.05864409       1.26864500      -0.14735990
C        1.04167707       0.17944509      -0.52114215
O        2.07444036      -0.08723061       0.35589306
H       -1.48547414      -0.61972618       1.51121644
H       -0.34993121      -2.01845630      -0.75609882
H       -1.24486190       0.15631229      -1.57813426
H       -2.02091027       0.02215193       0.89892562
H        0.02832418       2.17073950      -0.75014892
H        0.04725564       1.47285491       0.91888623
H        1.41943845       0.22392271      -1.53888982
H        1.66212720      -0.47738502       1.14366419
14
Frame=10 idx=002701 GeodesicLength=0.7326115377450265 rxn_smarts="[O:1]([C@@:2]1([H:8])[C:3]([H:9])([H:10])[C:4]([H:11])([H:12])[C@:5]1([O:6][H:14])[H:13])[H:7]>>[H:7][H:10].[O:1]=[C:2]([C@@:3]1([H:9])[C:4]([H:11])([H:12])[C@:5]1([O:6][H:14])[H:13])[H:8]"
O       -0.20896075      -1.30134641       1.16592944
C       -0.19669090      -1.13513235      -0.13476989
C       -0.82901182       0.13287952      -0.57622868
C        0.06052164       1.27055258      -0.14661786
C        1.04151196       0.18370267      -0.52532517
O        2.07616375      -0.08760187       0.34966139
H       -1.48634559      -0.62730230       1.53189403
H       -0.35928851      -2.02855633      -0.75173969
H       -1.23013763       0.15185011      -1.58789079
H       -2.02712326       0.03273465       0.90117843
H        0.02972844       2.17505348      -0.74576578
H        0.04232058       1.46831211       0.92070675
H        1.42195089       0.23582204      -1.54187870
H        1.66536122      -0.47096789       1.14084653
14
Frame=11 idx=002701 GeodesicLength=0.8060603327895852 rxn_smarts="[O:1]([C@@:2]1([H:8])[C:3]([H:9])([H:10])[C:4]([H:11])([H:12])[C@:5]1([O:6][H:14])[H:13])[H:7]>>[H:7][H:10].[O:1]=[C:2]([C@@:3]1([H:9])[C:4]([H:11])([H:12])[C@:5]1([O:6][H:14])[H:13])[H:8]"
O       -0.21940782      -1.30423254       1.16617633
C       -0.19770536      -1.14249661      -0.13629383
C       -0.82161117       0.13069648      -0.58357970
C        0.06237231       1.27242388      -0.14593384
C        1.04142941       0.18801283      -0.52950584
O        2.07788054      -0.08796402       0.34348556
H       -1.48677735      -0.63513174       1.55347276
H       -0.36890558      -2.03850886      -0.74746515
H       -1.21525866       0.14733649      -1.59772223
H       -2.03360757       0.04352100       0.90315174
H        0.03108238       2.17931213      -0.74143657
H        0.03727277       1.46370596       0.92238996
H        1.42462467       0.24785387      -1.54476582
H        1.66861142      -0.46452886       1.13802664
14
Frame=12 idx=002701 GeodesicLength=0.8795476651024515 rxn_smarts="[O:1]([C@@:2]1([H:8])[C:3]([H:9])([H:10])[C:4]([H:11])([H:12])[C@:5]1([O:6][H:14])[H:13])[H:7]>>[H:7][H:10].[O:1]=[C:2]([C@@:3]1([H:9])[C:4]([H:11])([H:12])[C@:5]1([O:6][H:14])[H:13])[H:8]"
O       -0.23007229      -1.30717320       1.16624431
C       -0.19875757      -1.14987412      -0.13790344
C       -0.81410444       0.12847499      -0.59106193
C        0.06419218       1.27425716      -0.14530996
C        1.04142969       0.19237578      -0.53368209
O        2.07958589      -0.08832102       0.33737221
H       -1.48669467      -0.64323131       1.57602779
H       -0.37878880      -2.04830623      -0.74328761
H       -1.20021626       0.14277189      -1.60763849
H       -2.04039211       0.05452760       0.90480404
H        0.03238495       2.18351487      -0.73716209
H        0.03210129       1.45903263       0.92393182
H        1.42746408       0.26001911      -1.54754507
H        1.67186807      -0.45806816       1.13521053
14
Frame=13 idx=002701 GeodesicLength=0.9530384461435542 rxn_smarts="[O:1]([C@@:2]1([H:8])[C:3]([H:9])([H:10])[C:4]([H:11])([H:12])[C@:5]1([O:6][H:14])[H:13])[H:7]>>[H:7][H:10].[O:1]=[C:2]([C@@:3]1([H:9])[C:4]([H:11])([H:12])[C@:5]1([O:6][H:14])[H:13])[H:8]"
O       -0.24097246      -1.31016580       1.16612245
C       -0.19985605      -1.15726573      -0.13960528
C       -0.80649021       0.12621503      -0.59868389
C        0.06597727       1.27605095      -0.14474877
C        1.04151279       0.19679154      -0.53785161
O        2.08127402      -0.08867715       0.33132921
H       -1.48601778      -0.65161675       1.59963420
H       -0.38894327      -2.05793973      -0.73922110
H       -1.18500136       0.13815683      -1.61765010
H       -2.04750559       0.06576993       0.90609506
H        0.03363516       2.18766111      -0.73294383
H        0.02679481       1.45428900       0.92532767
H        1.43047320       0.27231731      -1.55020901
H        1.67511946      -0.45158655       1.13240500
14
Frame=14 idx=002701 GeodesicLength=1.026526891707289 rxn_smarts="[O:1]([C@@:2]1([H:8])[C:3]([H:9])([H:10])[C:4]([H:11])([H:12])[C@:5]1([O:6][H:14])[H:13])[H:7]>>[H:7][H:10].[O:1]=[C:2]([C@@:3]1([H:9])[C:4]([H:11])([H:12])[C@:5]1([O:6][H:14])[H:13])[H:8]"
O       -0.25213292      -1.31320670       1.16579894
C       -0.20101163      -1.16467179      -0.14140859
C       -0.79876704       0.12391745      -0.60645714
C        0.06772240       1.27780391      -0.14425353
C        1.04167811       0.20126023      -0.54201101
O        2.08293642      -0.08903763       0.32536745
H       -1.48464139      -0.66030958       1.62438543
H       -0.39937841      -2.06740118      -0.73528173
H       -1.16960184       0.13349299      -1.62777128
H       -2.05498210       0.07726664       0.90697291
H        0.03483257       2.19175058      -0.72878372
H        0.02133809       1.44947140       0.92657174
H        1.43365781       0.28474892      -1.55274882
H        1.67834994      -0.44508524       1.12961936
14
Frame=15 idx=002701 GeodesicLength=1.099979365207863 rxn_smarts="[O:1]([C@@:2]1([H:8])[C:3]([H:9])([H:10])[C:4]([H:11])([H:12])[C@:5]1([O:6][H:14])[H:13])[H:7]>>[H:7][H:10].[O:1]=[C:2]([C@@:3]1([H:9])[C:4]([H:11])([H:12])[C@:5]1([O:6][H:14])[H:13])[H:8]"
O       -0.26358162      -1.31629159       1.16526009
C       -0.20223711      -1.17209238      -0.14332287
C       -0.79093388       0.12158353      -0.61439376
C        0.06942196       1.27951502      -0.14382795
C        1.04192452       0.20578157      -0.54615609
O        2.08456296      -0.08940856       0.31949987
H       -1.48244945      -0.66933082       1.65037625
H       -0.41010215      -2.07668094      -0.73148747
H       -1.15400564       0.12878214      -1.63801612
H       -2.06285651       0.08903501       0.90738521
H        0.03597727       2.19578326      -0.72468466
H        0.01571475       1.44457712       0.92765728
H        1.43702412       0.29731293      -1.55515401
H        1.68154079      -0.43856631       1.12686423
14
Frame=16 idx=002701 GeodesicLength=1.1733639254805759 rxn_smarts="[O:1]([C@@:2]1([H:8])[C:3]([H:9])([H:10])[C:4]([H:11])([H:12])[C@:5]1([O:6][H:14])[H:13])[H:7]>>[H:7][H:10].[O:1]=[C:2]([C@@:3]1([H:9])[C:4]([H:11])([H:12])[C@:5]1([O:6][H:14])[H:13])[H:8]"
O       -0.27535276      -1.31941511       1.16449007
C       -0.20354669      -1.17952755      -0.14535968
C       -0.78298977       0.11921478      -0.62250792
C        0.07106926       1.28118333      -0.14347670
C        1.04225059       0.21035528      -0.55028142
O        2.08614085      -0.08979680       0.31374301
H       -1.47930295      -0.67870406       1.67771310
H       -0.42112557      -2.08576951      -0.72785907
H       -1.13819877       0.12402719      -1.64840130
H       -2.07116755       0.10109411       0.90727306
H        0.03706946       2.19975902      -0.72065046
H        0.00990490       1.43960350       0.92857624
H        1.44058016       0.31000842      -1.55741190
H        1.68466883      -0.43203258       1.12415295
