14
Frame=0 idx=006057 GeodesicLength=0.0 rxn_smarts="[C:1]1([H:7])([H:8])[C@@:2]2([H:9])[C@:3]1([H:10])[C@@:4]1([H:11])[C:5]([H:12])([H:13])[C@@:6]21[H:14]>>[C:1]1([H:7])([H:8])[C@@:2]2([H:9])[C@:3]1([H:10])[C:4]([H:11])([H:12])[C@:6]2([C:5][H:13])[H:14]"
C        1.19653854      -0.80828663      -0.41915399
C        0.93036814       0.20812468       0.63450721
C        0.56229511       0.48594441      -0.80566368
C       -0.91856353       0.60368433      -0.40374997
C       -1.55412621      -0.69616071       0.60430180
C       -0.57759132       0.30016439       1.04142313
H        0.65941697      -1.74745912      -0.46624603
H        2.23664434      -0.88353424      -0.71086847
H        1.71794001       0.66518278       1.21438088
H        1.01805791       1.16701976      -1.50942429
H       -1.49232980       1.49779204      -0.61738187
H       -1.85713311      -0.19400943      -0.59923174
H       -1.08598577      -1.60237034       0.21340439
H       -0.83553128       1.00390813       1.82370264
14
Frame=1 idx=006057 GeodesicLength=0.03966240364170407 rxn_smarts="[C:1]1([H:7])([H:8])[C@@:2]2([H:9])[C@:3]1([H:10])[C@@:4]1([H:11])[C:5]([H:12])([H:13])[C@@:6]21[H:14]>>[C:1]1([H:7])([H:8])[C@@:2]2([H:9])[C@:3]1([H:10])[C:4]([H:11])([H:12])[C@:6]2([C:5][H:13])[H:14]"
C        1.19797711      -0.80756593      -0.41961960
C        0.93108221       0.20817442       0.63490228
C        0.56265511       0.48655593      -0.80482931
C       -0.91954870       0.60152898      -0.40639668
C       -1.55062655      -0.69571965       0.60303873
C       -0.57523395       0.29905797       1.04225219
H        0.66124996      -1.74689678      -0.46795073
H        2.23831267      -0.88275722      -0.71041132
H        1.71861532       0.66509457       1.21505131
H        1.01938548       1.16864959      -1.50700217
H       -1.48709552       1.50037059      -0.61704459
H       -1.87343580      -0.19525668      -0.60108818
H       -1.08806647      -1.60703747       0.21787588
H       -0.83527089       1.00580167       1.82122220
14
Frame=2 idx=006057 GeodesicLength=0.07925207584551344 rxn_smarts="[C:1]1([H:7])([H:8])[C@@:2]2([H:9])[C@:3]1([H:10])[C@@:4]1([H:11])[C:5]([H:12])([H:13])[C@@:6]21[H:14]>>[C:1]1([H:7])([H:8])[C@@:2]2([H:9])[C@:3]1([H:10])[C:4]([H:11])([H:12])[C@:6]2([C:5][H:13])[H:14]"
C        1.19943630      -0.80685340      -0.42006452
C        0.93179079       0.20819176       0.63528900
C        0.56304061       0.48715823      -0.80405903
C       -0.92050340       0.59937888      -0.40914683
C       -1.54715056      -0.69526846       0.60161885
C       -0.57285579       0.29795766       1.04302562
H        0.66313800      -1.74631542      -0.46971329
H        2.24007132      -0.88193158      -0.70995437
H        1.71923535       0.66491947       1.21576172
H        1.02094757       1.17040855      -1.50452704
H       -1.48189346       1.50278656      -0.61687040
H       -1.89014625      -0.19631838      -0.60243998
H       -1.09008638      -1.61170837       0.22248389
H       -0.83502410       1.00759450       1.81859637
14
Frame=3 idx=006057 GeodesicLength=0.11865140813737601 rxn_smarts="[C:1]1([H:7])([H:8])[C@@:2]2([H:9])[C@:3]1([H:10])[C@@:4]1([H:11])[C:5]([H:12])([H:13])[C@@:6]21[H:14]>>[C:1]1([H:7])([H:8])[C@@:2]2([H:9])[C@:3]1([H:10])[C:4]([H:11])([H:12])[C@:6]2([C:5][H:13])[H:14]"
C        1.20091195      -0.80612957      -0.42052524
C        0.93251034       0.20822229       0.63568020
C        0.56344576       0.48777479      -0.80325917
C       -0.92144680       0.59722114      -0.41189605
C       -1.54364855      -0.69483286       0.60016957
C       -0.57048978       0.29683187       1.04380358
H        0.66502002      -1.74573172      -0.47147542
H        2.24181710      -0.88112179      -0.70948239
H        1.71987967       0.66478073       1.21647174
H        1.02243065       1.17211697      -1.50206898
H       -1.47666863       1.50520322      -0.61669217
H       -1.90682167      -0.19735514      -0.60380010
H       -1.09214339      -1.61637323       0.22707261
H       -0.83479665       1.00939329       1.81600182
14
Frame=4 idx=006057 GeodesicLength=0.1582488428740904 rxn_smarts="[C:1]1([H:7])([H:8])[C@@:2]2([H:9])[C@:3]1([H:10])[C@@:4]1([H:11])[C:5]([H:12])([H:13])[C@@:6]21[H:14]>>[C:1]1([H:7])([H:8])[C@@:2]2([H:9])[C@:3]1([H:10])[C:4]([H:11])([H:12])[C@:6]2([C:5][H:13])[H:14]"
C        1.20243735      -0.80538933      -0.42099361
C        0.93325585       0.20824874       0.63607561
C        0.56392079       0.48841860      -0.80245814
C       -0.92232262       0.59509196      -0.41471720
C       -1.54012948      -0.69439364       0.59852291
C       -0.56811479       0.29567737       1.04454822
H        0.66693846      -1.74511826      -0.47328431
H        2.24361807      -0.88030275      -0.70898760
H        1.72053134       0.66462293       1.21722045
H        1.02399110       1.17384888      -1.49959321
H       -1.47143639       1.50747491      -0.61664744
H       -1.92387479      -0.19828167      -0.60479000
H       -1.09421332      -1.62101198       0.23174687
H       -0.83460157       1.01111424       1.81335745
14
Frame=5 idx=006057 GeodesicLength=0.1978448832829345 rxn_smarts="[C:1]1([H:7])([H:8])[C@@:2]2([H:9])[C@:3]1([H:10])[C@@:4]1([H:11])[C:5]([H:12])([H:13])[C@@:6]21[H:14]>>[C:1]1([H:7])([H:8])[C@@:2]2([H:9])[C@:3]1([H:10])[C:4]([H:11])([H:12])[C@:6]2([C:5][H:13])[H:14]"
C        1.20399502      -0.80463917      -0.42146775
C        0.93401497       0.20827162       0.63647336
C        0.56444116       0.48907896      -0.80165803
C       -0.92315730       0.59297499      -0.41759117
C       -1.53659847      -0.69395647       0.59674474
C       -0.56573818       0.29450144       1.04526603
H        0.66888136      -1.74448786      -0.47512435
H        2.24545639      -0.87947651      -0.70847651
H        1.72118308       0.66445342       1.21799596
H        1.02560277       1.17559569      -1.49710897
H       -1.46620055       1.50965953      -0.61669391
H       -1.94115518      -0.19912249      -0.60550953
H       -1.09629069      -1.62563318       0.23647492
H       -0.83443436       1.01278003       1.81067519
14
Frame=6 idx=006057 GeodesicLength=0.23744393356175691 rxn_smarts="[C:1]1([H:7])([H:8])[C@@:2]2([H:9])[C@:3]1([H:10])[C@@:4]1([H:11])[C:5]([H:12])([H:13])[C@@:6]21[H:14]>>[C:1]1([H:7])([H:8])[C@@:2]2([H:9])[C@:3]1([H:10])[C:4]([H:11])([H:12])[C@:6]2([C:5][H:13])[H:14]"
C        1.20558633      -0.80387909      -0.42194730
C        0.93478738       0.20829078       0.63687298
C        0.56500751       0.48975536      -0.80085937
C       -0.92394945       0.59086959      -0.42052039
C       -1.53305470      -0.69352342       0.59483550
C       -0.56336084       0.29330287       1.04595573
H        0.67085123      -1.74384067      -0.47699480
H        2.24733339      -0.87864281      -0.70794788
H        1.72183363       0.66427239       1.21879832
H        1.02726658       1.17735734      -1.49461555
H       -1.46096350       1.51175683      -0.61683060
H       -1.95866524      -0.19987311      -0.60595572
H       -1.09837748      -1.63023700       0.24125558
H       -0.83429483       1.01439095       1.80795350
14
Frame=7 idx=006057 GeodesicLength=0.27705541288928215 rxn_smarts="[C:1]1([H:7])([H:8])[C@@:2]2([H:9])[C@:3]1([H:10])[C@@:4]1([H:11])[C:5]([H:12])([H:13])[C@@:6]21[H:14]>>[C:1]1([H:7])([H:8])[C@@:2]2([H:9])[C@:3]1([H:10])[C:4]([H:11])([H:12])[C@:6]2([C:5][H:13])[H:14]"
C        1.20721256      -0.80310874      -0.42243269
C        0.93557269       0.20830563       0.63727430
C        0.56562212       0.49044861      -0.80006278
C       -0.92469651       0.58877656      -0.42350881
C       -1.52949816      -0.69309422       0.59279111
C       -0.56098381       0.29208117       1.04661450
H        0.67284945      -1.74317607      -0.47889723
H        2.24925057      -0.87780159      -0.70740002
H        1.72248165       0.66407849       1.21962920
H        1.02898558       1.17913507      -1.49211203
H       -1.45572539       1.51376928      -0.61705960
H       -1.97641104      -0.20053864      -0.60611332
H       -1.10047509      -1.63482178       0.24608786
H       -0.83418463       1.01594623       1.80518951
14
Frame=8 idx=006057 GeodesicLength=0.31651628646060187 rxn_smarts="[C:1]1([H:7])([H:8])[C@@:2]2([H:9])[C@:3]1([H:10])[C@@:4]1([H:11])[C:5]([H:12])([H:13])[C@@:6]21[H:14]>>[C:1]1([H:7])([H:8])[C@@:2]2([H:9])[C@:3]1([H:10])[C:4]([H:11])([H:12])[C@:6]2([C:5][H:13])[H:14]"
C        1.20884264      -0.80233402      -0.42292732
C        0.93636890       0.20830097       0.63768277
C        0.56624090       0.49116307      -0.79923717
C       -0.92545582       0.58666953      -0.42652974
C       -1.52594683      -0.69262641       0.59079370
C       -0.55859816       0.29087300       1.04727424
H        0.67487247      -1.74251485      -0.48073235
H        2.25112154      -0.87698913      -0.70687174
H        1.72316229       0.66389989       1.22047620
H        1.03070264       1.18092215      -1.48957568
H       -1.45051954       1.51575942      -0.61729504
H       -1.99414296      -0.20127355      -0.60620771
H       -1.10259707      -1.63937200       0.25075415
H       -0.83405100       1.01752193       1.80239570
14
Frame=9 idx=006057 GeodesicLength=0.3563033774613375 rxn_smarts="[C:1]1([H:7])([H:8])[C@@:2]2([H:9])[C@:3]1([H:10])[C@@:4]1([H:11])[C:5]([H:12])([H:13])[C@@:6]21[H:14]>>[C:1]1([H:7])([H:8])[C@@:2]2([H:9])[C@:3]1([H:10])[C:4]([H:11])([H:12])[C@:6]2([C:5][H:13])[H:14]"
C        1.21057573      -0.80153773      -0.42342301
C        0.93717881       0.20831950       0.63808188
C        0.56700492       0.49188740      -0.79847848
C       -0.92605119       0.58462612      -0.42967557
C       -1.52234608      -0.69225636       0.58828517
C       -0.55623753       0.28956270       1.04782879
H        0.67694037      -1.74179907      -0.48279479
H        2.25321335      -0.87609599      -0.70624540
H        1.72376207       0.66365265       1.22138033
H        1.03260643       1.18274575      -1.48707020
H       -1.44525861       1.51753306      -0.61780531
H       -2.01261802      -0.20160087      -0.60550738
H       -1.10471114      -1.64392214       0.25589924
H       -0.83405912       1.01888497       1.79952474
14
Frame=10 idx=006057 GeodesicLength=0.395936448316911 rxn_smarts="[C:1]1([H:7])([H:8])[C@@:2]2([H:9])[C@:3]1([H:10])[C@@:4]1([H:11])[C:5]([H:12])([H:13])[C@@:6]21[H:14]>>[C:1]1([H:7])([H:8])[C@@:2]2([H:9])[C@:3]1([H:10])[C:4]([H:11])([H:12])[C@:6]2([C:5][H:13])[H:14]"
C        1.21231519      -0.80073655      -0.42392703
C        0.93799908       0.20831780       0.63848714
C        0.56777435       0.49263201      -0.79769137
C       -0.92665407       0.58256847      -0.43286002
C       -1.51874944      -0.69184911       0.58582288
C       -0.55386923       0.28826438       1.04838135
H        0.67903743      -1.74108490      -0.48478999
H        2.25526101      -0.87523167      -0.70563452
H        1.72439229       0.66342074       1.22229940
H        1.03450733       1.18457572      -1.48453104
H       -1.44003204       1.51928668      -0.61831955
H       -2.03108516      -0.20199364      -0.60473124
H       -1.10685319      -1.64843828       0.26087408
H       -0.83404354       1.02026835       1.79661992
14
Frame=11 idx=006057 GeodesicLength=0.4355762661249187 rxn_smarts="[C:1]1([H:7])([H:8])[C@@:2]2([H:9])[C@:3]1([H:10])[C@@:4]1([H:11])[C:5]([H:12])([H:13])[C@@:6]21[H:14]>>[C:1]1([H:7])([H:8])[C@@:2]2([H:9])[C@:3]1([H:10])[C:4]([H:11])([H:12])[C@:6]2([C:5][H:13])[H:14]"
C        1.21409530      -0.79992479      -0.42443777
C        0.93882989       0.20831002       0.63889362
C        0.56859959       0.49339468      -0.79690899
C       -0.92720580       0.58052060      -0.43611729
C       -1.51513911      -0.69145079       0.58321110
C       -0.55150668       0.28693855       1.04889275
H        0.68117031      -1.74035412      -0.48682113
H        2.25735656      -0.87435800      -0.70499863
H        1.72501348       0.66317340       1.22325292
H        1.03647527       1.18642585      -1.48197964
H       -1.43480870       1.52095710      -0.61893823
H       -2.04980393      -0.20229534      -0.60360712
H       -1.10901144      -1.65292765       0.26589651
H       -0.83406475       1.02159048       1.79366191
14
Frame=12 idx=006057 GeodesicLength=0.4754051221977458 rxn_smarts="[C:1]1([H:7])([H:8])[C@@:2]2([H:9])[C@:3]1([H:10])[C@@:4]1([H:11])[C:5]([H:12])([H:13])[C@@:6]21[H:14]>>[C:1]1([H:7])([H:8])[C@@:2]2([H:9])[C@:3]1([H:10])[C:4]([H:11])([H:12])[C@:6]2([C:5][H:13])[H:14]"
C        1.21593173      -0.79910056      -0.42495338
C        0.93967813       0.20829319       0.63929778
C        0.56950725       0.49417569      -0.79614205
C       -0.92768058       0.57850022      -0.43945484
C       -1.51151025      -0.69106321       0.58043248
C       -0.54915112       0.28559337       1.04934175
H        0.68335263      -1.73960198      -0.48889391
H        2.25951631      -0.87348318      -0.70432327
H        1.72562638       0.66291288       1.22424993
H        1.03854317       1.18829835      -1.47942225
H       -1.42961197       1.52255510      -0.61967853
H       -2.06887541      -0.20252228      -0.60206493
H       -1.11119276      -1.65737814       0.27096342
H       -0.83413351       1.02282053       1.79064780
14
Frame=13 idx=006057 GeodesicLength=0.5151430483872039 rxn_smarts="[C:1]1([H:7])([H:8])[C@@:2]2([H:9])[C@:3]1([H:10])[C@@:4]1([H:11])[C:5]([H:12])([H:13])[C@@:6]21[H:14]>>[C:1]1([H:7])([H:8])[C@@:2]2([H:9])[C@:3]1([H:10])[C:4]([H:11])([H:12])[C@:6]2([C:5][H:13])[H:14]"
C        1.21780819      -0.79826727      -0.42547347
C        0.94053101       0.20826778       0.63969712
C        0.57046821       0.49496879      -0.79538849
C       -0.92810943       0.57649001      -0.44287750
C       -1.50786866      -0.69069115       0.57750000
C       -0.54681504       0.28422624       1.04974239
H        0.68557821      -1.73883415      -0.49099093
H        2.26172918      -0.87259616      -0.70361661
H        1.72622183       0.66265409       1.22527506
H        1.04067455       1.19018424      -1.47686007
H       -1.42440854       1.52408676      -0.62052557
H       -2.08817023      -0.20262992      -0.60014706
H       -1.11339551      -1.66179743       0.27608776
H       -0.83424378       1.02393817       1.78757738
14
Frame=14 idx=006057 GeodesicLength=0.5546113273405803 rxn_smarts="[C:1]1([H:7])([H:8])[C@@:2]2([H:9])[C@:3]1([H:10])[C@@:4]1([H:11])[C:5]([H:12])([H:13])[C@@:6]21[H:14]>>[C:1]1([H:7])([H:8])[C@@:2]2([H:9])[C@:3]1([H:10])[C:4]([H:11])([H:12])[C@:6]2([C:5][H:13])[H:14]"
C        1.21972283      -0.79741702      -0.42601356
C        0.94138282       0.20824192       0.64011580
C        0.57146041       0.49579975      -0.79460164
C       -0.92850455       0.57443780      -0.44641279
C       -1.50421605      -0.69032936       0.57435845
C       -0.54447320       0.28276688       1.05012298
H        0.68783329      -1.73804876      -0.49316165
H        2.26398294      -0.87166905      -0.70289943
H        1.72679577       0.66232257       1.22634907
H        1.04284581       1.19211312      -1.47423200
H       -1.41917319       1.52542701      -0.62150987
H       -2.10764776      -0.20258118      -0.59776894
H       -1.11562038      -1.66620857       0.28124760
H       -0.83438874       1.02514488       1.78440599
14
Frame=15 idx=006057 GeodesicLength=0.5942074764794122 rxn_smarts="[C:1]1([H:7])([H:8])[C@@:2]2([H:9])[C@:3]1([H:10])[C@@:4]1([H:11])[C:5]([H:12])([H:13])[C@@:6]21[H:14]>>[C:1]1([H:7])([H:8])[C@@:2]2([H:9])[C@:3]1([H:10])[C:4]([H:11])([H:12])[C@:6]2([C:5][H:13])[H:14]"
C        1.22168306      -0.79656102      -0.42655154
C        0.94224478       0.20820461       0.64052237
C        0.57252238       0.49663173      -0.79384668
C       -0.92883709       0.57241634      -0.45000633
C       -1.50054712      -0.68998680       0.57111837
C       -0.54215186       0.28131503       1.05043871
H        0.69013667      -1.73725090      -0.49534658
H        2.26629242      -0.87074951      -0.70214018
H        1.72735627       0.66200885       1.22744926
H        1.04510221       1.19404871      -1.47162028
H       -1.41397144       1.52676513      -0.62257270
H       -2.12738277      -0.20247549      -0.59507840
H       -1.11787003      -1.67058137       0.28643468
H       -0.83457749       1.02621469       1.78119931
14
Frame=16 idx=006057 GeodesicLength=0.6337995661374216 rxn_smarts="[C:1]1([H:7])([H:8])[C@@:2]2([H:9])[C@:3]1([H:10])[C@@:4]1([H:11])[C:5]([H:12])([H:13])[C@@:6]21[H:14]>>[C:1]1([H:7])([H:8])[C@@:2]2([H:9])[C@:3]1([H:10])[C:4]([H:11])([H:12])[C@:6]2([C:5][H:13])[H:14]"
C        1.22369308      -0.79569339      -0.42709734
C        0.94311240       0.20815791       0.64092819
C        0.57364883       0.49748191      -0.79310072
C       -0.92911053       0.57039709      -0.45369717
C       -1.49686240      -0.68966155       0.56770964
C       -0.53984518       0.27982920       1.05069665
H        0.69248913      -1.73643612      -0.49757485
H        2.26866136      -0.86981635      -0.70134562
H        1.72789577       0.66167433       1.22859195
H        1.04744009       1.19601153      -1.46898732
H       -1.40877435       1.52801923      -0.62375757
H       -2.14738550      -0.20226231      -0.59194404
H       -1.12014706      -1.67492187       0.29165991
H       -0.83481565       1.02722039       1.77791826
