17
Frame=0 idx=007054 GeodesicLength=0.0 rxn_smarts="[C:1]([C@@:2]([O:3][H:12])([C@@:4]1([H:13])[C:5]([H:14])([H:15])[C:6]([H:16])([H:17])[O:7]1)[H:11])([H:8])([H:9])[H:10]>>[C:1]([C:2](=[O:3])[C@@:4]1([H:13])[C:5]([H:14])([H:15])[C:6]([H:16])([H:17])[O:7]1)([H:8])([H:9])[H:10].[H:11][H:12]"
C       -2.08127226      -0.46241055       0.54038488
C       -0.92910128       0.33447799      -0.01282395
O       -0.73547941       1.55228225       0.46527905
C        0.30227796      -0.50717956      -0.36537474
C        1.55692767       0.28368984      -0.73525920
C        2.02467594      -0.09163389       0.67472739
O        0.88116018      -0.95150904       0.86600113
H       -2.96364923       0.16652333       0.63396140
H       -2.30182648      -1.35045165      -0.05325214
H       -1.76562766      -0.77176126       1.53937183
H       -1.37037462       0.54961272      -1.38242298
H       -1.15786562       1.33062843      -0.83546427
H        0.02406116      -1.34300607      -1.01650376
H        2.13647959      -0.16493678      -1.53909534
H        1.40164218       1.34466644      -0.91623081
H        2.01966419       0.73347786       1.38889553
H        2.95830763      -0.65247000       0.74780591
17
Frame=1 idx=007054 GeodesicLength=0.11217413516878111 rxn_smarts="[C:1]([C@@:2]([O:3][H:12])([C@@:4]1([H:13])[C:5]([H:14])([H:15])[C:6]([H:16])([H:17])[O:7]1)[H:11])([H:8])([H:9])[H:10]>>[C:1]([C:2](=[O:3])[C@@:4]1([H:13])[C:5]([H:14])([H:15])[C:6]([H:16])([H:17])[O:7]1)([H:8])([H:9])[H:10].[H:11][H:12]"
C       -2.08243015      -0.46959515       0.54653713
C       -0.93836084       0.33227529      -0.01816934
O       -0.76395843       1.55236264       0.45844454
C        0.29987604      -0.50275187      -0.35738791
C        1.55584331       0.28414434      -0.73137756
C        2.03009208      -0.09688493       0.67467078
O        0.87797673      -0.94209713       0.87628698
H       -2.97104005       0.15092194       0.63813846
H       -2.29860945      -1.36402575      -0.03913114
H       -1.76555917      -0.77260302       1.54717151
H       -1.36376743       0.56436306      -1.40822265
H       -1.14609610       1.36180692      -0.85849225
H        0.02954178      -1.34173021      -1.00806250
H        2.12933799      -0.16080688      -1.54155873
H        1.40590380       1.34671758      -0.90687593
H        2.04392490       0.72746818       1.38972776
H        2.95732500      -0.66956500       0.73830086
17
Frame=2 idx=007054 GeodesicLength=0.22412042338253402 rxn_smarts="[C:1]([C@@:2]([O:3][H:12])([C@@:4]1([H:13])[C:5]([H:14])([H:15])[C:6]([H:16])([H:17])[O:7]1)[H:11])([H:8])([H:9])[H:10]>>[C:1]([C:2](=[O:3])[C@@:4]1([H:13])[C:5]([H:14])([H:15])[C:6]([H:16])([H:17])[O:7]1)([H:8])([H:9])[H:10].[H:11][H:12]"
C       -2.08354704      -0.47718374       0.55311408
C       -0.94800197       0.32961581      -0.02369475
O       -0.79332620       1.55217439       0.45035880
C        0.29730049      -0.49820568      -0.34947162
C        1.55462493       0.28469113      -0.72745705
C        2.03528452      -0.10227610       0.67455993
O        0.87462286      -0.93242155       0.88654474
H       -2.97854881       0.13455524       0.64239678
H       -2.29495378      -1.37828195      -0.02409968
H       -1.76531264      -0.77306736       1.55554461
H       -1.35632891       0.58003927      -1.43438234
H       -1.13283183       1.39426496      -0.88158381
H        0.03496507      -1.34036791      -0.99961259
H        2.12202446      -0.15643878      -1.54397731
H        1.41011443       1.34883998      -0.89733071
H        2.06817933       0.72100455       1.39036218
H        2.95573508      -0.68694227       0.72872876
17
Frame=3 idx=007054 GeodesicLength=0.33593029380337325 rxn_smarts="[C:1]([C@@:2]([O:3][H:12])([C@@:4]1([H:13])[C:5]([H:14])([H:15])[C:6]([H:16])([H:17])[O:7]1)[H:11])([H:8])([H:9])[H:10]>>[C:1]([C:2](=[O:3])[C@@:4]1([H:13])[C:5]([H:14])([H:15])[C:6]([H:16])([H:17])[O:7]1)([H:8])([H:9])[H:10].[H:11][H:12]"
C       -2.08461734      -0.48520265       0.56014657
C       -0.95805310       0.32642716      -0.02943689
O       -0.82364551       1.55167330       0.44085682
C        0.29454163      -0.49355592      -0.34164912
C        1.55325963       0.28533078      -0.72350168
C        2.04022945      -0.10781470       0.67439047
O        0.87108171      -0.92248030       0.89675995
H       -2.98617602       0.11736563       0.64674621
H       -2.29081499      -1.39327995      -0.00804898
H       -1.76487846      -0.77308709       1.56453145
H       -1.34797661       0.59675385      -1.46089617
H       -1.11798687       1.42812951      -0.90467121
H        0.04034056      -1.33893731      -0.99117429
H        2.11453845      -0.15181712      -1.54635158
H        1.41426156       1.35103266      -0.88758502
H        2.09239232       0.71406532       1.39079323
H        2.95350359      -0.70460317       0.71909023
17
Frame=4 idx=007054 GeodesicLength=0.4477055299583904 rxn_smarts="[C:1]([C@@:2]([O:3][H:12])([C@@:4]1([H:13])[C:5]([H:14])([H:15])[C:6]([H:16])([H:17])[O:7]1)[H:11])([H:8])([H:9])[H:10]>>[C:1]([C:2](=[O:3])[C@@:4]1([H:13])[C:5]([H:14])([H:15])[C:6]([H:16])([H:17])[O:7]1)([H:8])([H:9])[H:10].[H:11][H:12]"
C       -2.08563670      -0.49368048       0.56766652
C       -0.96854637       0.32262733      -0.03544008
O       -0.85499070       1.55080228       0.42974729
C        0.29158818      -0.48882086      -0.33394484
C        1.55173228       0.28606277      -0.71951705
C        2.04490217      -0.11350853       0.67415573
O        0.86733467      -0.91227062       0.90691719
H       -2.99392399       0.09928530       0.65118926
H       -2.28613907      -1.40908578       0.00914985
H       -1.76425333      -0.77257886       1.57417267
H       -1.33861152       0.61463049      -1.48775625
H       -1.10146835       1.46355280      -0.92765679
H        0.04568057      -1.33746166      -0.98276451
H        2.10687767      -0.14692659      -1.54868413
H        1.41833076       1.35329381      -0.87762974
H        2.11652873       0.70662888       1.39101258
H        2.95059500      -0.72255027       0.70938228
17
Frame=5 idx=007054 GeodesicLength=0.559451840886647 rxn_smarts="[C:1]([C@@:2]([O:3][H:12])([C@@:4]1([H:13])[C:5]([H:14])([H:15])[C:6]([H:16])([H:17])[O:7]1)[H:11])([H:8])([H:9])[H:10]>>[C:1]([C:2](=[O:3])[C@@:4]1([H:13])[C:5]([H:14])([H:15])[C:6]([H:16])([H:17])[O:7]1)([H:8])([H:9])[H:10].[H:11][H:12]"
C       -2.08659404      -0.50263782       0.57570383
C       -0.97950888       0.31813303      -0.04176009
O       -0.88743062       1.54948482       0.41681590
C        0.28842776      -0.48401896      -0.32638771
C        1.55002875       0.28688530      -0.71551063
C        2.04927027      -0.11936416       0.67384827
O        0.86336324      -0.90179072       0.91699810
H       -3.00179058       0.08026402       0.65573171
H       -2.28086695      -1.42576273       0.02762678
H       -1.76342413      -0.77145115       1.58451107
H       -1.32811911       0.63379906      -1.51494979
H       -1.08321775       1.50067007      -0.95040419
H        0.05099793      -1.33596728      -0.97440862
H        2.09904595      -0.14175434      -1.55097584
H        1.42230612       1.35561774      -0.86745878
H        2.14054415       0.69867068       1.39101076
H        2.94696789      -0.74077756       0.69960923
17
Frame=6 idx=007054 GeodesicLength=0.671259875512549 rxn_smarts="[C:1]([C@@:2]([O:3][H:12])([C@@:4]1([H:13])[C:5]([H:14])([H:15])[C:6]([H:16])([H:17])[O:7]1)[H:11])([H:8])([H:9])[H:10]>>[C:1]([C:2](=[O:3])[C@@:4]1([H:13])[C:5]([H:14])([H:15])[C:6]([H:16])([H:17])[O:7]1)([H:8])([H:9])[H:10].[H:11][H:12]"
C       -2.08748565      -0.51210832       0.58429306
C       -0.99098094       0.31282715      -0.04846753
O       -0.92103872       1.54763252       0.40181774
C        0.28504995      -0.47918671      -0.31901417
C        1.54813043       0.28778855      -0.71149837
C        2.05330273      -0.12538254       0.67346010
O        0.85914549      -0.89104225       0.92698015
H       -3.00977384       0.06022124       0.66037130
H       -2.27493656      -1.44337922       0.04754715
H       -1.76239219      -0.76958544       1.59558031
H       -1.31635298       0.65442723      -1.54245435
H       -1.06315468       1.53968466      -0.97272620
H        0.05631076      -1.33450212      -0.96612616
H        2.09104578      -0.13629819      -1.55323212
H        1.42616376       1.35799124      -0.85708121
H        2.16438039       0.69018452       1.39077426
H        2.94258627      -0.75927232       0.68977603
17
Frame=7 idx=007054 GeodesicLength=0.7831851054877982 rxn_smarts="[C:1]([C@@:2]([O:3][H:12])([C@@:4]1([H:13])[C:5]([H:14])([H:15])[C:6]([H:16])([H:17])[O:7]1)[H:11])([H:8])([H:9])[H:10]>>[C:1]([C:2](=[O:3])[C@@:4]1([H:13])[C:5]([H:14])([H:15])[C:6]([H:16])([H:17])[O:7]1)([H:8])([H:9])[H:10].[H:11][H:12]"
C       -2.08830240      -0.52211715       0.59346906
C       -1.00299558       0.30658471      -0.05564096
O       -0.95588189       1.54513960       0.38447621
C        0.28144197      -0.47436553      -0.31186325
C        1.54601706       0.28875800      -0.70749857
C        2.05696066      -0.13156363       0.67298040
O        0.85466017      -0.88002864       0.93683943
H       -3.01786851       0.03908978       0.66510173
H       -2.26827864      -1.46199665       0.06908276
H       -1.76115109      -0.76685558       1.60741431
H       -1.30314638       0.67668920      -1.57024912
H       -1.04123871       1.58080308      -0.99438373
H        0.06164174      -1.33312052      -0.95793964
H        2.08288237      -0.13056207      -1.55545877
H        1.42987559       1.36039331      -0.84651115
H        2.18797141       0.68116197       1.39028759
H        2.93741226      -0.77800988       0.67989369
17
Frame=8 idx=007054 GeodesicLength=0.8952803880040745 rxn_smarts="[C:1]([C@@:2]([O:3][H:12])([C@@:4]1([H:13])[C:5]([H:14])([H:15])[C:6]([H:16])([H:17])[O:7]1)[H:11])([H:8])([H:9])[H:10]>>[C:1]([C:2](=[O:3])[C@@:4]1([H:13])[C:5]([H:14])([H:15])[C:6]([H:16])([H:17])[O:7]1)([H:8])([H:9])[H:10].[H:11][H:12]"
C       -2.08903074      -0.53268939       0.60326415
C       -1.01559206       0.29925740      -0.06338712
O       -0.99204210       1.54186368       0.36444805
C        0.27758766      -0.46961092      -0.30498628
C        1.54366535       0.28976678      -0.70353994
C        2.06019800      -0.13790439       0.67240050
O        0.84987895      -0.86875664       0.94654596
H       -3.02606344       0.01678968       0.66992637
H       -2.26079442      -1.48168376       0.09243455
H       -1.75969096      -0.76308752       1.62004052
H       -1.28827796       0.70080380      -1.59830626
H       -1.01746119       1.62427968      -1.01503168
H        0.06701450      -1.33189687      -0.94988067
H        2.07456471      -0.12457111      -1.55766483
H        1.43340741       1.36279192      -0.83578604
H        2.21122850       0.67160917       1.38953555
H        2.93140779      -0.79696151       0.66998716
17
Frame=9 idx=007054 GeodesicLength=1.0068108931950785 rxn_smarts="[C:1]([C@@:2]([O:3][H:12])([C@@:4]1([H:13])[C:5]([H:14])([H:15])[C:6]([H:16])([H:17])[O:7]1)[H:11])([H:8])([H:9])[H:10]>>[C:1]([C:2](=[O:3])[C@@:4]1([H:13])[C:5]([H:14])([H:15])[C:6]([H:16])([H:17])[O:7]1)([H:8])([H:9])[H:10].[H:11][H:12]"
C       -2.08960804      -0.54370727       0.61365070
C       -1.02887690       0.29081754      -0.07203375
O       -1.02947885       1.53739757       0.34175805
C        0.27344020      -0.46491406      -0.29850844
C        1.54105521       0.29084914      -0.69965773
C        2.06290598      -0.14439253       0.67169942
O        0.84470037      -0.85726473       0.95596087
H       -3.03432617      -0.00674777       0.67482813
H       -2.25230713      -1.50230704       0.11794710
H       -1.75798759      -0.75786410       1.63327956
H       -1.27160381       0.72649417      -1.62654287
H       -0.99167603       1.67005977      -1.03416856
H        0.07242236      -1.33082268      -0.94205102
H        2.06612952      -0.11825973      -1.55986078
H        1.43674440       1.36522050      -0.82489902
H        2.23398851       0.66150434       1.38853471
H        2.92447796      -0.81606314       0.66006363
17
Frame=10 idx=007054 GeodesicLength=1.1182895502176884 rxn_smarts="[C:1]([C@@:2]([O:3][H:12])([C@@:4]1([H:13])[C:5]([H:14])([H:15])[C:6]([H:16])([H:17])[O:7]1)[H:11])([H:8])([H:9])[H:10]>>[C:1]([C:2](=[O:3])[C@@:4]1([H:13])[C:5]([H:14])([H:15])[C:6]([H:16])([H:17])[O:7]1)([H:8])([H:9])[H:10].[H:11][H:12]"
C       -2.09006187      -0.55524335       0.62466407
C       -1.04282177       0.28095794      -0.08157498
O       -1.06825111       1.53172131       0.31578584
C        0.26902224      -0.46042312      -0.29243938
C        1.53816134       0.29191339      -0.69590220
C        2.06508828      -0.15099904       0.67086839
O        0.83916284      -0.84553568       0.96513142
H       -3.04263984      -0.03153435       0.67978925
H       -2.24281661      -1.52396989       0.14570566
H       -1.75608101      -0.75114037       1.64723067
H       -1.25275644       0.75431021      -1.65496603
H       -0.96418531       1.71854727      -1.05122969
H        0.07794826      -1.33010091      -0.93440466
H        2.05758209      -0.11175248      -1.56206715
H        1.43980656       1.36757147      -0.81397986
H        2.25619111       0.65093722       1.38721739
H        2.91665123      -0.83525961       0.65017126
17
Frame=11 idx=007054 GeodesicLength=1.2297214428416656 rxn_smarts="[C:1]([C@@:2]([O:3][H:12])([C@@:4]1([H:13])[C:5]([H:14])([H:15])[C:6]([H:16])([H:17])[O:7]1)[H:11])([H:8])([H:9])[H:10]>>[C:1]([C:2](=[O:3])[C@@:4]1([H:13])[C:5]([H:14])([H:15])[C:6]([H:16])([H:17])[O:7]1)([H:8])([H:9])[H:10].[H:11][H:12]"
C       -2.09037098      -0.56724949       0.63630404
C       -1.05745184       0.26948474      -0.09218573
O       -1.10832354       1.52456338       0.28619280
C        0.26432309      -0.45623174      -0.28685209
C        1.53495547       0.29291971      -0.69232196
C        2.06668654      -0.15769747       0.66988743
O        0.83323894      -0.83359345       0.97400468
H       -3.05096606      -0.05757132       0.68479736
H       -2.23223951      -1.54661991       0.17594469
H       -1.75397508      -0.74266828       1.66183684
H       -1.23140628       0.78438109      -1.68355660
H       -0.93519037       1.76995553      -1.06557787
H        0.08364222      -1.32985869      -0.92696674
H        2.04894640      -0.10509210      -1.56430235
H        1.44252515       1.36979286      -0.80310252
H        2.27769986       0.63995572       1.38555404
H        2.90790602      -0.85447058       0.64034396
17
Frame=12 idx=007054 GeodesicLength=1.3410674117052714 rxn_smarts="[C:1]([C@@:2]([O:3][H:12])([C@@:4]1([H:13])[C:5]([H:14])([H:15])[C:6]([H:16])([H:17])[O:7]1)[H:11])([H:8])([H:9])[H:10]>>[C:1]([C:2](=[O:3])[C@@:4]1([H:13])[C:5]([H:14])([H:15])[C:6]([H:16])([H:17])[O:7]1)([H:8])([H:9])[H:10].[H:11][H:12]"
C       -2.09050320      -0.57965130       0.64855570
C       -1.07278221       0.25617620      -0.10407698
O       -1.14961584       1.51560768       0.25261323
C        0.25933607      -0.45245839      -0.28183403
C        1.53140949       0.29380915      -0.68898195
C        2.06764248      -0.16444973       0.66873843
O        0.82690153      -0.82147116       0.98251492
H       -3.05924962      -0.08483260       0.68983515
H       -2.22048571      -1.57012413       0.20890497
H       -1.75168203      -0.73214595       1.67696241
H       -1.20718319       0.81681640      -1.71227427
H       -0.90502050       1.82446661      -1.07636971
H        0.08956608      -1.33024976      -0.91976302
H        2.04025586      -0.09835608      -1.56659019
H        1.44481827       1.37181301      -0.79238324
H        2.29835250       0.62864340       1.38351202
H        2.89824000      -0.87359334       0.63063655
17
Frame=13 idx=007054 GeodesicLength=1.4516274007396173 rxn_smarts="[C:1]([C@@:2]([O:3][H:12])([C@@:4]1([H:13])[C:5]([H:14])([H:15])[C:6]([H:16])([H:17])[O:7]1)[H:11])([H:8])([H:9])[H:10]>>[C:1]([C:2](=[O:3])[C@@:4]1([H:13])[C:5]([H:14])([H:15])[C:6]([H:16])([H:17])[O:7]1)([H:8])([H:9])[H:10].[H:11][H:12]"
C       -2.09041119      -0.59223823       0.66128876
C       -1.08881994       0.24086641      -0.11755415
O       -1.19196349       1.50442848       0.21487415
C        0.25406579      -0.44918794      -0.27751229
C        1.52752682       0.29455384      -0.68596678
C        2.06789411      -0.17120422       0.66739514
O        0.82010491      -0.80920338       0.99054954
H       -3.06741882      -0.11319751       0.69481470
H       -2.20743686      -1.59418198       0.24481358
H       -1.74924674      -0.71908849       1.69231392
H       -1.17981581       0.85143860      -1.74093635
H       -0.87412478       1.88181713      -1.08247113
H        0.09578461      -1.33138235      -0.91285541
H        2.03158203      -0.09158785      -1.56897359
H        1.44663496       1.37359894      -0.78195032
H        2.31799562       0.61708397       1.38107617
H        2.88764878      -0.89251542       0.62109406
17
Frame=14 idx=007054 GeodesicLength=1.5621086592372857 rxn_smarts="[C:1]([C@@:2]([O:3][H:12])([C@@:4]1([H:13])[C:5]([H:14])([H:15])[C:6]([H:16])([H:17])[O:7]1)[H:11])([H:8])([H:9])[H:10]>>[C:1]([C:2](=[O:3])[C@@:4]1([H:13])[C:5]([H:14])([H:15])[C:6]([H:16])([H:17])[O:7]1)([H:8])([H:9])[H:10].[H:11][H:12]"
C       -2.09009241      -0.60494325       0.67450759
C       -1.10552701       0.22319049      -0.13279681
O       -1.23518539       1.49074819       0.17235851
C        0.24852585      -0.44663941      -0.27397105
C        1.52326868       0.29502192      -0.68337729
C        2.06740280      -0.17788860       0.66583982
O        0.81286271      -0.79683719       0.99806853
H       -3.07540472      -0.14254722       0.69972978
H       -2.19311202      -1.61868531       0.28386784
H       -1.74668604      -0.70326848       1.70782245
H       -1.14877034       0.88857815      -1.76956315
H       -0.84311315       1.94240347      -1.08273042
H        0.10240153      -1.33354716      -0.90623061
H        2.02296369      -0.08498362      -1.57149107
H        1.44784041       1.37500229      -0.77202943
H        2.33642568       0.60547007       1.37817554
H        2.87619972      -0.91107434       0.61181977
17
Frame=15 idx=007054 GeodesicLength=1.6724942543970696 rxn_smarts="[C:1]([C@@:2]([O:3][H:12])([C@@:4]1([H:13])[C:5]([H:14])([H:15])[C:6]([H:16])([H:17])[O:7]1)[H:11])([H:8])([H:9])[H:10]>>[C:1]([C:2](=[O:3])[C@@:4]1([H:13])[C:5]([H:14])([H:15])[C:6]([H:16])([H:17])[O:7]1)([H:8])([H:9])[H:10].[H:11][H:12]"
C       -2.08950751      -0.61753325       0.68808996
C       -1.12282384       0.20288058      -0.15005463
O       -1.27893941       1.47414810       0.12473822
C        0.24274483      -0.44499403      -0.27132992
C        1.51862118       0.29511757      -0.68132151
C        2.06612473      -0.18441587       0.66404794
O        0.80517868      -0.78445031       1.00496738
H       -3.08309345      -0.17259988       0.70452589
H       -2.17752683      -1.64324392       0.32619465
H       -1.74402263      -0.68430466       1.72317748
H       -1.11367759       0.92815139      -1.79801774
H       -0.81278063       2.00607345      -1.07575663
H        0.10951807      -1.33696675      -0.89991432
H        2.01446949      -0.07869390      -1.57418502
H        1.44830982       1.37591471      -0.76284461
H        2.35342563       0.59399538       1.37477239
H        2.86397946      -0.92907858       0.60291048
17
Frame=16 idx=007054 GeodesicLength=1.7826551923275165 rxn_smarts="[C:1]([C@@:2]([O:3][H:12])([C@@:4]1([H:13])[C:5]([H:14])([H:15])[C:6]([H:16])([H:17])[O:7]1)[H:11])([H:8])([H:9])[H:10]>>[C:1]([C:2](=[O:3])[C@@:4]1([H:13])[C:5]([H:14])([H:15])[C:6]([H:16])([H:17])[O:7]1)([H:8])([H:9])[H:10].[H:11][H:12]"
C       -2.08862674      -0.62969835       0.70186534
C       -1.14057186       0.17965591      -0.16959072
O       -1.32277386       1.45420118       0.07163250
C        0.23678959      -0.44445823      -0.26973478
C        1.51361201       0.29472333      -0.67993899
C        2.06404073      -0.19068600       0.66199823
O        0.79707977      -0.77215267       1.01111547
H       -3.09035683      -0.20295934       0.70911153
H       -2.16075559      -1.66734958       0.37189921
H       -1.74131670      -0.66175097       1.73798729
H       -1.07419395       0.97007364      -1.82605572
H       -0.78424883       2.07239325      -1.05986413
H        0.11725892      -1.34188297      -0.89395017
H        2.00621746      -0.07291625      -1.57712027
H        1.44794938       1.37621621      -0.75468459
H        2.36876707       0.58290104       1.37083679
H        2.85112943      -0.94631018       0.59449300
