14
Frame=0 idx=001391 GeodesicLength=0.0 rxn_smarts="[C:1]([C@@:2]1([H:10])[C@@:3]2([H:11])[C:4]([H:12])([H:13])[C@:5]1([H:14])[O:6]2)([H:7])([H:8])[H:9]>>[C:1]([C:2]([C@:5]1([H:14])[C:4]([H:12])([H:13])[C-:3]=[O+:6]1)([H:10])[H:11])([H:7])([H:8])[H:9]"
C       -1.66920855       0.32920030       0.11902538
C       -0.51364599      -0.51612703      -0.31987318
C        1.26326697       0.06812358      -1.09726933
C        1.32746326       0.69321577       0.31215047
C        0.74081323      -0.68853941       0.53375170
O        1.57267055      -1.21032481      -0.53935262
H       -1.35809564       1.31302813       0.47192809
H       -2.39427425       0.46411993      -0.68429419
H       -2.18712962      -0.16303871       0.95022749
H       -0.78956662      -1.44437207      -0.82303034
H        0.17555426       0.03818260      -1.55830644
H        0.73039642       1.57371048       0.53740037
H        2.36133929       0.81218346       0.62938154
H        0.74041664      -1.26936227       1.46826110
14
Frame=1 idx=001391 GeodesicLength=0.06491821126628051 rxn_smarts="[C:1]([C@@:2]1([H:10])[C@@:3]2([H:11])[C:4]([H:12])([H:13])[C@:5]1([H:14])[O:6]2)([H:7])([H:8])[H:9]>>[C:1]([C:2]([C@:5]1([H:14])[C:4]([H:12])([H:13])[C-:3]=[O+:6]1)([H:10])[H:11])([H:7])([H:8])[H:9]"
C       -1.67024136       0.32725048       0.12074755
C       -0.51334289      -0.51307402      -0.32830001
C        1.27258699       0.06727231      -1.09558571
C        1.33273982       0.69288346       0.31309031
C        0.73661889      -0.68639440       0.53226802
O        1.57515215      -1.20983792      -0.53633837
H       -1.36048181       1.31118502       0.47466374
H       -2.39951262       0.46249051      -0.67872659
H       -2.18344844      -0.16837506       0.95256706
H       -0.79314356      -1.44661864      -0.81953264
H        0.16895643       0.04053405      -1.57021011
H        0.73796087       1.57770719       0.52771765
H        2.36328280       0.81106492       0.64124659
H        0.73287273      -1.26608790       1.46639251
14
Frame=2 idx=001391 GeodesicLength=0.1298217987295332 rxn_smarts="[C:1]([C@@:2]1([H:10])[C@@:3]2([H:11])[C:4]([H:12])([H:13])[C@:5]1([H:14])[O:6]2)([H:7])([H:8])[H:9]>>[C:1]([C:2]([C@:5]1([H:14])[C:4]([H:12])([H:13])[C-:3]=[O+:6]1)([H:10])[H:11])([H:7])([H:8])[H:9]"
C       -1.67121295       0.32527962       0.12244065
C       -0.51300939      -0.51000675      -0.33674129
C        1.28201668       0.06641328      -1.09381537
C        1.33802139       0.69253877       0.31409576
C        0.73244556      -0.68421698       0.53073463
O        1.57761683      -1.20937375      -0.53331078
H       -1.36283770       1.30934135       0.47733118
H       -2.40468333       0.46078128      -0.67316340
H       -2.17970295      -0.17368611       0.95486589
H       -0.79671631      -1.44873990      -0.81590937
H        0.16196276       0.04285849      -1.58231369
H        0.74564205       1.58161804       0.51808758
H        2.36507964       0.80998293       0.65323693
H        0.72537772      -1.26279027       1.46446128
14
Frame=3 idx=001391 GeodesicLength=0.19468576744238553 rxn_smarts="[C:1]([C@@:2]1([H:10])[C@@:3]2([H:11])[C:4]([H:12])([H:13])[C@:5]1([H:14])[O:6]2)([H:7])([H:8])[H:9]>>[C:1]([C:2]([C@:5]1([H:14])[C:4]([H:12])([H:13])[C-:3]=[O+:6]1)([H:10])[H:11])([H:7])([H:8])[H:9]"
C       -1.67212215       0.32328894       0.12410238
C       -0.51264469      -0.50693203      -0.34518696
C        1.29155390       0.06554597      -1.09195404
C        1.34330749       0.69218109       0.31516979
C        0.72829873      -0.68200964       0.52915492
O        1.58006655      -1.20893221      -0.53027017
H       -1.36516187       1.30749801       0.47992876
H       -2.40977452       0.45899866      -0.66761587
H       -2.17590238      -0.17896570       0.95711870
H       -0.80027921      -1.45073178      -0.81216731
H        0.15454597       0.04514931      -1.59461721
H        0.75343795       1.58543815       0.50852542
H        2.36672990       0.80894444       0.66534114
H        0.71794433      -1.25947323       1.46247045
14
Frame=4 idx=001391 GeodesicLength=0.2594699295122452 rxn_smarts="[C:1]([C@@:2]1([H:10])[C@@:3]2([H:11])[C:4]([H:12])([H:13])[C@:5]1([H:14])[O:6]2)([H:7])([H:8])[H:9]>>[C:1]([C:2]([C@:5]1([H:14])[C:4]([H:12])([H:13])[C-:3]=[O+:6]1)([H:10])[H:11])([H:7])([H:8])[H:9]"
C       -1.67296823       0.32127983       0.12573061
C       -0.51224826      -0.50385681      -0.35362673
C        1.30119514       0.06467078      -1.08999800
C        1.34859785       0.69181028       0.31631535
C        0.72418390      -0.67977510       0.52753260
O        1.58250335      -1.20851300      -0.52721686
H       -1.36745307       1.30565576       0.48245547
H       -2.41477455       0.45714991      -0.66209547
H       -2.17205661      -0.18420794       0.95932029
H       -0.80382724      -1.45259105      -0.80831491
H        0.14668139       0.04739815      -1.60711936
H        0.76134651       1.58916370       0.49904674
H        2.36823482       0.80795660       0.67754671
H        0.71058501      -1.25614110       1.46042357
14
Frame=5 idx=001391 GeodesicLength=0.32443784655118224 rxn_smarts="[C:1]([C@@:2]1([H:10])[C@@:3]2([H:11])[C:4]([H:12])([H:13])[C@:5]1([H:14])[O:6]2)([H:7])([H:8])[H:9]>>[C:1]([C:2]([C@:5]1([H:14])[C:4]([H:12])([H:13])[C-:3]=[O+:6]1)([H:10])[H:11])([H:7])([H:8])[H:9]"
C       -1.67374507       0.31925413       0.12732197
C       -0.51180845      -0.50077397      -0.36206917
C        1.31097888       0.06378599      -1.08793175
C        1.35389637       0.69142576       0.31754307
C        0.72010552      -0.67751136       0.52586680
O        1.58493412      -1.20811983      -0.52414643
H       -1.36970919       1.30381894       0.48490623
H       -2.41968117       0.45523521      -0.65660343
H       -2.16815829      -0.18941115       0.96146964
H       -0.80734548      -1.45431218      -0.80435280
H        0.13827295       0.04959186      -1.61984812
H        0.76936581       1.59279337       0.48965504
H        2.36959476       0.80701771       0.68987101
H        0.70329924      -1.25279447       1.45831794
14
Frame=6 idx=001391 GeodesicLength=0.3891761230763683 rxn_smarts="[C:1]([C@@:2]1([H:10])[C@@:3]2([H:11])[C:4]([H:12])([H:13])[C@:5]1([H:14])[O:6]2)([H:7])([H:8])[H:9]>>[C:1]([C:2]([C@:5]1([H:14])[C:4]([H:12])([H:13])[C-:3]=[O+:6]1)([H:10])[H:11])([H:7])([H:8])[H:9]"
C       -1.67445796       0.31721026       0.12887932
C       -0.51133662      -0.49769832      -0.37049435
C        1.32086179       0.06288874      -1.08576536
C        1.35920069       0.69102817       0.31884489
C        0.71606363      -0.67522319       0.52416431
O        1.58735387      -1.20775162      -0.52105778
H       -1.37193187       1.30198194       0.48728699
H       -2.42448986       0.45325613      -0.65114400
H       -2.16421936      -0.19457142       0.96356794
H       -0.81083795      -1.45589169      -0.80031034
H        0.12938979       0.05174021      -1.63277298
H        0.77750286       1.59632987       0.48034996
H        2.37080863       0.80613622       0.70228747
H        0.69609236      -1.24943530       1.45616391
14
Frame=7 idx=001391 GeodesicLength=0.4540132850915166 rxn_smarts="[C:1]([C@@:2]1([H:10])[C@@:3]2([H:11])[C:4]([H:12])([H:13])[C@:5]1([H:14])[O:6]2)([H:7])([H:8])[H:9]>>[C:1]([C:2]([C@:5]1([H:14])[C:4]([H:12])([H:13])[C-:3]=[O+:6]1)([H:10])[H:11])([H:7])([H:8])[H:9]"
C       -1.67509905       0.31515106       0.13039833
C       -0.51081730      -0.49461866      -0.37891599
C        1.33089180       0.06197879      -1.08347868
C        1.36451554       0.69061515       0.32023437
C        0.71206426      -0.67290593       0.52242249
O        1.58977337      -1.20741010      -0.51794626
H       -1.37411876       1.30015116       0.48959118
H       -2.42920029       0.45121122      -0.64571773
H       -2.16022898      -0.19968932       0.96561358
H       -0.81428955      -1.45731824      -0.79618209
H        0.11991416       0.05382082      -1.64593248
H        0.78575525       1.59977060       0.47113528
H        2.37187544       0.80530490       0.71482280
H        0.68896412      -1.24606143       1.45395518
14
Frame=8 idx=001391 GeodesicLength=0.5188360633411977 rxn_smarts="[C:1]([C@@:2]1([H:10])[C@@:3]2([H:11])[C:4]([H:12])([H:13])[C@:5]1([H:14])[O:6]2)([H:7])([H:8])[H:9]>>[C:1]([C:2]([C@:5]1([H:14])[C:4]([H:12])([H:13])[C-:3]=[O+:6]1)([H:10])[H:11])([H:7])([H:8])[H:9]"
C       -1.67566820       0.31307735       0.13187923
C       -0.51025097      -0.49153967      -0.38732758
C        1.34106397       0.06105410      -1.08107137
C        1.36984245       0.69018883       0.32171260
C        0.70810937      -0.67056341       0.52064507
O        1.59219307      -1.20709844      -0.51480938
H       -1.37626806       1.29832718       0.49181923
H       -2.43380872       0.44910332      -0.64032727
H       -2.15619157      -0.20476212       0.96760613
H       -0.81769494      -1.45859258      -0.79198831
H        0.10983478       0.05583136      -1.65932237
H        0.79412675       1.60311820       0.46201568
H        2.37279645       0.80453271       0.72746980
H        0.68191563      -1.24267682       1.45169855
14
Frame=9 idx=001391 GeodesicLength=0.583756517253479 rxn_smarts="[C:1]([C@@:2]1([H:10])[C@@:3]2([H:11])[C:4]([H:12])([H:13])[C@:5]1([H:14])[O:6]2)([H:7])([H:8])[H:9]>>[C:1]([C:2]([C@:5]1([H:14])[C:4]([H:12])([H:13])[C-:3]=[O+:6]1)([H:10])[H:11])([H:7])([H:8])[H:9]"
C       -1.67616047       0.31099121       0.13332001
C       -0.50962796      -0.48845324      -0.39573821
C        1.35140639       0.06011641      -1.07853208
C        1.37518571       0.68975040       0.32328813
C        0.70420195      -0.66819310       0.51883016
O        1.59462039      -1.20681822      -0.51164271
H       -1.37837919       1.29651276       0.49396935
H       -2.43831583       0.44693122      -0.63496918
H       -2.15209844      -0.20979050       0.96954556
H       -0.82104419      -1.45970579      -0.78773983
H        0.09907775       0.05774736      -1.67295887
H        0.80262191       1.60637621       0.45298851
H        2.37356934       0.80381594       0.74024815
H        0.67494264      -1.23928066       1.44939101
14
Frame=10 idx=001391 GeodesicLength=0.6485848448386956 rxn_smarts="[C:1]([C@@:2]1([H:10])[C@@:3]2([H:11])[C:4]([H:12])([H:13])[C@:5]1([H:14])[O:6]2)([H:7])([H:8])[H:9]>>[C:1]([C:2]([C@:5]1([H:14])[C:4]([H:12])([H:13])[C-:3]=[O+:6]1)([H:10])[H:11])([H:7])([H:8])[H:9]"
C       -1.67657644       0.30889090       0.13472137
C       -0.50895138      -0.48536160      -0.40414305
C        1.36190572       0.05915720      -1.07585775
C        1.38054694       0.68929672       0.32495761
C        0.70034045      -0.66579405       0.51698065
O        1.59705247      -1.20657003      -0.50843814
H       -1.38045109       1.29470526       0.49603847
H       -2.44273018       0.44468195      -0.62963668
H       -2.14794285      -0.21477067       0.97143841
H       -0.82433346      -1.46065004      -0.78345920
H        0.08766106       0.05958368      -1.68684039
H        0.81124807       1.60954329       0.44404985
H        2.37419149       0.80315515       0.75315256
H        0.66803921      -1.23586777       1.44703627
14
Frame=11 idx=001391 GeodesicLength=0.7133846595635531 rxn_smarts="[C:1]([C@@:2]1([H:10])[C@@:3]2([H:11])[C:4]([H:12])([H:13])[C@:5]1([H:14])[O:6]2)([H:7])([H:8])[H:9]>>[C:1]([C:2]([C@:5]1([H:14])[C:4]([H:12])([H:13])[C-:3]=[O+:6]1)([H:10])[H:11])([H:7])([H:8])[H:9]"
C       -1.67691246       0.30677957       0.13608308
C       -0.50821253      -0.48225635      -0.41255404
C        1.37258613       0.05817593      -1.07304321
C        1.38593129       0.68882983       0.32672889
C        0.69652767      -0.66336541       0.51509507
O        1.59949703      -1.20635977      -0.50519409
H       -1.38248603       1.29291424       0.49802250
H       -2.44706041       0.44234537      -0.62432266
H       -2.14371066      -0.21970377       0.97329271
H       -0.82755332      -1.46141894      -0.77916034
H        0.07552340       0.06132517      -1.70098655
H        0.82001560       1.61262938       0.43518883
H        2.37465658       0.80254420       0.76621485
H        0.66119771      -1.23243945       1.44463497
14
Frame=12 idx=001391 GeodesicLength=0.7781635296681286 rxn_smarts="[C:1]([C@@:2]1([H:10])[C@@:3]2([H:11])[C:4]([H:12])([H:13])[C@:5]1([H:14])[O:6]2)([H:7])([H:8])[H:9]>>[C:1]([C:2]([C@:5]1([H:14])[C:4]([H:12])([H:13])[C-:3]=[O+:6]1)([H:10])[H:11])([H:7])([H:8])[H:9]"
C       -1.67716380       0.30465634       0.13740412
C       -0.50740326      -0.47912844      -0.42097700
C        1.38346808       0.05716533      -1.07007570
C        1.39134389       0.68834721       0.32860379
C        0.69276224      -0.66090127       0.51317150
O        1.60195650      -1.20618751      -0.50189867
H       -1.38448237       1.29113573       0.49991958
H       -2.45131038       0.43990879      -0.61901622
H       -2.13939121      -0.22459218       0.97510799
H       -0.83069205      -1.46199852      -0.77485391
H        0.06261693       0.06297452      -1.71540333
H        0.82893495       1.61562936       0.42639065
H        2.37495844       0.80197917       0.77944657
H        0.65440203      -1.22898851       1.44218063
14
Frame=13 idx=001391 GeodesicLength=0.8429383006214461 rxn_smarts="[C:1]([C@@:2]1([H:10])[C@@:3]2([H:11])[C:4]([H:12])([H:13])[C@:5]1([H:14])[O:6]2)([H:7])([H:8])[H:9]>>[C:1]([C:2]([C@:5]1([H:14])[C:4]([H:12])([H:13])[C-:3]=[O+:6]1)([H:10])[H:11])([H:7])([H:8])[H:9]"
C       -1.67732679       0.30252465       0.13868312
C       -0.50651754      -0.47597367      -0.42941788
C        1.39456499       0.05612639      -1.06694783
C        1.39678776       0.68785231       0.33059178
C        0.68904994      -0.65840351       0.51121124
O        1.60443868      -1.20605801      -0.49854937
H       -1.38643748       1.28937524       0.50173307
H       -2.45547782       0.43738258      -0.61372026
H       -2.13498007      -0.22943845       0.97688173
H       -0.83374228      -1.46238865      -0.77055792
H        0.04887758       0.06450244      -1.73010999
H        0.83801152       1.61855314       0.41766019
H        2.37509419       0.80146423       0.79286401
H        0.64765733      -1.22551868       1.43967811
14
Frame=14 idx=001391 GeodesicLength=0.9077048085394839 rxn_smarts="[C:1]([C@@:2]1([H:10])[C@@:3]2([H:11])[C:4]([H:12])([H:13])[C@:5]1([H:14])[O:6]2)([H:7])([H:8])[H:9]>>[C:1]([C:2]([C@:5]1([H:14])[C:4]([H:12])([H:13])[C-:3]=[O+:6]1)([H:10])[H:11])([H:7])([H:8])[H:9]"
C       -1.67739495       0.30038487       0.13991890
C       -0.50554759      -0.47278577      -0.43787990
C        1.40589233       0.05506002      -1.06364629
C        1.40226465       0.68734494       0.33269951
C        0.68539207      -0.65586980       0.50921266
O        1.60694832      -1.20596777      -0.49513965
H       -1.38834569       1.28763017       0.50346420
H       -2.45955394       0.43477254      -0.60843300
H       -2.13047294      -0.23424617       0.97860838
H       -0.83669486      -1.46258007      -0.76628434
H        0.03424451       0.06588467      -1.74511657
H        0.84725220       1.62139829       0.40899693
H        2.37505671       0.80100073       0.80647542
H        0.64095920      -1.22202664       1.43712374
14
Frame=15 idx=001391 GeodesicLength=0.9724707953531277 rxn_smarts="[C:1]([C@@:2]1([H:10])[C@@:3]2([H:11])[C:4]([H:12])([H:13])[C@:5]1([H:14])[O:6]2)([H:7])([H:8])[H:9]>>[C:1]([C:2]([C@:5]1([H:14])[C:4]([H:12])([H:13])[C-:3]=[O+:6]1)([H:10])[H:11])([H:7])([H:8])[H:9]"
C       -1.67736471       0.29823848       0.14111060
C       -0.50448443      -0.46955529      -0.44637313
C        1.41747285       0.05395821      -1.06016173
C        1.40778211       0.68682573       0.33493276
C        0.68179098      -0.65329743       0.50717564
O        1.60949181      -1.20592447      -0.49166075
H       -1.39020756       1.28590384       0.50511434
H       -2.46354431       0.43207009      -0.60314908
H       -2.12586088      -0.23901843       0.98028900
H       -0.83953735      -1.46256422      -0.76205496
H        0.01864974       0.06711394      -1.76043435
H        0.85667145       1.62416999       0.40038950
H        2.37484072       0.80058819       0.82030306
H        0.63429960      -1.21850862       1.43451909
14
Frame=16 idx=001391 GeodesicLength=1.0372373068732375 rxn_smarts="[C:1]([C@@:2]1([H:10])[C@@:3]2([H:11])[C:4]([H:12])([H:13])[C@:5]1([H:14])[O:6]2)([H:7])([H:8])[H:9]>>[C:1]([C:2]([C@:5]1([H:14])[C:4]([H:12])([H:13])[C-:3]=[O+:6]1)([H:10])[H:11])([H:7])([H:8])[H:9]"
C       -1.67722809       0.29608824       0.14225537
C       -0.50331755      -0.46626840      -0.45490787
C        1.42932719       0.05281905      -1.05647901
C        1.41334407       0.68629377       0.33729907
C        0.67824878      -0.65068262       0.50509681
O        1.61207457      -1.20592829      -0.48810359
H       -1.39202131       1.28419837       0.50667936
H       -2.46745150       0.42926602      -0.59785979
H       -2.12112590      -0.24375492       0.98192245
H       -0.84225759      -1.46232546      -0.75788858
H        0.00201929       0.06816452      -1.77607676
H        0.86628176       1.62686802       0.39183356
H        2.37443416       0.80022206       0.83437000
H        0.62767210      -1.21496036       1.43185898
