15
Frame=0 idx=011466 GeodesicLength=0.0 rxn_smarts="[C:1]([C@@:2]1([H:11])[N:3]([H:12])[C@:4]1([C:5]([H:13])([H:14])[H:15])[C:6]#[N:7])([H:8])([H:9])[H:10]>>[C:1]([C@@:2]([N:3]([C:6]#[N:7])[H:12])([C:4][C:5]([H:13])([H:14])[H:15])[H:11])([H:8])([H:9])[H:10]"
C        1.41768541      -0.69225596      -0.60249527
C        0.75403620       0.26162415       0.37344340
N        0.51715507       1.58869273      -0.21158700
C       -0.69539389       0.11387247       0.76746982
C       -1.46788521      -1.04546163       0.31002023
C       -0.86579684       1.76612404      -0.00134948
N       -1.88622419       2.28390278      -0.28037556
H        1.45895780      -1.70061825      -0.18457362
H        0.87036429      -0.72284282      -1.54522324
H        2.43911117      -0.37660715      -0.82020981
H        1.33220006       0.32075495       1.30396193
H        1.05447269       2.35063247       0.18187391
H       -1.15371718      -1.85330721       0.98978348
H       -2.54045002      -0.89672135       0.42159405
H       -1.23451531      -1.39778927      -0.70233289
15
Frame=1 idx=011466 GeodesicLength=0.09073167245111864 rxn_smarts="[C:1]([C@@:2]1([H:11])[N:3]([H:12])[C@:4]1([C:5]([H:13])([H:14])[H:15])[C:6]#[N:7])([H:8])([H:9])[H:10]>>[C:1]([C@@:2]([N:3]([C:6]#[N:7])[H:12])([C:4][C:5]([H:13])([H:14])[H:15])[H:11])([H:8])([H:9])[H:10]"
C        1.43306835      -0.70349026      -0.58197374
C        0.75041321       0.26193760       0.36827264
N        0.49917806       1.57071758      -0.24621285
C       -0.70063801       0.11518132       0.73942023
C       -1.46989363      -1.05101348       0.29552842
C       -0.88397490       1.79162684       0.02673351
N       -1.89832088       2.34396972      -0.19625324
H        1.47494537      -1.70456295      -0.14729780
H        0.90164147      -0.75475202      -1.53276531
H        2.45554426      -0.38440243      -0.78978402
H        1.31170485       0.34302771       1.30734838
H        1.06214545       2.33528626       0.10346280
H       -1.12431270      -1.87313533       0.94079541
H       -2.53980513      -0.91844895       0.44730785
H       -1.27169576      -1.37194159      -0.73458229
15
Frame=2 idx=011466 GeodesicLength=0.18034714305873734 rxn_smarts="[C:1]([C@@:2]1([H:11])[N:3]([H:12])[C@:4]1([C:5]([H:13])([H:14])[H:15])[C:6]#[N:7])([H:8])([H:9])[H:10]>>[C:1]([C@@:2]([N:3]([C:6]#[N:7])[H:12])([C:4][C:5]([H:13])([H:14])[H:15])[H:11])([H:8])([H:9])[H:10]"
C        1.44817082      -0.71405798      -0.56104469
C        0.74664277       0.26233890       0.36296595
N        0.47973634       1.55179247      -0.28107015
C       -0.70613965       0.11668732       0.71070586
C       -1.47172196      -1.05652844       0.28038181
C       -0.89980658       1.81684223       0.05616053
N       -1.90460340       2.40223961      -0.11067799
H        1.49149661      -1.70713180      -0.10888728
H        0.93191889      -0.78715148      -1.51865458
H        2.47096586      -0.39032037      -0.76013043
H        1.29074704       0.36592899       1.30980868
H        1.06587422       2.31791224       0.02382435
H       -1.09654677      -1.89161564       0.89017960
H       -2.53738616      -0.94029720       0.47146332
H       -1.30934805      -1.34663885      -0.76502498
15
Frame=3 idx=011466 GeodesicLength=0.26887556840422294 rxn_smarts="[C:1]([C@@:2]1([H:11])[N:3]([H:12])[C@:4]1([C:5]([H:13])([H:14])[H:15])[C:6]#[N:7])([H:8])([H:9])[H:10]>>[C:1]([C@@:2]([N:3]([C:6]#[N:7])[H:12])([C:4][C:5]([H:13])([H:14])[H:15])[H:11])([H:8])([H:9])[H:10]"
C        1.46280921      -0.72373598      -0.54007699
C        0.74271831       0.26277901       0.35757597
N        0.45949878       1.53226160      -0.31542208
C       -0.71190711       0.11855599       0.68136804
C       -1.47333962      -1.06203196       0.26506537
C       -0.91319845       1.84129531       0.08538378
N       -1.90495905       2.45819901      -0.02586014
H        1.50814951      -1.70826175      -0.07013321
H        0.96097656      -0.81922304      -1.50328392
H        2.48529246      -0.39433092      -0.73151519
H        1.26932848       0.38874105       1.31145486
H        1.06563757       2.29888863      -0.05465277
H       -1.07005142      -1.90869607       0.83849279
H       -2.53317741      -0.96234210       0.49486177
H       -1.34777784      -1.32209878      -0.79325829
15
Frame=4 idx=011466 GeodesicLength=0.3563077049962487 rxn_smarts="[C:1]([C@@:2]1([H:11])[N:3]([H:12])[C@:4]1([C:5]([H:13])([H:14])[H:15])[C:6]#[N:7])([H:8])([H:9])[H:10]>>[C:1]([C@@:2]([N:3]([C:6]#[N:7])[H:12])([C:4][C:5]([H:13])([H:14])[H:15])[H:11])([H:8])([H:9])[H:10]"
C        1.47679847      -0.73233490      -0.51947245
C        0.73869054       0.26317037       0.35224555
N        0.43926786       1.51254173      -0.34842967
C       -0.71784759       0.12088134       0.65162441
C       -1.47472843      -1.06747558       0.25010302
C       -0.92428541       1.86468804       0.11330792
N       -1.89988913       2.51099742       0.05509908
H        1.52442313      -1.70801327      -0.03195004
H        0.98858321      -0.85007863      -1.48714007
H        2.49846769      -0.39650632      -0.70418969
H        1.24756288       0.41064592       1.31253044
H        1.06196109       2.27874485      -0.12950676
H       -1.04441261      -1.92445828       0.78590094
H       -2.52701657      -0.98467651       0.51876658
H       -1.38757514      -1.29812619      -0.81888927
15
Frame=5 idx=011466 GeodesicLength=0.4428101750267803 rxn_smarts="[C:1]([C@@:2]1([H:11])[N:3]([H:12])[C@:4]1([C:5]([H:13])([H:14])[H:15])[C:6]#[N:7])([H:8])([H:9])[H:10]>>[C:1]([C@@:2]([N:3]([C:6]#[N:7])[H:12])([C:4][C:5]([H:13])([H:14])[H:15])[H:11])([H:8])([H:9])[H:10]"
C        1.49013563      -0.73991492      -0.49928440
C        0.73443230       0.26355095       0.34682277
N        0.41939079       1.49281502      -0.38024986
C       -0.72402017       0.12367046       0.62118966
C       -1.47578120      -1.07300086       0.23553171
C       -0.93361605       1.88674515       0.13871969
N       -1.88973288       2.56128476       0.13323279
H        1.54004999      -1.70647722       0.00550181
H        1.01500100      -0.87965097      -1.47045141
H        2.51057558      -0.39711510      -0.67792006
H        1.22520785       0.43159368       1.31300336
H        1.05534856       2.25795906      -0.20013416
H       -1.01963505      -1.93877020       0.73289137
H       -2.51879931      -1.00721312       0.54284419
H       -1.42855703      -1.27547669      -0.84169747
15
Frame=6 idx=011466 GeodesicLength=0.5283800891261429 rxn_smarts="[C:1]([C@@:2]1([H:11])[N:3]([H:12])[C@:4]1([C:5]([H:13])([H:14])[H:15])[C:6]#[N:7])([H:8])([H:9])[H:10]>>[C:1]([C@@:2]([N:3]([C:6]#[N:7])[H:12])([C:4][C:5]([H:13])([H:14])[H:15])[H:11])([H:8])([H:9])[H:10]"
C        1.50275710      -0.74640759      -0.47978025
C        0.73007674       0.26381386       0.34152153
N        0.40050480       1.47340882      -0.41027167
C       -0.73022961       0.12686917       0.59044642
C       -1.47654731      -1.07847884       0.22171450
C       -0.94148502       1.90753461       0.16169676
N       -1.87568926       2.60812823       0.20541234
H        1.55471816      -1.70388227       0.04152799
H        1.04015198      -0.90726834      -1.45366072
H        2.52170394      -0.39633104      -0.65279034
H        1.20252285       0.45096872       1.31319991
H        1.04678843       2.23701707      -0.26506773
H       -0.99547638      -1.95189586       0.67896557
H       -2.50823059      -1.03003638       0.56849998
H       -1.47156584      -1.25344015      -0.86141429
15
Frame=7 idx=011466 GeodesicLength=0.6131796950214565 rxn_smarts="[C:1]([C@@:2]1([H:11])[N:3]([H:12])[C@:4]1([C:5]([H:13])([H:14])[H:15])[C:6]#[N:7])([H:8])([H:9])[H:10]>>[C:1]([C@@:2]([N:3]([C:6]#[N:7])[H:12])([C:4][C:5]([H:13])([H:14])[H:15])[H:11])([H:8])([H:9])[H:10]"
C        1.51473627      -0.75193629      -0.46087396
C        0.72554864       0.26398777       0.33624637
N        0.38274493       1.45438594      -0.43882147
C       -0.73649049       0.13040274       0.55920781
C       -1.47698821      -1.08398138       0.20855125
C       -0.94840949       1.92705524       0.18194377
N       -1.85829564       2.65206465       0.27261859
H        1.56829382      -1.70039532       0.07620886
H        1.06438181      -0.93303220      -1.43688551
H        2.53201187      -0.39441920      -0.62843529
H        1.17934900       0.46890275       1.31311976
H        1.03688327       2.21623206      -0.32456766
H       -0.97201568      -1.96384043       0.62401607
H       -2.49509738      -1.05314070       0.59559529
H       -1.51665270      -1.23228563      -0.87792388
15
Frame=8 idx=011466 GeodesicLength=0.6972951939767182 rxn_smarts="[C:1]([C@@:2]1([H:11])[N:3]([H:12])[C@:4]1([C:5]([H:13])([H:14])[H:15])[C:6]#[N:7])([H:8])([H:9])[H:10]>>[C:1]([C@@:2]([N:3]([C:6]#[N:7])[H:12])([C:4][C:5]([H:13])([H:14])[H:15])[H:11])([H:8])([H:9])[H:10]"
C        1.52611775      -0.75659606      -0.44253676
C        0.72087274       0.26405685       0.33102608
N        0.36629009       1.43582139      -0.46595846
C       -0.74271001       0.13419595       0.52752247
C       -1.47709493      -1.08946043       0.19602711
C       -0.95470289       1.94541199       0.19971356
N       -1.83839196       2.69305567       0.33445692
H        1.58062270      -1.69622966       0.10946178
H        1.08790372      -0.95688663      -1.42027326
H        2.54163103      -0.39161613      -0.60459909
H        1.15571484       0.48537616       1.31285320
H        1.02625525       2.19585042      -0.37868227
H       -0.94930115      -1.97466730       0.56754398
H       -2.47903953      -1.07653826       0.62446858
H       -1.56416764      -1.21177396      -0.89102385
15
Frame=9 idx=011466 GeodesicLength=0.7808567500207857 rxn_smarts="[C:1]([C@@:2]1([H:11])[N:3]([H:12])[C@:4]1([C:5]([H:13])([H:14])[H:15])[C:6]#[N:7])([H:8])([H:9])[H:10]>>[C:1]([C@@:2]([N:3]([C:6]#[N:7])[H:12])([C:4][C:5]([H:13])([H:14])[H:15])[H:11])([H:8])([H:9])[H:10]"
C        1.53699989      -0.76050468      -0.42450809
C        0.71589614       0.26410378       0.32566893
N        0.35102416       1.41764208      -0.49234137
C       -0.74901453       0.13817140       0.49500403
C       -1.47685418      -1.09503702       0.18387538
C       -0.96092209       1.96261218       0.21450791
N       -1.81571738       2.73183164       0.39325992
H        1.59160904      -1.69146311       0.14172027
H        1.11117150      -0.97911766      -1.40374820
H        2.55072165      -0.38809131      -0.58073242
H        1.13129468       0.50078998       1.31226068
H        1.01514833       2.17599440      -0.42838858
H       -0.92748964      -1.98432195       0.50946433
H       -2.45987638      -1.10030435       0.65461915
H       -1.61399117      -1.19230538      -0.90066195
15
Frame=10 idx=011466 GeodesicLength=0.8638911950057637 rxn_smarts="[C:1]([C@@:2]1([H:11])[N:3]([H:12])[C@:4]1([C:5]([H:13])([H:14])[H:15])[C:6]#[N:7])([H:8])([H:9])[H:10]>>[C:1]([C@@:2]([N:3]([C:6]#[N:7])[H:12])([C:4][C:5]([H:13])([H:14])[H:15])[H:11])([H:8])([H:9])[H:10]"
C        1.54737067      -0.76373709      -0.40681938
C        0.71073026       0.26407237       0.32031636
N        0.33715186       1.39992199      -0.51774280
C       -0.75521075       0.14228116       0.46188713
C       -1.47624735      -1.10056095       0.17215354
C       -0.96708149       1.97882849       0.22712854
N       -1.79140393       2.76791441       0.44732537
H        1.60103416      -1.68636271       0.17271067
H        1.13424139      -0.99952433      -1.38747628
H        2.55934185      -0.38405151      -0.55667983
H        1.10627993       0.51498034       1.31149942
H        1.00409735       2.15680710      -0.47349315
H       -0.90665963      -1.99280906       0.44890406
H       -2.43697095      -1.12447282       0.68666111
H       -1.66667338      -1.17328739      -0.90637475
15
Frame=11 idx=011466 GeodesicLength=0.9464897155801498 rxn_smarts="[C:1]([C@@:2]1([H:11])[N:3]([H:12])[C@:4]1([C:5]([H:13])([H:14])[H:15])[C:6]#[N:7])([H:8])([H:9])[H:10]>>[C:1]([C@@:2]([N:3]([C:6]#[N:7])[H:12])([C:4][C:5]([H:13])([H:14])[H:15])[H:11])([H:8])([H:9])[H:10]"
C        1.55727005      -0.76638950      -0.38926588
C        0.70528644       0.26401503       0.31486462
N        0.32460400       1.38260667      -0.54257589
C       -0.76135790       0.14648038       0.42793198
C       -1.47525032      -1.10607830       0.16066759
C       -0.97351808       1.99411288       0.23741856
N       -1.76538184       2.80165711       0.49789725
H        1.60872235      -1.68105090       0.20269709
H        1.15742414      -1.01825617      -1.37139795
H        2.56758338      -0.37964132      -0.53198302
H        1.08046629       0.52820986       1.31048126
H        0.99327455       2.13834360      -0.51470426
H       -0.88700012      -1.99998649       0.38550774
H       -2.40988988      -1.14916999       0.72029783
H       -1.72223308      -1.15485286      -0.90783693
15
Frame=12 idx=011466 GeodesicLength=1.0286993104433553 rxn_smarts="[C:1]([C@@:2]1([H:11])[N:3]([H:12])[C@:4]1([C:5]([H:13])([H:14])[H:15])[C:6]#[N:7])([H:8])([H:9])[H:10]>>[C:1]([C@@:2]([N:3]([C:6]#[N:7])[H:12])([C:4][C:5]([H:13])([H:14])[H:15])[H:11])([H:8])([H:9])[H:10]"
C        1.56668407      -0.76855414      -0.37173648
C        0.69957236       0.26394033       0.30932873
N        0.31342814       1.36569299      -0.56694500
C       -0.76740162       0.15074403       0.39312087
C       -1.47382807      -1.11154500       0.14933048
C       -0.98033103       2.00856302       0.24566701
N       -1.73811872       2.83303746       0.54480559
H        1.61441428      -1.67573277       0.23169816
H        1.18087840      -1.03530185      -1.35553330
H        2.57548809      -0.37503510      -0.50630244
H        1.05383964       0.54055058       1.30922429
H        0.98293012       2.12066399      -0.55232186
H       -0.86872176      -2.00566157       0.31858471
H       -2.37794820      -1.17456052       0.75554657
H       -1.78088570      -1.13680145      -0.90446734
15
Frame=13 idx=011466 GeodesicLength=1.1106583359885418 rxn_smarts="[C:1]([C@@:2]1([H:11])[N:3]([H:12])[C@:4]1([C:5]([H:13])([H:14])[H:15])[C:6]#[N:7])([H:8])([H:9])[H:10]>>[C:1]([C@@:2]([N:3]([C:6]#[N:7])[H:12])([C:4][C:5]([H:13])([H:14])[H:15])[H:11])([H:8])([H:9])[H:10]"
C        1.57557646      -0.77035246      -0.35400644
C        0.69352379       0.26389276       0.30365174
N        0.30353324       1.34908734      -0.59112579
C       -0.77334156       0.15508390       0.35735182
C       -1.47188518      -1.11690568       0.13794396
C       -0.98776628       2.02227091       0.25178023
N       -1.70966473       2.86208591       0.58873198
H        1.61782415      -1.67057651       0.25991721
H        1.20479728      -1.05077505      -1.33974683
H        2.58304297      -0.37044647      -0.47917053
H        1.02626802       0.55222452       1.30761651
H        0.97308031       2.10369517      -0.58691524
H       -0.85205095      -2.00949690       0.24747613
H       -2.34030618      -1.20085852       0.79212817
H       -1.84263135      -1.11892894      -0.89563291
15
Frame=14 idx=011466 GeodesicLength=1.1923955703854492 rxn_smarts="[C:1]([C@@:2]1([H:11])[N:3]([H:12])[C@:4]1([C:5]([H:13])([H:14])[H:15])[C:6]#[N:7])([H:8])([H:9])[H:10]>>[C:1]([C@@:2]([N:3]([C:6]#[N:7])[H:12])([C:4][C:5]([H:13])([H:14])[H:15])[H:11])([H:8])([H:9])[H:10]"
C        1.58385910      -0.77188709      -0.33599694
C        0.68717624       0.26387881       0.29789612
N        0.29503359       1.33282825      -0.61510161
C       -0.77911726       0.15950438       0.32067377
C       -1.46936830      -1.12213147       0.12645608
C       -0.99577841       2.03532762       0.25616279
N       -1.68067648       2.88883404       0.62897092
H        1.61853948      -1.66585759       0.28724078
H        1.22922408      -1.06459478      -1.32408445
H        2.59022685      -0.36608196      -0.45026845
H        0.99780393       0.56323098       1.30572740
H        0.96398877       2.08752198      -0.61859385
H       -0.83734708      -2.01105245       0.17137509
H       -2.29599200      -1.22840688       0.82986628
H       -1.90757252      -1.10111383      -0.88032393
15
Frame=15 idx=011466 GeodesicLength=1.274050681731639 rxn_smarts="[C:1]([C@@:2]1([H:11])[N:3]([H:12])[C@:4]1([C:5]([H:13])([H:14])[H:15])[C:6]#[N:7])([H:8])([H:9])[H:10]>>[C:1]([C@@:2]([N:3]([C:6]#[N:7])[H:12])([C:4][C:5]([H:13])([H:14])[H:15])[H:11])([H:8])([H:9])[H:10]"
C        1.59141223      -0.77331832      -0.31753881
C        0.68052896       0.26392556       0.29209604
N        0.28793038       1.31687629      -0.63895358
C       -0.78469524       0.16404967       0.28317418
C       -1.46615491      -1.12716254       0.11473378
C       -1.00441401       2.04783325       0.25899435
N       -1.65167913       2.91340025       0.66528841
H        1.61610999      -1.66186040       0.31368361
H        1.25418738      -1.07680297      -1.30845001
H        2.59696118      -0.36224245      -0.41920568
H        0.96846447       0.57367044       1.30353866
H        0.95573723       2.07210683      -0.64766889
H       -0.82502973      -2.00966024       0.08941873
H       -2.24381643      -1.25766951       0.86825513
H       -1.97554238      -1.08314586      -0.85736592
15
Frame=16 idx=011466 GeodesicLength=1.3558117707111734 rxn_smarts="[C:1]([C@@:2]1([H:11])[N:3]([H:12])[C@:4]1([C:5]([H:13])([H:14])[H:15])[C:6]#[N:7])([H:8])([H:9])[H:10]>>[C:1]([C@@:2]([N:3]([C:6]#[N:7])[H:12])([C:4][C:5]([H:13])([H:14])[H:15])[H:11])([H:8])([H:9])[H:10]"
C        1.59799879      -0.77476907      -0.29839339
C        0.67348793       0.26414015       0.28623016
N        0.28205348       1.30107490      -0.66292425
C       -0.79010993       0.16877380       0.24492292
C       -1.46205286      -1.13198351       0.10253487
C       -1.01387653       2.05983817       0.26013339
N       -1.62241140       2.93591076       0.69846147
H        1.61005472      -1.65867404       0.33944431
H        1.27952837      -1.08762785      -1.29258757
H        2.60297425      -0.35915705      -0.38565076
H        0.93818923       0.58388889       1.30093812
H        0.94817516       2.05728589      -0.67472029
H       -0.81552759      -2.00443754       0.00135206
H       -2.18283415      -1.28900493       0.90599392
H       -2.04564946      -1.06525856      -0.82573496
