14
Frame=0 idx=007952 GeodesicLength=0.0 rxn_smarts="[C:1]([C:2]([c:3]1[c:4]([H:13])[n:5]([H:14])[n:6][n:7]1)([H:11])[H:12])([H:8])([H:9])[H:10]>>[C:1]([C:2]([C:4](=[C:3]=[N:7][N:6]=[N:5][H:14])[H:13])([H:11])[H:12])([H:8])([H:9])[H:10]"
C       -1.86090055       0.69982037       0.08446487
C       -1.07761794      -0.49586302      -0.40588303
C        0.57082219      -0.28910838       0.00670025
C        0.55550674      -0.13812209      -1.27844948
N        2.95161602       0.00438439       0.56687255
N        2.17036760       0.16326065       1.50811682
N        0.84428992      -0.17750201       1.24505450
H       -2.92589951       0.45941158       0.09241819
H       -1.56069232       0.96716882       1.09661725
H       -1.70228614       1.55595122      -0.57061102
H       -1.20256947      -1.39466385       0.20132062
H       -1.36250268      -0.77167819      -1.42237986
H        0.73308502      -0.88808556      -2.03429223
H        3.86678118       0.30502608       0.91005053
14
Frame=1 idx=007952 GeodesicLength=0.08235224036767902 rxn_smarts="[C:1]([C:2]([c:3]1[c:4]([H:13])[n:5]([H:14])[n:6][n:7]1)([H:11])[H:12])([H:8])([H:9])[H:10]>>[C:1]([C:2]([C:4](=[C:3]=[N:7][N:6]=[N:5][H:14])[H:13])([H:11])[H:12])([H:8])([H:9])[H:10]"
C       -1.84703493       0.70516847       0.08787946
C       -1.08848722      -0.50170619      -0.41604260
C        0.56073846      -0.35458875       0.04231953
C        0.58164619      -0.17323036      -1.24028896
N        2.92522966       0.05805947       0.53404787
N        2.16766785       0.17392120       1.50412430
N        0.85063244      -0.21068213       1.27364377
H       -2.91930374       0.50123915       0.06064738
H       -1.56890410       0.93399048       1.11576312
H       -1.64181520       1.57475646      -0.53595087
H       -1.25973943      -1.40783748       0.16906283
H       -1.36638988      -0.74526337      -1.44285970
H        0.75789627      -0.91155039      -2.00799251
H        3.84786364       0.35772345       0.85564639
14
Frame=2 idx=007952 GeodesicLength=0.1644923639677016 rxn_smarts="[C:1]([C:2]([c:3]1[c:4]([H:13])[n:5]([H:14])[n:6][n:7]1)([H:11])[H:12])([H:8])([H:9])[H:10]>>[C:1]([C:2]([C:4](=[C:3]=[N:7][N:6]=[N:5][H:14])[H:13])([H:11])[H:12])([H:8])([H:9])[H:10]"
C       -1.83630193       0.70823987       0.09102978
C       -1.09656778      -0.50587127      -0.42543562
C        0.55056105      -0.40908610       0.07767111
C        0.60668097      -0.20366535      -1.20189834
N        2.89752786       0.10221680       0.50209443
N        2.16600916       0.18754396       1.49845536
N        0.85770669      -0.23242211       1.30077380
H       -2.91280882       0.53672415       0.02986001
H       -1.58261156       0.90180945       1.13243563
H       -1.58908504       1.58894253      -0.50136720
H       -1.30966009      -1.41778137       0.13698985
H       -1.36602647      -0.71990013      -1.46119883
H        0.78479896      -0.93162234      -1.97911951
H        3.82977700       0.39487190       0.79970951
14
Frame=3 idx=007952 GeodesicLength=0.24655240285264846 rxn_smarts="[C:1]([C:2]([c:3]1[c:4]([H:13])[n:5]([H:14])[n:6][n:7]1)([H:11])[H:12])([H:8])([H:9])[H:10]>>[C:1]([C:2]([C:4](=[C:3]=[N:7][N:6]=[N:5][H:14])[H:13])([H:11])[H:12])([H:8])([H:9])[H:10]"
C       -1.82769407       0.71018152       0.09410214
C       -1.10262534      -0.50851230      -0.43460458
C        0.54039421      -0.45555756       0.11286978
C        0.63081714      -0.23152034      -1.16347844
N        2.87068477       0.13353359       0.47247438
N        2.16524447       0.20157422       1.49203729
N        0.86544386      -0.24762889       1.32695174
H       -2.90617757       0.56869672      -0.00011250
H       -1.60008972       0.87034364       1.14727188
H       -1.54179409       1.60031733      -0.46612268
H       -1.35440109      -1.42517748       0.10409081
H       -1.36279163      -0.69450017      -1.47837211
H        0.81277232      -0.95067497      -1.94815788
H        3.81021676       0.42892468       0.74105017
14
Frame=4 idx=007952 GeodesicLength=0.32880612251802643 rxn_smarts="[C:1]([C:2]([c:3]1[c:4]([H:13])[n:5]([H:14])[n:6][n:7]1)([H:11])[H:12])([H:8])([H:9])[H:10]>>[C:1]([C:2]([C:4](=[C:3]=[N:7][N:6]=[N:5][H:14])[H:13])([H:11])[H:12])([H:8])([H:9])[H:10]"
C       -1.82151272       0.71066601       0.09726034
C       -1.10691578      -0.51004033      -0.44351597
C        0.53042175      -0.49393565       0.14745751
C        0.65385384      -0.25628056      -1.12573368
N        2.84454954       0.15924600       0.44353107
N        2.16452814       0.21974488       1.48396426
N        0.87388141      -0.25630130       1.35169120
H       -2.89998096       0.59640633      -0.02859906
H       -1.62115871       0.83921137       1.16038360
H       -1.50064126       1.60902198      -0.43042698
H       -1.39391328      -1.43081846       0.07074528
H       -1.35720773      -0.66948021      -1.49430817
H        0.84147404      -0.96828349      -1.91583935
H        3.79262172       0.45084342       0.68338993
14
Frame=5 idx=007952 GeodesicLength=0.4107285015770062 rxn_smarts="[C:1]([C:2]([c:3]1[c:4]([H:13])[n:5]([H:14])[n:6][n:7]1)([H:11])[H:12])([H:8])([H:9])[H:10]>>[C:1]([C:2]([C:4](=[C:3]=[N:7][N:6]=[N:5][H:14])[H:13])([H:11])[H:12])([H:8])([H:9])[H:10]"
C       -1.81504179       0.71147069       0.10031505
C       -1.11003885      -0.51018445      -0.45260499
C        0.52023058      -0.52927483       0.18190921
C        0.67593547      -0.28194133      -1.08785807
N        2.82078861       0.17067031       0.41782757
N        2.16467255       0.23200574       1.47656681
N        0.88281080      -0.26550897       1.37583063
H       -2.89196130       0.62469436      -0.05631313
H       -1.64219976       0.80914613       1.17155176
H       -1.46079993       1.61630407      -0.39386320
H       -1.43124239      -1.43391348       0.03571266
H       -1.35034499      -0.64306324      -1.50958185
H        0.86899877      -0.98824200      -1.88174549
H        3.76819223       0.48783701       0.62225303
14
Frame=6 idx=007952 GeodesicLength=0.4927003626197274 rxn_smarts="[C:1]([C:2]([c:3]1[c:4]([H:13])[n:5]([H:14])[n:6][n:7]1)([H:11])[H:12])([H:8])([H:9])[H:10]>>[C:1]([C:2]([C:4](=[C:3]=[N:7][N:6]=[N:5][H:14])[H:13])([H:11])[H:12])([H:8])([H:9])[H:10]"
C       -1.81119236       0.71079830       0.10344792
C       -1.11181022      -0.50960818      -0.46152715
C        0.51060730      -0.55732113       0.21546746
C        0.69676395      -0.30419734      -1.05120360
N        2.79793520       0.18228200       0.39210775
N        2.16482654       0.24963076       1.46749860
N        0.89273793      -0.26888963       1.39849435
H       -2.88516755       0.64840191      -0.08196417
H       -1.66597087       0.77941593       1.18113197
H       -1.42775497       1.62140853      -0.35746865
H       -1.46357593      -1.43598731       0.00053397
H       -1.34205954      -0.61728769      -1.52384736
H        0.89651297      -1.00631122      -1.84729594
H        3.74814755       0.50766506       0.56462485
14
Frame=7 idx=007952 GeodesicLength=0.5746025527905282 rxn_smarts="[C:1]([C:2]([c:3]1[c:4]([H:13])[n:5]([H:14])[n:6][n:7]1)([H:11])[H:12])([H:8])([H:9])[H:10]>>[C:1]([C:2]([C:4](=[C:3]=[N:7][N:6]=[N:5][H:14])[H:13])([H:11])[H:12])([H:8])([H:9])[H:10]"
C       -1.80799355       0.70985931       0.10661692
C       -1.11262910      -0.50825902      -0.47051809
C        0.50117575      -0.58183576       0.24845791
C        0.71662187      -0.32606419      -1.01522837
N        2.77642214       0.18940389       0.36782929
N        2.16497157       0.26697826       1.45808225
N        0.90337350      -0.27137196       1.42026939
H       -2.87795560       0.67103232      -0.10614934
H       -1.69025579       0.75036244       1.18918231
H       -1.39764839       1.62523251      -0.32078610
H       -1.49324811      -1.43661945      -0.03551125
H       -1.33288646      -0.59107448      -1.53744639
H        0.92305922      -1.02537174      -1.81225782
H        3.72699293       0.52772788       0.50745927
14
Frame=8 idx=007952 GeodesicLength=0.656524839458651 rxn_smarts="[C:1]([C:2]([c:3]1[c:4]([H:13])[n:5]([H:14])[n:6][n:7]1)([H:11])[H:12])([H:8])([H:9])[H:10]>>[C:1]([C:2]([C:4](=[C:3]=[N:7][N:6]=[N:5][H:14])[H:13])([H:11])[H:12])([H:8])([H:9])[H:10]"
C       -1.80483420       0.70894913       0.10981927
C       -1.11254941      -0.50619178      -0.47961200
C        0.49188733      -0.60395998       0.28095782
C        0.73567484      -0.34832061      -0.97983027
N        2.75611739       0.19209789       0.34520319
N        2.16494927       0.28311797       1.44862424
N        0.91468721      -0.27431490       1.44137574
H       -2.86985618       0.69342791      -0.12892485
H       -1.71440509       0.72206904       1.19580246
H       -1.36934219       1.62799653      -0.28384077
H       -1.52085303      -1.43571784      -0.07245311
H       -1.32285443      -0.56423095      -1.55046171
H        0.94847983      -1.04610803      -1.77670420
H        3.70289866       0.55118561       0.45004419
14
Frame=9 idx=007952 GeodesicLength=0.7384159893757903 rxn_smarts="[C:1]([C:2]([c:3]1[c:4]([H:13])[n:5]([H:14])[n:6][n:7]1)([H:11])[H:12])([H:8])([H:9])[H:10]>>[C:1]([C:2]([C:4](=[C:3]=[N:7][N:6]=[N:5][H:14])[H:13])([H:11])[H:12])([H:8])([H:9])[H:10]"
C       -1.80200583       0.70784989       0.11303064
C       -1.11159830      -0.50347535      -0.48875905
C        0.48280918      -0.62351422       0.31301437
C        0.75388787      -0.37050735      -0.94496962
N        2.73697669       0.19176391       0.32393733
N        2.16475354       0.29903844       1.43892488
N        0.92676645      -0.27707184       1.46181019
H       -2.86123865       0.71513559      -0.15042814
H       -1.73863654       0.69431485       1.20102888
H       -1.34332166       1.62967666      -0.24668833
H       -1.54617447      -1.43344756      -0.11016085
H       -1.31200986      -0.53687616      -1.56284477
H        0.97278568      -1.06791546      -1.74070376
H        3.67700590       0.57502860       0.39280823
14
Frame=10 idx=007952 GeodesicLength=0.8203220209340083 rxn_smarts="[C:1]([C:2]([c:3]1[c:4]([H:13])[n:5]([H:14])[n:6][n:7]1)([H:11])[H:12])([H:8])([H:9])[H:10]>>[C:1]([C:2]([C:4](=[C:3]=[N:7][N:6]=[N:5][H:14])[H:13])([H:11])[H:12])([H:8])([H:9])[H:10]"
C       -1.80000818       0.70618969       0.11625166
C       -1.10978381      -0.50021950      -0.49788591
C        0.47415702      -0.63977055       0.34449143
C        0.77117509      -0.39165359      -0.91087641
N        2.71823015       0.19160307       0.30319687
N        2.16431415       0.31630047       1.42857902
N        0.93974481      -0.27840930       1.48136904
H       -2.85275409       0.73510607      -0.17043576
H       -1.76330072       0.66677896       1.20496877
H       -1.32057043       1.63017290      -0.20964205
H       -1.56870662      -1.43010946      -0.14823481
H       -1.30049709      -0.50932708      -1.57452984
H        0.99608944      -1.08967265      -1.70455832
H        3.65191027       0.59301099       0.33730631
14
Frame=11 idx=007952 GeodesicLength=0.9021639444748678 rxn_smarts="[C:1]([C:2]([c:3]1[c:4]([H:13])[n:5]([H:14])[n:6][n:7]1)([H:11])[H:12])([H:8])([H:9])[H:10]>>[C:1]([C:2]([C:4](=[C:3]=[N:7][N:6]=[N:5][H:14])[H:13])([H:11])[H:12])([H:8])([H:9])[H:10]"
C       -1.79842773       0.70433928       0.11941154
C       -1.10722580      -0.49644437      -0.50701580
C        0.46576893      -0.65379115       0.37560153
C        0.78773015      -0.41257591      -0.87725262
N        2.70040072       0.18986331       0.28348175
N        2.16387707       0.33319118       1.41807625
N        0.95351132      -0.27954480       1.50034187
H       -2.84411618       0.75426309      -0.18922229
H       -1.78792608       0.63981132       1.20761621
H       -1.30016308       1.62980812      -0.17275808
H       -1.58914901      -1.42562079      -0.18683205
H       -1.28832831      -0.48141898      -1.58558162
H        1.01831817      -1.11215551      -1.66812434
H        3.62572983       0.61027522       0.28225764
14
Frame=12 idx=007952 GeodesicLength=0.984036847509804 rxn_smarts="[C:1]([C:2]([c:3]1[c:4]([H:13])[n:5]([H:14])[n:6][n:7]1)([H:11])[H:12])([H:8])([H:9])[H:10]>>[C:1]([C:2]([C:4](=[C:3]=[N:7][N:6]=[N:5][H:14])[H:13])([H:11])[H:12])([H:8])([H:9])[H:10]"
C       -1.79727968       0.70223647       0.12252234
C       -1.10392849      -0.49217711      -0.51614377
C        0.45769739      -0.66558067       0.40635148
C        0.80357985      -0.43318321      -0.84411495
N        2.68307774       0.18758046       0.26448018
N        2.16333933       0.35013759       1.40729161
N        0.96811061      -0.28031160       1.51870321
H       -2.83541632       0.77249813      -0.20681295
H       -1.81262563       0.61314108       1.20906302
H       -1.28204065       1.62860910      -0.13599537
H       -1.60748276      -1.42003859      -0.22585135
H       -1.27552664      -0.45314364      -1.59601153
H        1.03951828      -1.13521853      -1.63143952
H        3.59897697       0.62545052       0.22795760
14
Frame=13 idx=007952 GeodesicLength=1.065847066588326 rxn_smarts="[C:1]([C:2]([c:3]1[c:4]([H:13])[n:5]([H:14])[n:6][n:7]1)([H:11])[H:12])([H:8])([H:9])[H:10]>>[C:1]([C:2]([C:4](=[C:3]=[N:7][N:6]=[N:5][H:14])[H:13])([H:11])[H:12])([H:8])([H:9])[H:10]"
C       -1.79648450       0.69990280       0.12548213
C       -1.09989699      -0.48740453      -0.52522129
C        0.44991231      -0.67529085       0.43686410
C        0.81871857      -0.45342254      -0.81127668
N        2.66645462       0.18414636       0.24632781
N        2.16297153       0.36643581       1.39642012
N        0.98354731      -0.28084626       1.53655118
H       -2.82664950       0.78979840      -0.22335215
H       -1.83708760       0.58695034       1.20926375
H       -1.26619444       1.62663144      -0.09967227
H       -1.62372710      -1.41331969      -0.26522220
H       -1.26211106      -0.42451651      -1.60577317
H        1.05958083      -1.15865004      -1.59441744
H        3.57096602       0.63958528       0.17402610
14
Frame=14 idx=007952 GeodesicLength=1.1476207855411906 rxn_smarts="[C:1]([C:2]([c:3]1[c:4]([H:13])[n:5]([H:14])[n:6][n:7]1)([H:11])[H:12])([H:8])([H:9])[H:10]>>[C:1]([C:2]([C:4](=[C:3]=[N:7][N:6]=[N:5][H:14])[H:13])([H:11])[H:12])([H:8])([H:9])[H:10]"
C       -1.79635943       0.69723941       0.12833647
C       -1.09523007      -0.48218006      -0.53425158
C        0.44247966      -0.68270115       0.46708679
C        0.83319741      -0.47295873      -0.77883366
N        2.65035395       0.18057988       0.22862401
N        2.16284530       0.38268831       1.38527954
N        0.99983160      -0.28065204       1.55378817
H       -2.81828660       0.80585157      -0.23878966
H       -1.86169297       0.56097234       1.20834425
H       -1.25296495       1.62399362      -0.06373550
H       -1.63787568      -1.40568223      -0.30484774
H       -1.24822307      -0.39560942      -1.61489158
H        1.07865397      -1.18208754      -1.55721628
H        3.54327087       0.65054603       0.12110678
14
Frame=15 idx=007952 GeodesicLength=1.2293517755761865 rxn_smarts="[C:1]([C:2]([c:3]1[c:4]([H:13])[n:5]([H:14])[n:6][n:7]1)([H:11])[H:12])([H:8])([H:9])[H:10]>>[C:1]([C:2]([C:4](=[C:3]=[N:7][N:6]=[N:5][H:14])[H:13])([H:11])[H:12])([H:8])([H:9])[H:10]"
C       -1.79669597       0.69434186       0.13102281
C       -1.08991770      -0.47649109      -0.54321757
C        0.43535469      -0.68811937       0.49713933
C        0.84705841      -0.49204302      -0.74661638
N        2.63483528       0.17637113       0.21150092
N        2.16311120       0.39825382       1.37407540
N        1.01696590      -0.28014234       1.57052932
H       -2.81015748       0.82091051      -0.25330060
H       -1.88616682       0.53531994       1.20629780
H       -1.24200582       1.62077849      -0.02830893
H       -1.65007085      -1.39704923      -0.34474081
H       -1.23382409      -0.36636388      -1.62335953
H        1.09667878      -1.20573002      -1.51969777
H        3.51483446       0.65996320       0.06867600
14
Frame=16 idx=007952 GeodesicLength=1.31104058697688 rxn_smarts="[C:1]([C:2]([c:3]1[c:4]([H:13])[n:5]([H:14])[n:6][n:7]1)([H:11])[H:12])([H:8])([H:9])[H:10]>>[C:1]([C:2]([C:4](=[C:3]=[N:7][N:6]=[N:5][H:14])[H:13])([H:11])[H:12])([H:8])([H:9])[H:10]"
C       -1.79766303       0.69112072       0.13354964
C       -1.08401053      -0.47033699      -0.55211069
C        0.42857679      -0.69137284       0.52701218
C        0.86029913      -0.51042063      -0.71464162
N        2.61980423       0.17189858       0.19473592
N        2.16386481       0.41338986       1.36269863
N        1.03495083      -0.27898316       1.58670792
H       -2.80252963       0.83474559      -0.26690351
H       -1.91066122       0.50978142       1.20318090
H       -1.23353402       1.61703035       0.00661570
H       -1.66026648      -1.38751208      -0.38483564
H       -1.21902345      -0.33677467      -1.63117288
H        1.11366949      -1.22926778      -1.48191268
H        3.48652307       0.66670164       0.01707614
