10
Frame=0 idx=000371 GeodesicLength=0.0 rxn_smarts="[N:1]([c:2]1[n:3][c:4]([H:9])[n:5][n:6]1[H:10])([H:7])[H:8]>>[N:1]([c:2]1[n+:3]([H:9])[c-:4][n:5][n:6]1[H:10])([H:7])[H:8]"
N       -1.59470908      -0.35559955      -0.22144419
C       -0.27589518      -0.10579459      -0.00953968
N        0.66848586      -1.03900376       0.16123555
C        1.92241415      -0.29748496       0.24635509
N        1.66682437       0.98866971       0.16116197
N        0.29464698       1.08272552       0.07333507
H       -2.26401062       0.36414749      -0.01534709
H       -1.88713249      -1.29057069       0.00324793
H        1.61743649      -1.33145127      -0.51625554
H       -0.14806048       1.98436210       0.11725088
10
Frame=1 idx=000371 GeodesicLength=0.04037381310906285 rxn_smarts="[N:1]([c:2]1[n:3][c:4]([H:9])[n:5][n:6]1[H:10])([H:7])[H:8]>>[N:1]([c:2]1[n+:3]([H:9])[c-:4][n:5][n:6]1[H:10])([H:7])[H:8]"
N       -1.59683403      -0.35135930      -0.22421160
C       -0.27727810      -0.10169538      -0.01261448
N        0.66776160      -1.03212335       0.15656141
C        1.91852438      -0.29344664       0.23781593
N        1.66510613       0.99244514       0.15265775
N        0.29242237       1.08761861       0.07126891
H       -2.26555847       0.36191349       0.00542803
H       -1.88575289      -1.29115966      -0.01551141
H        1.63247820      -1.36052606      -0.49604220
H       -0.15086918       1.98833316       0.12464766
10
Frame=2 idx=000371 GeodesicLength=0.08072287792532185 rxn_smarts="[N:1]([c:2]1[n:3][c:4]([H:9])[n:5][n:6]1[H:10])([H:7])[H:8]>>[N:1]([c:2]1[n+:3]([H:9])[c-:4][n:5][n:6]1[H:10])([H:7])[H:8]"
N       -1.59909110      -0.34718806      -0.22687406
C       -0.27870038      -0.09759995      -0.01624897
N        0.66717351      -1.02536657       0.14966515
C        1.91468412      -0.28944572       0.22786373
N        1.66319235       0.99627508       0.14494852
N        0.29002517       1.09246476       0.07004461
H       -2.26691622       0.35956395       0.02492421
H       -1.88467297      -1.29112885      -0.03253992
H        1.64812884      -1.38977870      -0.47413981
H       -0.15382331       1.99220406       0.13235656
10
Frame=3 idx=000371 GeodesicLength=0.12103191441683736 rxn_smarts="[N:1]([c:2]1[n:3][c:4]([H:9])[n:5][n:6]1[H:10])([H:7])[H:8]>>[N:1]([c:2]1[n+:3]([H:9])[c-:4][n:5][n:6]1[H:10])([H:7])[H:8]"
N       -1.60139890      -0.34319183      -0.22953487
C       -0.28016458      -0.09351930      -0.02012473
N        0.66680204      -1.01869781       0.14055159
C        1.91100504      -0.28542758       0.21586638
N        1.66109099       1.00022077       0.13809794
N        0.28746765       1.09726270       0.06962340
H       -2.26810767       0.35726427       0.04241158
H       -1.88390081      -1.29054395      -0.04742580
H        1.66418298      -1.41928245      -0.45034528
H       -0.15697674       1.99591518       0.14087978
10
Frame=4 idx=000371 GeodesicLength=0.1612994745638559 rxn_smarts="[N:1]([c:2]1[n:3][c:4]([H:9])[n:5][n:6]1[H:10])([H:7])[H:8]>>[N:1]([c:2]1[n+:3]([H:9])[c-:4][n:5][n:6]1[H:10])([H:7])[H:8]"
N       -1.60413035      -0.33928506      -0.23158314
C       -0.28164645      -0.08953258      -0.02599630
N        0.66652481      -1.01245638       0.12656912
C        1.90712912      -0.28179547       0.20336592
N        1.65863694       1.00397614       0.13538461
N        0.28476136       1.10180081       0.06975892
H       -2.26904921       0.35525926       0.05959524
H       -1.88369679      -1.28935631      -0.05905751
H        1.68172407      -1.44813212      -0.42531011
H       -0.16025351       1.99952171       0.14727326
10
Frame=5 idx=000371 GeodesicLength=0.20150462284788023 rxn_smarts="[N:1]([c:2]1[n:3][c:4]([H:9])[n:5][n:6]1[H:10])([H:7])[H:8]>>[N:1]([c:2]1[n+:3]([H:9])[c-:4][n:5][n:6]1[H:10])([H:7])[H:8]"
N       -1.60676955      -0.33547314      -0.23375304
C       -0.28320354      -0.08545809      -0.03117251
N        0.66655925      -1.00606331       0.11071073
C        1.90365060      -0.27792596       0.18710455
N        1.65608227       1.00796707       0.13315936
N        0.28193758       1.10637818       0.07090821
H       -2.26992563       0.35320614       0.07517123
H       -1.88355485      -1.28795316      -0.06990844
H        1.69894633      -1.47775291      -0.39699299
H       -0.16372245       2.00307517       0.15477290
10
Frame=6 idx=000371 GeodesicLength=0.241620927535928 rxn_smarts="[N:1]([c:2]1[n:3][c:4]([H:9])[n:5][n:6]1[H:10])([H:7])[H:8]>>[N:1]([c:2]1[n+:3]([H:9])[c-:4][n:5][n:6]1[H:10])([H:7])[H:8]"
N       -1.60992820      -0.33163082      -0.23503859
C       -0.28480770      -0.08140555      -0.03858514
N        0.66672313      -1.00000701       0.08820148
C        1.89997150      -0.27443996       0.16969657
N        1.65314486       1.01159251       0.13688465
N        0.27899135       1.11064775       0.07272660
H       -2.27048207       0.35137191       0.09185491
H       -1.88391209      -1.28612975      -0.07799216
H        1.71756912      -1.50672335      -0.36631497
H       -0.16726990       2.00672426       0.15856664
10
Frame=7 idx=000371 GeodesicLength=0.28164366058638024 rxn_smarts="[N:1]([c:2]1[n:3][c:4]([H:9])[n:5][n:6]1[H:10])([H:7])[H:8]>>[N:1]([c:2]1[n+:3]([H:9])[c-:4][n:5][n:6]1[H:10])([H:7])[H:8]"
N       -1.61302482      -0.32778241      -0.23615895
C       -0.28650630      -0.07720369      -0.04508673
N        0.66731657      -0.99357473       0.06194552
C        1.89685749      -0.27051630       0.14592457
N        1.65001316       1.01520826       0.14370532
N        0.27594261       1.11489091       0.07634429
H       -2.27097884       0.34926030       0.10820709
H       -1.88415910      -1.28426737      -0.08598864
H        1.73544237      -1.53662254      -0.33033814
H       -0.17090313       2.01060757       0.16144566
10
Frame=8 idx=000371 GeodesicLength=0.3214817102060517 rxn_smarts="[N:1]([c:2]1[n:3][c:4]([H:9])[n:5][n:6]1[H:10])([H:7])[H:8]>>[N:1]([c:2]1[n+:3]([H:9])[c-:4][n:5][n:6]1[H:10])([H:7])[H:8]"
N       -1.61691312      -0.32366074      -0.23559059
C       -0.28828831      -0.07282238      -0.05503010
N        0.66816924      -0.98695339       0.02399528
C        1.89359297      -0.26659514       0.11790311
N        1.64613445       1.01767196       0.16226095
N        0.27278130       1.11879608       0.08071038
H       -2.27081845       0.34677597       0.12920023
H       -1.88465188      -1.28222348      -0.09206862
H        1.75425873      -1.56607822      -0.28814673
H       -0.17426493       2.01508935       0.15676610
10
Frame=9 idx=000371 GeodesicLength=0.3605428819069574 rxn_smarts="[N:1]([c:2]1[n:3][c:4]([H:9])[n:5][n:6]1[H:10])([H:7])[H:8]>>[N:1]([c:2]1[n+:3]([H:9])[c-:4][n:5][n:6]1[H:10])([H:7])[H:8]"
N       -1.62103071      -0.31898244      -0.23422113
C       -0.29028318      -0.06805143      -0.06449249
N        0.66961710      -0.97888285      -0.02471337
C        1.89093737      -0.26127244       0.07827161
N        1.64187308       1.01841032       0.18500688
N        0.26953798       1.12233544       0.08933979
H       -2.27021804       0.34240599       0.15509798
H       -1.88460119      -1.28043629      -0.10227222
H        1.77083110      -1.59583982      -0.23098785
H       -0.17666351       2.02031353       0.14897081
10
Frame=10 idx=000371 GeodesicLength=0.39696301811407425 rxn_smarts="[N:1]([c:2]1[n:3][c:4]([H:9])[n:5][n:6]1[H:10])([H:7])[H:8]>>[N:1]([c:2]1[n+:3]([H:9])[c-:4][n:5][n:6]1[H:10])([H:7])[H:8]"
N       -1.62504958      -0.31524747      -0.23370490
C       -0.29181753      -0.06337362      -0.08026562
N        0.67191800      -0.96901043      -0.09171053
C        1.88851126      -0.25523360       0.03188729
N        1.63881399       1.01755458       0.19754287
N        0.26709329       1.12531311       0.09260597
H       -2.26827369       0.33811905       0.17837258
H       -1.88399950      -1.27897218      -0.10884041
H        1.78192203      -1.62152206      -0.14773638
H       -0.17911827       2.02237263       0.16184912
10
Frame=11 idx=000371 GeodesicLength=0.4325334930020633 rxn_smarts="[N:1]([c:2]1[n:3][c:4]([H:9])[n:5][n:6]1[H:10])([H:7])[H:8]>>[N:1]([c:2]1[n+:3]([H:9])[c-:4][n:5][n:6]1[H:10])([H:7])[H:8]"
N       -1.62797186      -0.31328849      -0.23099220
C       -0.29193130      -0.05887430      -0.10260393
N        0.67545477      -0.95659613      -0.17292207
C        1.88661778      -0.25026625      -0.01080154
N        1.63538511       1.01153592       0.22190127
N        0.26669594       1.12791387       0.08715163
H       -2.26266220       0.33107627       0.20777757
H       -1.88010598      -1.27961175      -0.11188020
H        1.77805253      -1.63535182      -0.05907980
H       -0.17953479       2.02346268       0.17144927
10
Frame=12 idx=000371 GeodesicLength=0.47114200327626954 rxn_smarts="[N:1]([c:2]1[n:3][c:4]([H:9])[n:5][n:6]1[H:10])([H:7])[H:8]>>[N:1]([c:2]1[n+:3]([H:9])[c-:4][n:5][n:6]1[H:10])([H:7])[H:8]"
N       -1.62886582      -0.31265833      -0.22984877
C       -0.29069763      -0.05549087      -0.12387359
N        0.67943822      -0.94458172      -0.24183946
C        1.88565261      -0.24650923      -0.04950893
N        1.63403152       1.00440667       0.23647286
N        0.26747230       1.12901850       0.08464013
H       -2.25531595       0.32227329       0.23416684
H       -1.87439407      -1.28149463      -0.11688350
H        1.76126476      -1.63800478       0.02291572
H       -0.17858592       2.02304109       0.18375869
10
Frame=13 idx=000371 GeodesicLength=0.5118056881436271 rxn_smarts="[N:1]([c:2]1[n:3][c:4]([H:9])[n:5][n:6]1[H:10])([H:7])[H:8]>>[N:1]([c:2]1[n+:3]([H:9])[c-:4][n:5][n:6]1[H:10])([H:7])[H:8]"
N       -1.62873006      -0.31258579      -0.22854861
C       -0.28900644      -0.05198939      -0.14481181
N        0.68319641      -0.93307833      -0.29733232
C        1.88454985      -0.24436876      -0.07693198
N        1.63278582       0.99638973       0.25122370
N        0.26906122       1.13044483       0.07904950
H       -2.24599308       0.31134298       0.26189991
H       -1.86769772      -1.28398944      -0.12321038
H        1.73853506      -1.63503003       0.08805062
H       -0.17670106       2.02286419       0.19061137
10
Frame=14 idx=000371 GeodesicLength=0.5528483288984101 rxn_smarts="[N:1]([c:2]1[n:3][c:4]([H:9])[n:5][n:6]1[H:10])([H:7])[H:8]>>[N:1]([c:2]1[n+:3]([H:9])[c-:4][n:5][n:6]1[H:10])([H:7])[H:8]"
N       -1.62822258      -0.31270600      -0.22825851
C       -0.28741516      -0.04991802      -0.15903274
N        0.68632321      -0.92383867      -0.33843621
C        1.88350009      -0.24242119      -0.10222662
N        1.63220239       0.98855493       0.26229494
N        0.27059092       1.13091854       0.07683221
H       -2.23793013       0.30185471       0.28315780
H       -1.86241210      -1.28603204      -0.12956168
H        1.71777583      -1.62901672       0.13992912
H       -0.17441248       2.02260445       0.19530169
10
Frame=15 idx=000371 GeodesicLength=0.594107530620746 rxn_smarts="[N:1]([c:2]1[n:3][c:4]([H:9])[n:5][n:6]1[H:10])([H:7])[H:8]>>[N:1]([c:2]1[n+:3]([H:9])[c-:4][n:5][n:6]1[H:10])([H:7])[H:8]"
N       -1.62735134      -0.31336165      -0.22761965
C       -0.28574190      -0.04741354      -0.17419413
N        0.68957947      -0.91434534      -0.37585408
C        1.88226541      -0.24117544      -0.12099095
N        1.63111033       0.98048844       0.27472395
N        0.27214558       1.13167021       0.07399084
H       -2.22924787       0.29224366       0.30350193
H       -1.85632311      -1.28846130      -0.13350069
H        1.69562356      -1.62259638       0.18305412
H       -0.17206012       2.02295134       0.19688865
10
Frame=16 idx=000371 GeodesicLength=0.6354095049253357 rxn_smarts="[N:1]([c:2]1[n:3][c:4]([H:9])[n:5][n:6]1[H:10])([H:7])[H:8]>>[N:1]([c:2]1[n+:3]([H:9])[c-:4][n:5][n:6]1[H:10])([H:7])[H:8]"
N       -1.62636711      -0.31405513      -0.22762108
C       -0.28411945      -0.04555024      -0.18653276
N        0.69249555      -0.90599031      -0.40736492
C        1.88105388      -0.24016042      -0.13905610
N        1.63058104       0.97295689       0.28349827
N        0.27374610       1.13212399       0.07162250
H       -2.22123175       0.28351968       0.32041307
H       -1.85098304      -1.29062786      -0.13750547
H        1.67462810      -1.61492423       0.22212422
H       -0.16980333       2.02270764       0.20042228
