11
Frame=0 idx=009520 GeodesicLength=0.0 rxn_smarts="[C:1](#[C:2][C:3]#[C:4][C@@:5]1([H:9])[C:6]([H:10])([H:11])[O:7]1)[H:8]>>[C:1](=[C:2]=[C:3]=[C:4]=[C:5]1[C:6]([H:10])([H:11])[O:7]1)([H:8])[H:9]"
C        2.05850839       0.44132899      -0.20318625
C        2.11752751      -0.62370598       0.47308707
C        1.17703697      -1.38966349       1.00371273
C       -0.04041522      -1.12348500       0.97881091
C       -0.67713541      -0.07958081       0.30780540
C       -1.85773730       0.12522722      -0.50968216
O       -1.62532966       0.81672373       0.72750286
H        2.62350304       1.16750906      -0.75549268
H        0.67754945       0.52848691      -0.14282470
H       -2.66384843      -0.60012274      -0.47699370
H       -1.78965938       0.73728206      -1.40273943
11
Frame=1 idx=009520 GeodesicLength=0.11619229261146101 rxn_smarts="[C:1](#[C:2][C:3]#[C:4][C@@:5]1([H:9])[C:6]([H:10])([H:11])[O:7]1)[H:8]>>[C:1](=[C:2]=[C:3]=[C:4]=[C:5]1[C:6]([H:10])([H:11])[O:7]1)([H:8])[H:9]"
C        2.09583627       0.43047250      -0.21952348
C        2.12742257      -0.62614637       0.47241526
C        1.17094905      -1.37585477       1.00126368
C       -0.04694991      -1.11049467       0.96448922
C       -0.68907112      -0.06682958       0.29884784
C       -1.88265993       0.11523521      -0.50581837
O       -1.65628549       0.80331467       0.73411646
H        2.70767422       1.14850328      -0.73186669
H        0.68846844       0.57161493      -0.14699288
H       -2.67393376      -0.62642119      -0.47285159
H       -1.84145034       0.73660600      -1.39407946
11
Frame=2 idx=009520 GeodesicLength=0.2320927769421485 rxn_smarts="[C:1](#[C:2][C:3]#[C:4][C@@:5]1([H:9])[C:6]([H:10])([H:11])[O:7]1)[H:8]>>[C:1](=[C:2]=[C:3]=[C:4]=[C:5]1[C:6]([H:10])([H:11])[O:7]1)([H:8])[H:9]"
C        2.13405622       0.42154557      -0.23251013
C        2.13728613      -0.62947366       0.46948569
C        1.16490449      -1.36135863       0.99790913
C       -0.05327442      -1.09643201       0.94999505
C       -0.70144576      -0.05329285       0.28990202
C       -1.90748318       0.10507154      -0.50196562
O       -1.68728217       0.78970530       0.74070206
H        2.79005009       1.12644559      -0.70806312
H        0.70013152       0.61574434      -0.15151158
H       -2.68330212      -0.65288912      -0.46885659
H       -1.89364080       0.73493393      -1.38508690
11
Frame=3 idx=009520 GeodesicLength=0.34780301643949696 rxn_smarts="[C:1](#[C:2][C:3]#[C:4][C@@:5]1([H:9])[C:6]([H:10])([H:11])[O:7]1)[H:8]>>[C:1](=[C:2]=[C:3]=[C:4]=[C:5]1[C:6]([H:10])([H:11])[O:7]1)([H:8])[H:9]"
C        2.17366239       0.41500508      -0.24151258
C        2.14706089      -0.63399659       0.46388052
C        1.15874863      -1.34656967       0.99273561
C       -0.05943912      -1.08092894       0.93548923
C       -0.71437985      -0.03898076       0.28065410
C       -1.93266547       0.09452769      -0.49787268
O       -1.71782188       0.77665010       0.74681992
H        2.87202583       1.10228003      -0.68234989
H        0.71241970       0.66011686      -0.15814172
H       -2.69270951      -0.67935944      -0.46364317
H       -1.94690160       0.73125566      -1.37605935
11
Frame=4 idx=009520 GeodesicLength=0.46335646060602603 rxn_smarts="[C:1](#[C:2][C:3]#[C:4][C@@:5]1([H:9])[C:6]([H:10])([H:11])[O:7]1)[H:8]>>[C:1](=[C:2]=[C:3]=[C:4]=[C:5]1[C:6]([H:10])([H:11])[O:7]1)([H:8])[H:9]"
C        2.21501843       0.40973852      -0.24790463
C        2.15694918      -0.63880417       0.45714544
C        1.15247000      -1.33188497       0.98499054
C       -0.06543611      -1.06406437       0.92059640
C       -0.72790777      -0.02404831       0.27069849
C       -1.95854569       0.08362565      -0.49329270
O       -1.74738670       0.76457220       0.75237443
H        2.95398143       1.07708483      -0.65288847
H        0.72535056       0.70405211      -0.16849631
H       -2.70272311      -0.70556410      -0.45628787
H       -2.00177022       0.72529261      -1.36693532
11
Frame=5 idx=009520 GeodesicLength=0.5787994722758582 rxn_smarts="[C:1](#[C:2][C:3]#[C:4][C@@:5]1([H:9])[C:6]([H:10])([H:11])[O:7]1)[H:8]>>[C:1](=[C:2]=[C:3]=[C:4]=[C:5]1[C:6]([H:10])([H:11])[O:7]1)([H:8])[H:9]"
C        2.25835695       0.40616722      -0.25098081
C        2.16693462      -0.64381469       0.44921147
C        1.14608895      -1.31718791       0.97463497
C       -0.07128755      -1.04586088       0.90512774
C       -0.74217961      -0.00854071       0.25999472
C       -1.98520475       0.07233767      -0.48819666
O       -1.77623361       0.75326160       0.75754278
H        3.03638628       1.05026668      -0.62025806
H        0.73880074       0.74780154      -0.18266038
H       -2.71329625      -0.73166550      -0.44694940
H       -2.05836578       0.71723497      -1.35746639
11
Frame=6 idx=009520 GeodesicLength=0.6941085542852863 rxn_smarts="[C:1](#[C:2][C:3]#[C:4][C@@:5]1([H:9])[C:6]([H:10])([H:11])[O:7]1)[H:8]>>[C:1](=[C:2]=[C:3]=[C:4]=[C:5]1[C:6]([H:10])([H:11])[O:7]1)([H:8])[H:9]"
C        2.30359250       0.40325927      -0.25195030
C        2.17729445      -0.64771430       0.44211665
C        1.13974808      -1.30237033       0.96186752
C       -0.07696474      -1.02693084       0.88829428
C       -0.75724468       0.00726704       0.24844274
C       -2.01258841       0.06083437      -0.48263105
O       -1.80442879       0.74217052       0.76270472
H        3.11863472       1.02144686      -0.58536295
H        0.75282752       0.79181928      -0.20000136
H       -2.72434628      -0.75754289      -0.43622143
H       -2.11652438       0.70776103      -1.34725883
11
Frame=7 idx=009520 GeodesicLength=0.8093070483826809 rxn_smarts="[C:1](#[C:2][C:3]#[C:4][C@@:5]1([H:9])[C:6]([H:10])([H:11])[O:7]1)[H:8]>>[C:1](=[C:2]=[C:3]=[C:4]=[C:5]1[C:6]([H:10])([H:11])[O:7]1)([H:8])[H:9]"
C        2.35066728       0.40165050      -0.24974205
C        2.18809448      -0.64972961       0.43688899
C        1.13343272      -1.28744870       0.94651908
C       -0.08251930      -1.00747689       0.86983122
C       -0.77329771       0.02332728       0.23626065
C       -2.04060780       0.04915260      -0.47672884
O       -1.83253207       0.73057950       0.76824948
H        3.20097429       0.98907832      -0.55080281
H        0.76727185       0.83688665      -0.21941538
H       -2.73547610      -0.78345873      -0.42507817
H       -2.17600764       0.69743908      -1.33598217
11
Frame=8 idx=009520 GeodesicLength=0.924369398191879 rxn_smarts="[C:1](#[C:2][C:3]#[C:4][C@@:5]1([H:9])[C:6]([H:10])([H:11])[O:7]1)[H:8]>>[C:1](=[C:2]=[C:3]=[C:4]=[C:5]1[C:6]([H:10])([H:11])[O:7]1)([H:8])[H:9]"
C        2.39973677       0.39936143      -0.24693201
C        2.19931927      -0.65102913       0.43191503
C        1.12721668      -1.27197505       0.92905520
C       -0.08786688      -0.98709312       0.84987884
C       -0.79024025       0.03971865       0.22314003
C       -2.06941634       0.03723573      -0.47021064
O       -1.85989170       0.71936704       0.77381258
H        3.28289362       0.95576574      -0.51199077
H        0.78246681       0.88226078      -0.24265472
H       -2.74707672      -0.80918811      -0.41229303
H       -2.23714126       0.68557603      -1.32372051
11
Frame=9 idx=009520 GeodesicLength=1.0393348155833133 rxn_smarts="[C:1](#[C:2][C:3]#[C:4][C@@:5]1([H:9])[C:6]([H:10])([H:11])[O:7]1)[H:8]>>[C:1](=[C:2]=[C:3]=[C:4]=[C:5]1[C:6]([H:10])([H:11])[O:7]1)([H:8])[H:9]"
C        2.45088356       0.39866515      -0.24009991
C        2.21080174      -0.65141756       0.42695030
C        1.12103899      -1.25580289       0.90918576
C       -0.09309470      -0.96567446       0.82843361
C       -0.80838625       0.05653100       0.20941447
C       -2.09896185       0.02497469      -0.46323517
O       -1.88732376       0.70778252       0.77972566
H        3.36538922       0.91883771      -0.47253092
H        0.79807225       0.92883495      -0.26875566
H       -2.75865034      -0.83522195      -0.39886492
H       -2.29976886       0.67249083      -1.31022321
11
Frame=10 idx=009520 GeodesicLength=1.1541607573478725 rxn_smarts="[C:1](#[C:2][C:3]#[C:4][C@@:5]1([H:9])[C:6]([H:10])([H:11])[O:7]1)[H:8]>>[C:1](=[C:2]=[C:3]=[C:4]=[C:5]1[C:6]([H:10])([H:11])[O:7]1)([H:8])[H:9]"
C        2.50415553       0.39625469      -0.23380734
C        2.22253855      -0.65222743       0.42007027
C        1.11507122      -1.23830240       0.88767003
C       -0.09805259      -0.94287541       0.80553547
C       -0.82752910       0.07380543       0.19469010
C       -2.12931799       0.01237301      -0.45543099
O       -1.91394652       0.69687107       0.78562234
H        3.44710756       0.88196696      -0.42601446
H        0.81466451       0.97582444      -0.29949055
H       -2.77059411      -0.86118238      -0.38333760
H       -2.36409706       0.65749201      -1.29550727
11
Frame=11 idx=009520 GeodesicLength=1.2689063655488289 rxn_smarts="[C:1](#[C:2][C:3]#[C:4][C@@:5]1([H:9])[C:6]([H:10])([H:11])[O:7]1)[H:8]>>[C:1](=[C:2]=[C:3]=[C:4]=[C:5]1[C:6]([H:10])([H:11])[O:7]1)([H:8])[H:9]"
C        2.55912791       0.39661347      -0.22132682
C        2.23474050      -0.64929763       0.41729450
C        1.10914102      -1.21982692       0.86362502
C       -0.10304024      -0.91954439       0.78038097
C       -0.84832811       0.09138819       0.17991386
C       -2.16011148      -0.00058566      -0.44774322
O       -1.94187136       0.68359242       0.79264451
H        3.52974614       0.83694056      -0.38631515
H        0.83139826       1.02635133      -0.32949939
H       -2.78149052      -0.88806606      -0.36989135
H       -2.42931213       0.64243468      -1.27908292
11
Frame=12 idx=009520 GeodesicLength=1.383486342976986 rxn_smarts="[C:1](#[C:2][C:3]#[C:4][C@@:5]1([H:9])[C:6]([H:10])([H:11])[O:7]1)[H:8]>>[C:1](=[C:2]=[C:3]=[C:4]=[C:5]1[C:6]([H:10])([H:11])[O:7]1)([H:8])[H:9]"
C        2.61628733       0.39105926      -0.21526038
C        2.24697872      -0.64911823       0.40879258
C        1.10354970      -1.19902315       0.83885130
C       -0.10762154      -0.89388937       0.75428593
C       -0.87004900       0.10980603       0.16411291
C       -2.19158721      -0.01396644      -0.43881839
O       -1.96853936       0.67193471       0.79942094
H        3.60984365       0.79607849      -0.33189523
H        0.84984688       1.07732376      -0.36498058
H       -2.79254085      -0.91484400      -0.35317588
H       -2.49616830       0.62463895      -1.26133320
11
Frame=13 idx=009520 GeodesicLength=1.4979401695979497 rxn_smarts="[C:1](#[C:2][C:3]#[C:4][C@@:5]1([H:9])[C:6]([H:10])([H:11])[O:7]1)[H:8]>>[C:1](=[C:2]=[C:3]=[C:4]=[C:5]1[C:6]([H:10])([H:11])[O:7]1)([H:8])[H:9]"
C        2.67551656       0.39143809      -0.19723189
C        2.25945846      -0.64487766       0.40396194
C        1.09786758      -1.17695000       0.81035128
C       -0.11230373      -0.86677687       0.72613111
C       -0.89390282       0.12890642       0.14852986
C       -2.22359415      -0.02806050      -0.43005579
O       -1.99711610       0.65750018       0.80739663
H        3.69211940       0.74322935      -0.28799402
H        0.86810728       1.13259764      -0.40035017
H       -2.80201391      -0.94318034      -0.33893365
H       -2.56413855       0.60617370      -1.24180530
11
Frame=14 idx=009520 GeodesicLength=1.612167294293162 rxn_smarts="[C:1](#[C:2][C:3]#[C:4][C@@:5]1([H:9])[C:6]([H:10])([H:11])[O:7]1)[H:8]>>[C:1](=[C:2]=[C:3]=[C:4]=[C:5]1[C:6]([H:10])([H:11])[O:7]1)([H:8])[H:9]"
C        2.73722647       0.38447493      -0.18698740
C        2.27165872      -0.64549826       0.38890652
C        1.09264908      -1.15137481       0.78188466
C       -0.11650565      -0.83648842       0.69731516
C       -0.91885239       0.14914774       0.13211060
C       -2.25610431      -0.04275711      -0.41976893
O       -2.02452403       0.64490519       0.81522151
H        3.77067555       0.69576845      -0.22555914
H        0.88840416       1.18904256      -0.44141018
H       -2.81112717      -0.97161388      -0.32102812
H       -2.63350043       0.58439360      -1.22068469
11
Frame=15 idx=009520 GeodesicLength=1.7262962784138842 rxn_smarts="[C:1](#[C:2][C:3]#[C:4][C@@:5]1([H:9])[C:6]([H:10])([H:11])[O:7]1)[H:8]>>[C:1](=[C:2]=[C:3]=[C:4]=[C:5]1[C:6]([H:10])([H:11])[O:7]1)([H:8])[H:9]"
C        2.80088191       0.37861137      -0.17090007
C        2.28474336      -0.63874691       0.38434992
C        1.08726362      -1.12452573       0.74911136
C       -0.12088907      -0.80491453       0.66535864
C       -0.94607584       0.16992036       0.11570242
C       -2.28906398      -0.05816415      -0.40983359
O       -2.05350146       0.62883592       0.82441790
H        3.84987058       0.63723121      -0.17377016
H        0.90913030       1.25113220      -0.48057824
H       -2.81844147      -1.00150250      -0.30636718
H       -2.70391795       0.56212276      -1.19749099
11
Frame=16 idx=009520 GeodesicLength=1.8401704436802953 rxn_smarts="[C:1](#[C:2][C:3]#[C:4][C@@:5]1([H:9])[C:6]([H:10])([H:11])[O:7]1)[H:8]>>[C:1](=[C:2]=[C:3]=[C:4]=[C:5]1[C:6]([H:10])([H:11])[O:7]1)([H:8])[H:9]"
C        2.86692882       0.36990658      -0.15458023
C        2.29738119      -0.63369821       0.37311375
C        1.08209450      -1.09328032       0.71560133
C       -0.12511467      -0.76935828       0.63265204
C       -0.97534408       0.19220757       0.09935611
C       -2.32224395      -0.07476708      -0.39923934
O       -2.08326846       0.61223716       0.83399534
H        3.92747657       0.57484239      -0.11595648
H        0.93108799       1.31829972      -0.52090532
H       -2.82369825      -1.03287024      -0.29121325
H       -2.77529965       0.53648073      -1.17282395
