14
Frame=0 idx=000826 GeodesicLength=0.0 rxn_smarts="[C:1]1([H:7])([H:8])[C@@:2]2([H:9])[C:3]([H:10])([H:11])[C:4]([H:12])=[C:5]([H:13])[C@@:6]12[H:14]>>[C:1]([C@@:2]1([H:9])[C:3]([H:10])([H:11])[C+:4]([H:12])[C:5]([H:13])=[C-:6]1)([H:7])([H:8])[H:14]"
C       -1.51191941       0.29572830      -0.08041216
C       -0.23194953       0.33948770      -0.89802881
C        1.02132407       0.82815538      -0.17702643
C        1.29213256      -0.30024901       0.77587574
C        0.45959823      -1.32119714       0.57018443
C       -0.41760313      -1.11899333      -0.62413888
H       -1.41577789       0.63478083       0.94620523
H       -2.39962635       0.62561784      -0.61179253
H       -0.36871150       0.69000878      -1.91544325
H        0.91171611       1.79358015       0.32527113
H        1.83998763       0.93952881      -0.89420532
H        2.08094547      -0.26884972       1.51868773
H        0.46435424      -2.24984228       1.12725262
H       -1.72447048      -0.88775635      -0.06242948
14
Frame=1 idx=000826 GeodesicLength=0.0580788946828907 rxn_smarts="[C:1]1([H:7])([H:8])[C@@:2]2([H:9])[C:3]([H:10])([H:11])[C:4]([H:12])=[C:5]([H:13])[C@@:6]12[H:14]>>[C:1]([C@@:2]1([H:9])[C:3]([H:10])([H:11])[C+:4]([H:12])[C:5]([H:13])=[C-:6]1)([H:7])([H:8])[H:14]"
C       -1.51816335       0.30216282      -0.08388868
C       -0.23347647       0.33589893      -0.89250094
C        1.01861717       0.82860555      -0.17284219
C        1.30065528      -0.30226398       0.77331102
C        0.46652780      -1.32391867       0.57508084
C       -0.42192282      -1.11993049      -0.60766073
H       -1.42824734       0.64112391       0.94351114
H       -2.39534386       0.65180259      -0.62008439
H       -0.36062822       0.66540590      -1.91839301
H        0.90077556       1.78921141       0.33686639
H        1.83580072       0.95322958      -0.88955285
H        2.10103320      -0.27415817       1.50390185
H        0.48170488      -2.25481538       1.12827788
H       -1.74733256      -0.89235402      -0.07602634
14
Frame=2 idx=000826 GeodesicLength=0.1161267311197226 rxn_smarts="[C:1]1([H:7])([H:8])[C@@:2]2([H:9])[C:3]([H:10])([H:11])[C:4]([H:12])=[C:5]([H:13])[C@@:6]12[H:14]>>[C:1]([C@@:2]1([H:9])[C:3]([H:10])([H:11])[C+:4]([H:12])[C:5]([H:13])=[C-:6]1)([H:7])([H:8])[H:14]"
C       -1.52445738       0.30871476      -0.08737966
C       -0.23507904       0.33217919      -0.88683752
C        1.01587353       0.82899980      -0.16864351
C        1.30940340      -0.30430759       0.77052824
C        0.47376432      -1.32671763       0.57997858
C       -0.42654031      -1.12078880      -0.59049057
H       -1.44084594       0.64748550       0.94080450
H       -2.39055181       0.67821992      -0.62825224
H       -0.35261675       0.64037843      -1.92071984
H        0.88990475       1.78459953       0.34856720
H        1.83131043       0.96700166      -0.88492046
H        2.12100355      -0.27919254       1.48886546
H        0.49922858      -2.25970080       1.12935563
H       -1.77039734      -0.89687142      -0.09085581
14
Frame=3 idx=000826 GeodesicLength=0.1741254505031259 rxn_smarts="[C:1]1([H:7])([H:8])[C@@:2]2([H:9])[C:3]([H:10])([H:11])[C:4]([H:12])=[C:5]([H:13])[C@@:6]12[H:14]>>[C:1]([C@@:2]1([H:9])[C:3]([H:10])([H:11])[C+:4]([H:12])[C:5]([H:13])=[C-:6]1)([H:7])([H:8])[H:14]"
C       -1.53079241       0.31538579      -0.09085807
C       -0.23677005       0.32834039      -0.88104441
C        1.01311705       0.82932443      -0.16446704
C        1.31841336      -0.30640622       0.76746849
C        0.48137422      -1.32963421       0.58478677
C       -0.43147833      -1.12154417      -0.57263712
H       -1.45353749       0.65384953       0.93811895
H       -2.38525733       0.70483255      -0.63622500
H       -0.34474933       0.61497227      -1.92241054
H        0.87915628       1.77973327       0.36034985
H        1.82652315       0.98080960      -0.88036949
H        2.14071652      -0.28387181       1.47374962
H        0.51686306      -2.26447936       1.13052838
H       -1.79357871      -0.90131206      -0.10699039
14
Frame=4 idx=000826 GeodesicLength=0.23202447398821638 rxn_smarts="[C:1]1([H:7])([H:8])[C@@:2]2([H:9])[C:3]([H:10])([H:11])[C:4]([H:12])=[C:5]([H:13])[C@@:6]12[H:14]>>[C:1]([C@@:2]1([H:9])[C:3]([H:10])([H:11])[C+:4]([H:12])[C:5]([H:13])=[C-:6]1)([H:7])([H:8])[H:14]"
C       -1.53712663       0.32214146      -0.09426276
C       -0.23854763       0.32439022      -0.87509511
C        1.01036323       0.82957379      -0.16035000
C        1.32768980      -0.30857113       0.76403359
C        0.48940670      -1.33270124       0.58932907
C       -0.43670087      -1.12218474      -0.55407211
H       -1.46624864       0.66018933       0.93550481
H       -2.37944023       0.73155047      -0.64392938
H       -0.33703156       0.58922298      -1.92340325
H        0.86858553       1.77459012       0.37216470
H        1.82142186       0.99465112      -0.87593258
H        2.16000681      -0.28810679       1.45865595
H        0.53440501      -2.26905677       1.13183651
H       -1.81678339      -0.90568881      -0.12447944
14
Frame=5 idx=000826 GeodesicLength=0.2898869206020318 rxn_smarts="[C:1]1([H:7])([H:8])[C@@:2]2([H:9])[C:3]([H:10])([H:11])[C:4]([H:12])=[C:5]([H:13])[C@@:6]12[H:14]>>[C:1]([C@@:2]1([H:9])[C:3]([H:10])([H:11])[C+:4]([H:12])[C:5]([H:13])=[C-:6]1)([H:7])([H:8])[H:14]"
C       -1.54351011       0.32901466      -0.09760777
C       -0.24043242       0.32033771      -0.86901151
C        1.00761938       0.82974307      -0.15629527
C        1.33726750      -0.31082727       0.76023691
C        0.49792133      -1.33595664       0.59359789
C       -0.44224381      -1.12267901      -0.53477694
H       -1.47904138       0.66654883       0.93296631
H       -2.37316889       0.75838558      -0.65136307
H       -0.32953425       0.56314830      -1.92375261
H        0.85818886       1.76917418       0.38404379
H        1.81602263       1.00850728      -0.87164488
H        2.17894790      -0.29193784       1.44365187
H        0.55189949      -2.27346749       1.13335567
H       -1.83993624      -0.90999138      -0.14340038
14
Frame=6 idx=000826 GeodesicLength=0.3476377583359331 rxn_smarts="[C:1]1([H:7])([H:8])[C@@:2]2([H:9])[C:3]([H:10])([H:11])[C:4]([H:12])=[C:5]([H:13])[C@@:6]12[H:14]>>[C:1]([C@@:2]1([H:9])[C:3]([H:10])([H:11])[C+:4]([H:12])[C:5]([H:13])=[C-:6]1)([H:7])([H:8])[H:14]"
C       -1.54988273       0.33597849      -0.10090441
C       -0.24242756       0.31617672      -0.86276398
C        1.00487088       0.82983425      -0.15229523
C        1.34710133      -0.31316124       0.75601997
C        0.50692678      -1.33941520       0.59748141
C       -0.44814619      -1.12297422      -0.51473101
H       -1.49182497       0.67293684       0.93041543
H       -2.36634904       0.78526232      -0.65846144
H       -0.32230514       0.53673980      -1.92340382
H        0.84798330       1.76347049       0.39600247
H        1.81028171       1.02238463      -0.86747538
H        2.19747284      -0.29533704       1.42873168
H        0.56924880      -2.27766297       1.13512647
H       -1.86295002      -0.91423287      -0.16374216
14
Frame=7 idx=000826 GeodesicLength=0.40535623143521043 rxn_smarts="[C:1]1([H:7])([H:8])[C@@:2]2([H:9])[C:3]([H:10])([H:11])[C:4]([H:12])=[C:5]([H:13])[C@@:6]12[H:14]>>[C:1]([C@@:2]1([H:9])[C:3]([H:10])([H:11])[C+:4]([H:12])[C:5]([H:13])=[C-:6]1)([H:7])([H:8])[H:14]"
C       -1.55635632       0.34312982      -0.10415936
C       -0.24454894       0.31189924      -0.85632084
C        1.00208327       0.82985877      -0.14829388
C        1.35714603      -0.31553305       0.75150628
C        0.51634852      -1.34303472       0.60112133
C       -0.45444620      -1.12306146      -0.49371934
H       -1.50477381       0.67952384       0.92789755
H       -2.35911110       0.81219250      -0.66541489
H       -0.31526612       0.50987284      -1.92233635
H        0.83791158       1.75749617       0.40807263
H        1.80418096       1.03628088      -0.86336806
H        2.21589397      -0.29847766       1.41362285
H        0.58665032      -2.28178242       1.13705544
H       -1.88571216      -0.91836478      -0.18566339
14
Frame=8 idx=000826 GeodesicLength=0.46296075176356577 rxn_smarts="[C:1]1([H:7])([H:8])[C@@:2]2([H:9])[C:3]([H:10])([H:11])[C:4]([H:12])=[C:5]([H:13])[C@@:6]12[H:14]>>[C:1]([C@@:2]1([H:9])[C:3]([H:10])([H:11])[C+:4]([H:12])[C:5]([H:13])=[C-:6]1)([H:7])([H:8])[H:14]"
C       -1.56288495       0.35039737      -0.10735594
C       -0.24680386       0.30751835      -0.84969583
C        0.99928558       0.82979999      -0.14432907
C        1.36743795      -0.31801245       0.74657407
C        0.52632845      -1.34691288       0.60424270
C       -0.46112265      -1.12289868      -0.47180917
H       -1.51782725       0.68627196       0.92536480
H       -2.35139789       0.83908131      -0.67209663
H       -0.30851140       0.48262663      -1.92057825
H        0.82802889       1.75121748       0.42026757
H        1.79773547       1.05019343      -0.85937179
H        2.23398484      -0.30128188       1.39857868
H        0.60390420      -2.28561725       1.13922804
H       -1.90815738      -0.92238339      -0.20901917
14
Frame=9 idx=000826 GeodesicLength=0.5204970264698892 rxn_smarts="[C:1]1([H:7])([H:8])[C@@:2]2([H:9])[C:3]([H:10])([H:11])[C:4]([H:12])=[C:5]([H:13])[C@@:6]12[H:14]>>[C:1]([C@@:2]1([H:9])[C:3]([H:10])([H:11])[C+:4]([H:12])[C:5]([H:13])=[C-:6]1)([H:7])([H:8])[H:14]"
C       -1.56952794       0.35791505      -0.11051659
C       -0.24921463       0.30301061      -0.84281110
C        0.99642828       0.82966728      -0.14033954
C        1.37784650      -0.32051800       0.74136163
C        0.53667921      -1.35096687       0.60702216
C       -0.46829219      -1.12242540      -0.44872675
H       -1.53107897       0.69348893       0.92277964
H       -2.34326681       0.86590367      -0.67872358
H       -0.30197491       0.45480613      -1.91801070
H        0.81831301       1.74467760       0.43257006
H        1.79089929       1.06406195      -0.85540464
H        2.25189044      -0.30382895       1.38337884
H        0.62136565      -2.28949961       1.14126912
H       -1.93006693      -0.92629238      -0.23384855
14
Frame=10 idx=000826 GeodesicLength=0.5780269088219722 rxn_smarts="[C:1]1([H:7])([H:8])[C@@:2]2([H:9])[C:3]([H:10])([H:11])[C:4]([H:12])=[C:5]([H:13])[C@@:6]12[H:14]>>[C:1]([C@@:2]1([H:9])[C:3]([H:10])([H:11])[C+:4]([H:12])[C:5]([H:13])=[C-:6]1)([H:7])([H:8])[H:14]"
C       -1.57631800       0.36569351      -0.11365485
C       -0.25179469       0.29839684      -0.83568451
C        0.99352138       0.82945792      -0.13632443
C        1.38839107      -0.32309041       0.73586167
C        0.54748154      -1.35526500       0.60934427
C       -0.47594464      -1.12158696      -0.42443183
H       -1.54456349       0.70125877       0.92010761
H       -2.33478774       0.89261349      -0.68532716
H       -0.29570272       0.42643368      -1.91468539
H        0.80876473       1.73786839       0.44502132
H        1.78369151       1.07788515      -0.85148794
H        2.26959811      -0.30615904       1.36811347
H        0.63902155      -2.29340795       1.14318806
H       -1.95135861      -0.93009838      -0.26004028
14
Frame=11 idx=000826 GeodesicLength=0.6354115471680281 rxn_smarts="[C:1]1([H:7])([H:8])[C@@:2]2([H:9])[C:3]([H:10])([H:11])[C:4]([H:12])=[C:5]([H:13])[C@@:6]12[H:14]>>[C:1]([C@@:2]1([H:9])[C:3]([H:10])([H:11])[C+:4]([H:12])[C:5]([H:13])=[C-:6]1)([H:7])([H:8])[H:14]"
C       -1.58318585       0.37366959      -0.11677815
C       -0.25454298       0.29370142      -0.82828871
C        0.99056674       0.82917883      -0.13227181
C        1.39904290      -0.32573007       0.72995845
C        0.55876407      -1.35984394       0.61093595
C       -0.48407418      -1.12028946      -0.39894897
H       -1.55816579       0.70955433       0.91725139
H       -2.32591129       0.91903575      -0.69185299
H       -0.28974985       0.39757292      -1.91050858
H        0.79943218       1.73074077       0.45767160
H        1.77607668       1.09170595      -0.84756761
H        2.28704314      -0.30828067       1.35271500
H        0.65653759      -2.29714023       1.14518851
H       -1.97183335      -0.93387519      -0.28750408
14
Frame=12 idx=000826 GeodesicLength=0.6927992124709844 rxn_smarts="[C:1]1([H:7])([H:8])[C@@:2]2([H:9])[C:3]([H:10])([H:11])[C:4]([H:12])=[C:5]([H:13])[C@@:6]12[H:14]>>[C:1]([C@@:2]1([H:9])[C:3]([H:10])([H:11])[C+:4]([H:12])[C:5]([H:13])=[C-:6]1)([H:7])([H:8])[H:14]"
C       -1.59027492       0.38205359      -0.11995389
C       -0.25749370       0.28888377      -0.82056579
C        0.98751936       0.82882319      -0.12810720
C        1.40964667      -0.32837742       0.72395883
C        0.57031454      -1.36461329       0.61213924
C       -0.49280320      -1.11845721      -0.37186083
H       -1.57213843       0.71891926       0.91411679
H       -2.31676317       0.94521715      -0.69869364
H       -0.28402581       0.36791508      -1.90545299
H        0.79026038       1.72339482       0.47047232
H        1.76808302       1.10537220      -0.84358771
H        2.30431566      -0.31028840       1.33718339
H        0.67474939      -2.30126648       1.14630473
H       -1.99138979      -0.93757624      -0.31595326
14
Frame=13 idx=000826 GeodesicLength=0.7501949581625306 rxn_smarts="[C:1]1([H:7])([H:8])[C@@:2]2([H:9])[C:3]([H:10])([H:11])[C:4]([H:12])=[C:5]([H:13])[C@@:6]12[H:14]>>[C:1]([C@@:2]1([H:9])[C:3]([H:10])([H:11])[C+:4]([H:12])[C:5]([H:13])=[C-:6]1)([H:7])([H:8])[H:14]"
C       -1.59765989       0.39105424      -0.12330045
C       -0.26068081       0.28386730      -0.81239725
C        0.98431484       0.82837977      -0.12372218
C        1.41993804      -0.33089833       0.71824513
C        0.58179540      -1.36939674       0.61341259
C       -0.50234119      -1.11592191      -0.34265227
H       -1.58663739       0.72998345       0.91042514
H       -2.30733306       0.97112864      -0.70628593
H       -0.27844617       0.33704660      -1.89935605
H        0.78121425       1.71595594       0.48333165
H        1.75971843       1.11866335      -0.83942660
H        2.32139259      -0.31220775       1.32152236
H        0.69468431      -2.30649188       1.14512737
H       -2.00995936      -0.94116267      -0.34492352
14
Frame=14 idx=000826 GeodesicLength=0.8076058012657806 rxn_smarts="[C:1]1([H:7])([H:8])[C@@:2]2([H:9])[C:3]([H:10])([H:11])[C:4]([H:12])=[C:5]([H:13])[C@@:6]12[H:14]>>[C:1]([C@@:2]1([H:9])[C:3]([H:10])([H:11])[C+:4]([H:12])[C:5]([H:13])=[C-:6]1)([H:7])([H:8])[H:14]"
C       -1.60526648       0.40054991      -0.12676464
C       -0.26409168       0.27875722      -0.80384828
C        0.98101832       0.82787366      -0.11919223
C        1.43006116      -0.33341382       0.71254251
C        0.59343541      -1.37436603       0.61419155
C       -0.51249452      -1.11260357      -0.31154177
H       -1.60150580       0.74257164       0.90623733
H       -2.29769313       0.99660168      -0.71447624
H       -0.27314342       0.30524837      -1.89223951
H        0.77236951       1.70837094       0.49632328
H        1.75100461       1.13171107      -0.83518519
H        2.33809167      -0.31401659       1.30594481
H        0.71547751      -2.31240061       1.14226592
H       -2.02726314      -0.94488388      -0.37425753
14
Frame=15 idx=000826 GeodesicLength=0.8650247180122923 rxn_smarts="[C:1]1([H:7])([H:8])[C@@:2]2([H:9])[C:3]([H:10])([H:11])[C:4]([H:12])=[C:5]([H:13])[C@@:6]12[H:14]>>[C:1]([C@@:2]1([H:9])[C:3]([H:10])([H:11])[C+:4]([H:12])[C:5]([H:13])=[C-:6]1)([H:7])([H:8])[H:14]"
C       -1.61318405       0.41083134      -0.13049872
C       -0.26777336       0.27343282      -0.79472993
C        0.97757640       0.82727112      -0.11439338
C        1.43964647      -0.33569633       0.70743564
C        0.60469312      -1.37917966       0.61523855
C       -0.52356130      -1.10821770      -0.27777667
H       -1.61692460       0.75757254       0.90116136
H       -2.28781936       1.02155909      -0.72389582
H       -0.26802656       0.27190361      -1.88379594
H        0.76374213       1.70084090       0.50921018
H        1.74201651       1.14410658      -0.83073638
H        2.35425187      -0.31561662       1.29070733
H        0.73865094      -2.32008240       1.13530679
H       -2.04328821      -0.94872530      -0.40323301
14
Frame=16 idx=000826 GeodesicLength=0.9224840431248578 rxn_smarts="[C:1]1([H:7])([H:8])[C@@:2]2([H:9])[C:3]([H:10])([H:11])[C:4]([H:12])=[C:5]([H:13])[C@@:6]12[H:14]>>[C:1]([C@@:2]1([H:9])[C:3]([H:10])([H:11])[C+:4]([H:12])[C:5]([H:13])=[C-:6]1)([H:7])([H:8])[H:14]"
C       -1.62137075       0.42178978      -0.13450528
C       -0.27170007       0.26800760      -0.78508761
C        0.97402315       0.82663749      -0.10932485
C        1.44880946      -0.33785061       0.70277437
C        0.61571994      -1.38396724       0.61615351
C       -0.53531324      -1.10264634      -0.24149894
H       -1.63283732       0.77489359       0.89518667
H       -2.27781307       1.04581336      -0.73454696
H       -0.26315169       0.23725242      -1.87402188
H        0.75531865       1.69336482       0.52215167
H        1.73276524       1.15604476      -0.82610381
H        2.36998118      -0.31720224       1.27567287
H        0.76328563      -2.32910811       1.12475964
H       -2.05771709      -0.95302927      -0.43160941
