9
Frame=0 idx=005271 GeodesicLength=0.0 rxn_smarts="[n:1]1([H:6])[c:2]([H:7])[c:3]([H:8])[c:4]([H:9])[n:5]1>>[N:1]1([H:6])[C:2]([H:7])([H:8])[C+:3]=[C:4]([H:9])[N-:5]1"
N       -0.93511439      -0.47424658      -0.02234225
C       -0.44853413       0.82749760       0.15868913
C        0.99058292       0.76537826       0.33784931
C        1.17122565      -0.63508727       0.07151970
N        0.05722476      -1.32752083      -0.10028390
H       -1.87458213      -0.78869176      -0.19120469
H       -1.12077337       1.59618815       0.51765376
H        0.05062267       1.20663844      -0.82546972
H        2.10934802      -1.17015600       0.05358868
9
Frame=1 idx=005271 GeodesicLength=0.056551602844020415 rxn_smarts="[n:1]1([H:6])[c:2]([H:7])[c:3]([H:8])[c:4]([H:9])[n:5]1>>[N:1]1([H:6])[C:2]([H:7])([H:8])[C+:3]=[C:4]([H:9])[N-:5]1"
N       -0.93601302      -0.47568655      -0.02904578
C       -0.45189648       0.82664788       0.15254383
C        0.98518367       0.76353202       0.33007172
C        1.16952278      -0.63697497       0.07878537
N        0.05513074      -1.33123527      -0.08954228
H       -1.87634776      -0.79326873      -0.18669752
H       -1.12251646       1.58996548       0.52577067
H        0.06778970       1.22578517      -0.83091456
H        2.10914683      -1.16876502       0.04902855
9
Frame=2 idx=005271 GeodesicLength=0.11310593377367062 rxn_smarts="[n:1]1([H:6])[c:2]([H:7])[c:3]([H:8])[c:4]([H:9])[n:5]1>>[N:1]1([H:6])[C:2]([H:7])([H:8])[C+:3]=[C:4]([H:9])[N-:5]1"
N       -0.93689011      -0.47727522      -0.03605208
C       -0.45535961       0.82574143       0.14600386
C        0.97964826       0.76159008       0.32235877
C        1.16778209      -0.63874996       0.08582207
N        0.05296308      -1.33490627      -0.07853529
H       -1.87811229      -0.79795945      -0.18163982
H       -1.12428360       1.58341105       0.53360769
H        0.08553882       1.24550285      -0.83596465
H        2.10871336      -1.16735452       0.04439946
9
Frame=3 idx=005271 GeodesicLength=0.1696632651120734 rxn_smarts="[n:1]1([H:6])[c:2]([H:7])[c:3]([H:8])[c:4]([H:9])[n:5]1>>[N:1]1([H:6])[C:2]([H:7])([H:8])[C+:3]=[C:4]([H:9])[N-:5]1"
N       -0.93774706      -0.47904036      -0.04322947
C       -0.45892584       0.82476394       0.13910201
C        0.97399999       0.75957306       0.31456040
C        1.16601936      -0.64039711       0.09246875
N        0.05073190      -1.33851215      -0.06731826
H       -1.87983877      -0.80272253      -0.17612320
H       -1.12604901       1.57651457       0.54121369
H        0.10376402       1.26580740      -0.84058904
H        2.10804541      -1.16598683       0.03991513
9
Frame=4 idx=005271 GeodesicLength=0.2262643238462907 rxn_smarts="[n:1]1([H:6])[c:2]([H:7])[c:3]([H:8])[c:4]([H:9])[n:5]1>>[N:1]1([H:6])[C:2]([H:7])([H:8])[C+:3]=[C:4]([H:9])[N-:5]1"
N       -0.93859759      -0.48101468      -0.05036492
C       -0.46259721       0.82369986       0.13189651
C        0.96826264       0.75750561       0.30652153
C        1.16424563      -0.64190713       0.09862409
N        0.04844120      -1.34203630      -0.05591684
H       -1.88149212      -0.80750693      -0.17033938
H       -1.12777959       1.56928839       0.54863957
H        0.12235533       1.28667580      -0.84477673
H        2.10716170      -1.16470462       0.03571617
9
Frame=5 idx=005271 GeodesicLength=0.2828779056214905 rxn_smarts="[n:1]1([H:6])[c:2]([H:7])[c:3]([H:8])[c:4]([H:9])[n:5]1>>[N:1]1([H:6])[C:2]([H:7])([H:8])[C+:3]=[C:4]([H:9])[N-:5]1"
N       -0.93946433      -0.48323345      -0.05717481
C       -0.46638861       0.82252543       0.12447605
C        0.96246230       0.75541309       0.29807637
C        1.16246959      -0.64328180       0.10426214
N        0.04611866      -1.34545682      -0.04429126
H       -1.88301873      -0.81225024      -0.16460413
H       -1.12941770       1.56178521       0.55591621
H        0.14116038       1.30804410      -0.84850208
H        2.10607843      -1.16354553       0.03184151
9
Frame=6 idx=005271 GeodesicLength=0.339553762380631 rxn_smarts="[n:1]1([H:6])[c:2]([H:7])[c:3]([H:8])[c:4]([H:9])[n:5]1>>[N:1]1([H:6])[C:2]([H:7])([H:8])[C+:3]=[C:4]([H:9])[N-:5]1"
N       -0.94039118      -0.48573786      -0.06341002
C       -0.47029978       0.82124070       0.11693785
C        0.95663434       0.75333674       0.28907721
C        1.16070403      -0.64451314       0.10938376
N        0.04376831      -1.34877501      -0.03247160
H       -1.88443586      -0.81696279      -0.15917800
H       -1.13090369       1.55408934       0.56309050
H        0.16009764       1.32983552      -0.85176615
H        2.10482620      -1.16251350       0.02833644
9
Frame=7 idx=005271 GeodesicLength=0.39638244330161854 rxn_smarts="[n:1]1([H:6])[c:2]([H:7])[c:3]([H:8])[c:4]([H:9])[n:5]1>>[N:1]1([H:6])[C:2]([H:7])([H:8])[C+:3]=[C:4]([H:9])[N-:5]1"
N       -0.94148030      -0.48855678      -0.06892872
C       -0.47434047       0.81987279       0.10938676
C        0.95084590       0.75131293       0.27945976
C        1.15900365      -0.64561152       0.11408810
N        0.04139345      -1.35204416      -0.02050393
H       -1.88588685      -0.82173702      -0.15421608
H       -1.13217914       1.54631903       0.57012655
H        0.17915089       1.35202560      -0.85456129
H        2.10349288      -1.16158087       0.02514885
9
Frame=8 idx=005271 GeodesicLength=0.4526360083667402 rxn_smarts="[n:1]1([H:6])[c:2]([H:7])[c:3]([H:8])[c:4]([H:9])[n:5]1>>[N:1]1([H:6])[C:2]([H:7])([H:8])[C+:3]=[C:4]([H:9])[N-:5]1"
N       -0.94247335      -0.49156750      -0.07279239
C       -0.47842668       0.81841541       0.10138176
C        0.94482188       0.74908357       0.26961246
C        1.15718487      -0.64660716       0.11800620
N        0.03898429      -1.35517947      -0.00832556
H       -1.88703862      -0.82639655      -0.14995924
H       -1.13333596       1.53824720       0.57674782
H        0.19830728       1.37475880      -0.85682636
H        2.10197629      -1.16075430       0.02215531
9
Frame=9 idx=005271 GeodesicLength=0.5086873685172263 rxn_smarts="[n:1]1([H:6])[c:2]([H:7])[c:3]([H:8])[c:4]([H:9])[n:5]1>>[N:1]1([H:6])[C:2]([H:7])([H:8])[C+:3]=[C:4]([H:9])[N-:5]1"
N       -0.94364535      -0.49487535      -0.07598226
C       -0.48265191       0.81686343       0.09322619
C        0.93879612       0.74687678       0.25924384
C        1.15541304      -0.64749124       0.12156747
N        0.03658703      -1.35824931       0.00378347
H       -1.88829225      -0.83121803      -0.14589863
H       -1.13427975       1.53020102       0.58306671
H        0.21766000       1.39790322      -0.85845641
H        2.10041306      -1.16001052       0.01944962
9
Frame=10 idx=005271 GeodesicLength=0.5648237117120986 rxn_smarts="[n:1]1([H:6])[c:2]([H:7])[c:3]([H:8])[c:4]([H:9])[n:5]1>>[N:1]1([H:6])[C:2]([H:7])([H:8])[C+:3]=[C:4]([H:9])[N-:5]1"
N       -0.94492438      -0.49842289      -0.07847732
C       -0.48702676       0.81519630       0.08489605
C        0.93268842       0.74463026       0.24834136
C        1.15362720      -0.64828026       0.12476324
N        0.03419855      -1.36122655       0.01592671
H       -1.88956974      -0.83618901      -0.14199458
H       -1.13506753       1.52207782       0.58902612
H        0.23732350       1.42155914      -0.85943789
H        2.09875073      -1.15934482       0.01695631
9
Frame=11 idx=005271 GeodesicLength=0.6210505535356184 rxn_smarts="[n:1]1([H:6])[c:2]([H:7])[c:3]([H:8])[c:4]([H:9])[n:5]1>>[N:1]1([H:6])[C:2]([H:7])([H:8])[C+:3]=[C:4]([H:9])[N-:5]1"
N       -0.94631467      -0.50220993      -0.08041790
C       -0.49155214       0.81340098       0.07634173
C        0.92649664       0.74232042       0.23689517
C        1.15181965      -0.64899489       0.12761415
N        0.03181373      -1.36414887       0.02822235
H       -1.89089616      -0.84134593      -0.13814488
H       -1.13571677       1.51388283       0.59455845
H        0.25733941       1.44586076      -0.85967884
H        2.09701031      -1.15876537       0.01460978
9
Frame=12 idx=005271 GeodesicLength=0.6774382851052975 rxn_smarts="[n:1]1([H:6])[c:2]([H:7])[c:3]([H:8])[c:4]([H:9])[n:5]1>>[N:1]1([H:6])[C:2]([H:7])([H:8])[C+:3]=[C:4]([H:9])[N-:5]1"
N       -0.94781661      -0.50623711      -0.08192755
C       -0.49626587       0.81143811       0.06754160
C        0.92018330       0.73995606       0.22487469
C        1.14997080      -0.64963333       0.13014950
N        0.02944643      -1.36697107       0.04079012
H       -1.89226906      -0.84674177      -0.13428098
H       -1.13625216       1.50566100       0.59961190
H        0.27784113       1.47077912      -0.85904527
H        2.09516204      -1.15825102       0.01228600
9
Frame=13 idx=005271 GeodesicLength=0.733596345525033 rxn_smarts="[n:1]1([H:6])[c:2]([H:7])[c:3]([H:8])[c:4]([H:9])[n:5]1>>[N:1]1([H:6])[C:2]([H:7])([H:8])[C+:3]=[C:4]([H:9])[N-:5]1"
N       -0.94942025      -0.51049278      -0.08273452
C       -0.50111273       0.80933485       0.05835341
C        0.91372053       0.73745863       0.21242509
C        1.14808185      -0.65020842       0.13239983
N        0.02708452      -1.36973678       0.05338066
H       -1.89368310      -0.85234099      -0.13030114
H       -1.13670356       1.49741698       0.60396488
H        0.29879523       1.49633312      -0.85743879
H        2.09323752      -1.15776461       0.00995058
9
Frame=14 idx=005271 GeodesicLength=0.789797472832639 rxn_smarts="[n:1]1([H:6])[c:2]([H:7])[c:3]([H:8])[c:4]([H:9])[n:5]1>>[N:1]1([H:6])[C:2]([H:7])([H:8])[C+:3]=[C:4]([H:9])[N-:5]1"
N       -0.95115337      -0.51499475      -0.08307290
C       -0.50614961       0.80705765       0.04879070
C        0.90711452       0.73486777       0.19937124
C        1.14615061      -0.65072434       0.13436764
N        0.02474509      -1.37243782       0.06606874
H       -1.89518029      -0.85821523      -0.12606664
H       -1.13707729       1.48918150       0.60763897
H        0.32031582       1.52258989      -0.85473698
H        2.09123452      -1.15732467       0.00763923
9
Frame=15 idx=005271 GeodesicLength=0.8460192748861038 rxn_smarts="[n:1]1([H:6])[c:2]([H:7])[c:3]([H:8])[c:4]([H:9])[n:5]1>>[N:1]1([H:6])[C:2]([H:7])([H:8])[C+:3]=[C:4]([H:9])[N-:5]1"
N       -0.95300598      -0.51974708      -0.08298287
C       -0.51138260       0.80458345       0.03878872
C        0.90034878       0.73215899       0.18567076
C        1.14417035      -0.65118288       0.13605797
N        0.02242808      -1.37507184       0.07901163
H       -1.89674978      -0.86437846      -0.12154312
H       -1.13739392       1.48095575       0.61053060
H        0.34245409       1.54960896      -0.85077348
H        2.08913097      -1.15692689       0.00523980
9
Frame=16 idx=005271 GeodesicLength=0.9022391855416458 rxn_smarts="[n:1]1([H:6])[c:2]([H:7])[c:3]([H:8])[c:4]([H:9])[n:5]1>>[N:1]1([H:6])[C:2]([H:7])([H:8])[C+:3]=[C:4]([H:9])[N-:5]1"
N       -0.95497393      -0.52475918      -0.08252226
C       -0.51682114       0.80188668       0.02825602
C        0.89340432       0.72931377       0.17126845
C        1.14213793      -0.65158556       0.13747268
N        0.02012834      -1.37762121       0.09227490
H       -1.89839327      -0.87084958      -0.11660558
H       -1.13768978       1.47274637       0.61251789
H        0.36528304       1.57744096      -0.84534616
H        2.08692451      -1.15657225       0.00268406
