19
Frame=0 idx=007565 GeodesicLength=0.0 rxn_smarts="[C:1]([C@@:2]([O:3][H:12])([C@@:4]1([H:13])[C:5]([H:14])([H:15])[C@:6]1([C:7]([H:17])([H:18])[H:19])[H:16])[H:11])([H:8])([H:9])[H:10]>>[C:1](/[C:2]([O:3][H:12])=[C:4](\[C:5]([C:6]([C:7]([H:11])([H:17])[H:19])([H:16])[H:18])([H:14])[H:15])[H:13])([H:8])([H:9])[H:10]"
C        2.09832446      -0.35655528      -0.34759621
C        0.96752902       0.00960510       0.60034062
O        1.50655536       0.04663320       1.90806821
C        0.13814030       1.14450246       0.26655791
C       -0.75052900       1.12064500      -0.90052540
C       -1.67479952       0.18169938      -0.16038878
C       -1.38024057      -1.24705774      -0.15367183
H        1.73478510      -0.40721656      -1.37494157
H        2.51466686      -1.32896574      -0.07896602
H        2.88846900       0.39368497      -0.29420690
H        0.23264374      -0.91595669       0.50687883
H        0.79664189       0.27256775       2.51179636
H       -0.02508246       1.91145005       1.01470274
H       -0.34906203       0.67112590      -1.81050944
H       -1.21234532       2.07485606      -1.13865733
H       -2.26392268       0.58958192       0.65023125
H       -1.00775103      -1.71150270      -1.05864672
H       -2.45296260      -0.56204279      -0.77121225
H       -1.76106056      -1.88705426       0.63074661
19
Frame=1 idx=007565 GeodesicLength=0.0859601075557955 rxn_smarts="[C:1]([C@@:2]([O:3][H:12])([C@@:4]1([H:13])[C:5]([H:14])([H:15])[C@:6]1([C:7]([H:17])([H:18])[H:19])[H:16])[H:11])([H:8])([H:9])[H:10]>>[C:1](/[C:2]([O:3][H:12])=[C:4](\[C:5]([C:6]([C:7]([H:11])([H:17])[H:19])([H:16])[H:18])([H:14])[H:15])[H:13])([H:8])([H:9])[H:10]"
C        2.10985934      -0.34352552      -0.34762205
C        0.97290588       0.00449551       0.59829132
O        1.50791102       0.03977739       1.90677303
C        0.13454960       1.13224908       0.26738113
C       -0.74915877       1.11522200      -0.90551235
C       -1.67610488       0.18659319      -0.15660871
C       -1.39291949      -1.24745187      -0.14619363
H        1.75257126      -0.38927199      -1.37723941
H        2.53345552      -1.31434073      -0.08459705
H        2.89461519       0.41172205      -0.28477605
H        0.22275138      -0.93659251       0.49411511
H        0.79551283       0.26066229       2.50956242
H       -0.02038752       1.90588454       1.01033471
H       -0.34721128       0.65808303      -1.81110820
H       -1.20349532       2.07240800      -1.14590959
H       -2.26621429       0.60225836       0.64959724
H       -1.01889154      -1.71638303      -1.04850860
H       -2.46641551      -0.56250851      -0.76866839
H       -1.78333343      -1.87928127       0.64068909
19
Frame=2 idx=007565 GeodesicLength=0.17179274108152084 rxn_smarts="[C:1]([C@@:2]([O:3][H:12])([C@@:4]1([H:13])[C:5]([H:14])([H:15])[C@:6]1([C:7]([H:17])([H:18])[H:19])[H:16])[H:11])([H:8])([H:9])[H:10]>>[C:1](/[C:2]([O:3][H:12])=[C:4](\[C:5]([C:6]([C:7]([H:11])([H:17])[H:19])([H:16])[H:18])([H:14])[H:15])[H:13])([H:8])([H:9])[H:10]"
C        2.12132426      -0.33039407      -0.34751838
C        0.97847964      -0.00040873       0.59624159
O        1.50936935       0.03295631       1.90549164
C        0.13102677       1.11995811       0.26817665
C       -0.74775857       1.10967164      -0.91044787
C       -1.67727300       0.19143679      -0.15279236
C       -1.40561377      -1.24782304      -0.13881475
H        1.77013908      -0.37114740      -1.37929901
H        2.55207615      -1.29955395      -0.09004930
H        2.90064252       0.42972462      -0.27524936
H        0.21253872      -0.95747493       0.48111118
H        0.79446626       0.24873178       2.50728639
H       -0.01551738       1.90033672       1.00573942
H       -0.34541206       0.64494748      -1.81163057
H       -1.19457809       2.06977901      -1.15311023
H       -2.26827877       0.61485842       0.64897705
H       -1.03028487      -1.72122205      -1.03855060
H       -2.47999032      -0.56300180      -0.76610562
H       -1.80535591      -1.87137491       0.65054414
19
Frame=3 idx=007565 GeodesicLength=0.25752383728780914 rxn_smarts="[C:1]([C@@:2]([O:3][H:12])([C@@:4]1([H:13])[C:5]([H:14])([H:15])[C@:6]1([C:7]([H:17])([H:18])[H:19])[H:16])[H:11])([H:8])([H:9])[H:10]>>[C:1](/[C:2]([O:3][H:12])=[C:4](\[C:5]([C:6]([C:7]([H:11])([H:17])[H:19])([H:16])[H:18])([H:14])[H:15])[H:13])([H:8])([H:9])[H:10]"
C        2.13271815      -0.31716078      -0.34728949
C        0.98426078      -0.00508622       0.59420082
O        1.51094773       0.02618449       1.90422788
C        0.12757181       1.10763321       0.26895410
C       -0.74632401       1.10399264      -0.91532926
C       -1.67829942       0.19622788      -0.14894081
C       -1.41832091      -1.24817143      -0.13154203
H        1.78747503      -0.35285384      -1.38111995
H        2.57052459      -1.28460889      -0.09532603
H        2.90655611       0.44768998      -0.26564389
H        0.20197307      -0.97861367       0.46789125
H        0.79352240       0.23678464       2.50497533
H       -0.01048997       1.89479965       1.00092373
H       -0.34365168       0.63172019      -1.81207097
H       -1.18559176       2.06696473      -1.16026271
H       -2.27011727       0.62737873       0.64836678
H       -1.04193514      -1.72601613      -1.02878601
H       -2.49368664      -0.56352326      -0.76353118
H       -1.82713287      -1.86334189       0.66030245
19
Frame=4 idx=007565 GeodesicLength=0.3431712205912588 rxn_smarts="[C:1]([C@@:2]([O:3][H:12])([C@@:4]1([H:13])[C:5]([H:14])([H:15])[C@:6]1([C:7]([H:17])([H:18])[H:19])[H:16])[H:11])([H:8])([H:9])[H:10]>>[C:1](/[C:2]([O:3][H:12])=[C:4](\[C:5]([C:6]([C:7]([H:11])([H:17])[H:19])([H:16])[H:18])([H:14])[H:15])[H:13])([H:8])([H:9])[H:10]"
C        2.14404231      -0.30382387      -0.34693973
C        0.99025919      -0.00951688       0.59217901
O        1.51266475       0.01947653       1.90298542
C        0.12418498       1.09527618       0.26972286
C       -0.74485013       1.09818249      -0.92015374
C       -1.67918057       0.20096394      -0.14505513
C       -1.43104099      -1.24849755      -0.12438228
H        1.80456972      -0.33440055      -1.38270460
H        2.58879881      -1.26950836      -0.10043073
H        2.91236310       0.46562043      -0.25597612
H        0.19102066      -1.00002094       0.45448053
H        0.79270290       0.22482984       2.50263695
H       -0.00532402       1.88926535       0.99589546
H       -0.34191776       0.61840067      -1.81242410
H       -1.17653155       2.06396044      -1.16737049
H       -2.27173139       0.63981706       0.64776201
H       -1.05385019      -1.73076297      -1.01922816
H       -2.50750614      -0.56407250      -0.76095181
H       -1.84867370      -1.85518930       0.66995465
19
Frame=5 idx=007565 GeodesicLength=0.428760858074985 rxn_smarts="[C:1]([C@@:2]([O:3][H:12])([C@@:4]1([H:13])[C:5]([H:14])([H:15])[C@:6]1([C:7]([H:17])([H:18])[H:19])[H:16])[H:11])([H:8])([H:9])[H:10]>>[C:1](/[C:2]([O:3][H:12])=[C:4](\[C:5]([C:6]([C:7]([H:11])([H:17])[H:19])([H:16])[H:18])([H:14])[H:15])[H:13])([H:8])([H:9])[H:10]"
C        2.15529892      -0.29037999      -0.34647424
C        0.99648833      -0.01367597       0.59018611
O        1.51454073       0.01285017       1.90176859
C        0.12086617       1.08288899       0.27049390
C       -0.74333130       1.09223841      -0.92491819
C       -1.67991229       0.20564148      -0.14113563
C       -1.44377639      -1.24880226      -0.11734353
H        1.82141154      -0.31579926      -1.38405258
H        2.60689860      -1.25425326      -0.10536476
H        2.91807018       0.48351561      -0.24626453
H        0.17964825      -1.02171433       0.44090386
H        0.79203029       0.21287531       2.50027866
H       -0.00003957       1.88372649       0.99066247
H       -0.34019655       0.60498701      -1.81268282
H       -1.16739463       2.06076057      -1.17443723
H       -2.27312234       0.65216977       0.64715875
H       -1.06603994      -1.73545843      -1.00989278
H       -2.52145125      -0.56464649      -0.75837456
H       -1.86998874      -1.84692382       0.67948850
19
Frame=6 idx=007565 GeodesicLength=0.5143057718699922 rxn_smarts="[C:1]([C@@:2]([O:3][H:12])([C@@:4]1([H:13])[C:5]([H:14])([H:15])[C@:6]1([C:7]([H:17])([H:18])[H:19])[H:16])[H:11])([H:8])([H:9])[H:10]>>[C:1](/[C:2]([O:3][H:12])=[C:4](\[C:5]([C:6]([C:7]([H:11])([H:17])[H:19])([H:16])[H:18])([H:14])[H:15])[H:13])([H:8])([H:9])[H:10]"
C        2.16649205      -0.27682440      -0.34589828
C        1.00295879      -0.01754370       0.58823396
O        1.51659443       0.00631995       1.90058316
C        0.11761612       1.07047052       0.27127747
C       -0.74176119       1.08615574      -0.92961885
C       -1.68049169       0.21025827      -0.13718247
C       -1.45653165      -1.24908670      -0.11043306
H        1.83799531      -0.29705861      -1.38516906
H        2.62482957      -1.23883993      -0.11013461
H        2.92368592       0.50138481      -0.23652623
H        0.16781746      -1.04371143       0.42718809
H        0.79152595       0.20092833       2.49790950
H        0.00534717       1.87817414       0.98523083
H       -0.33847446       0.59147476      -1.81284084
H       -1.15817248       2.05735820      -1.18146594
H       -2.27429211       0.66443633       0.64655295
H       -1.07851838      -1.74010167      -1.00079405
H       -2.53552654      -0.56524307      -0.75580664
H       -1.89109428      -1.83855155       0.68889407
19
Frame=7 idx=007565 GeodesicLength=0.599809631797928 rxn_smarts="[C:1]([C@@:2]([O:3][H:12])([C@@:4]1([H:13])[C:5]([H:14])([H:15])[C@:6]1([C:7]([H:17])([H:18])[H:19])[H:16])[H:11])([H:8])([H:9])[H:10]>>[C:1](/[C:2]([O:3][H:12])=[C:4](\[C:5]([C:6]([C:7]([H:11])([H:17])[H:19])([H:16])[H:18])([H:14])[H:15])[H:13])([H:8])([H:9])[H:10]"
C        2.17762828      -0.26315063      -0.34521558
C        1.00968323      -0.02109849       0.58633257
O        1.51884687      -0.00009813       1.89943294
C        0.11443600       1.05801862       0.27208298
C       -0.74013361       1.07992823      -0.93425306
C       -1.68091603       0.21481131      -0.13319552
C       -1.46931452      -1.24935252      -0.10365864
H        1.85431701      -0.27818552      -1.38605672
H        2.64259702      -1.22326625      -0.11474313
H        2.92922106       0.51923558      -0.22677726
H        0.15549169      -1.06603119       0.41335770
H        0.79121346       0.18899559       2.49553684
H        0.01081619       1.87260051       0.97960969
H       -0.33673826       0.57785723      -1.81289148
H       -1.14885928       2.05374537      -1.18846087
H       -2.27524169       0.67661464       0.64594132
H       -1.09130299      -1.74468985      -0.99194738
H       -2.54973827      -0.56585594      -0.75325337
H       -1.91200618      -1.83007854       0.69815899
19
Frame=8 idx=007565 GeodesicLength=0.6852937883880678 rxn_smarts="[C:1]([C@@:2]([O:3][H:12])([C@@:4]1([H:13])[C:5]([H:14])([H:15])[C@:6]1([C:7]([H:17])([H:18])[H:19])[H:16])[H:11])([H:8])([H:9])[H:10]>>[C:1](/[C:2]([O:3][H:12])=[C:4](\[C:5]([C:6]([C:7]([H:11])([H:17])[H:19])([H:16])[H:18])([H:14])[H:15])[H:13])([H:8])([H:9])[H:10]"
C        2.18871764      -0.24934782      -0.34443226
C        1.01667661      -0.02431733       0.58449356
O        1.52131874      -0.00638905       1.89832429
C        0.11132752       1.04552880       0.27292083
C       -0.73844039       1.07354723      -0.93881744
C       -1.68118200       0.21929738      -0.12917333
C       -1.48213885      -1.24960160      -0.09702756
H        1.87037638      -0.25918557      -1.38671940
H        2.66021399      -1.20752168      -0.11919489
H        2.93468785       0.53708400      -0.21703401
H        0.14263183      -1.08870177       0.39943347
H        0.79111466       0.17707955       2.49316926
H        0.01634985       1.86699650       0.97380676
H       -0.33497340       0.56412279      -1.81282704
H       -1.13944367       2.04991129      -1.19542730
H       -2.27597200       0.68870554       0.64532007
H       -1.10441990      -1.74922191      -0.98336844
H       -2.56409747      -0.56647786      -0.75072036
H       -1.93274741      -1.82150849       0.70727377
19
Frame=9 idx=007565 GeodesicLength=0.7707489258670883 rxn_smarts="[C:1]([C@@:2]([O:3][H:12])([C@@:4]1([H:13])[C:5]([H:14])([H:15])[C@:6]1([C:7]([H:17])([H:18])[H:19])[H:16])[H:11])([H:8])([H:9])[H:10]>>[C:1](/[C:2]([O:3][H:12])=[C:4](\[C:5]([C:6]([C:7]([H:11])([H:17])[H:19])([H:16])[H:18])([H:14])[H:15])[H:13])([H:8])([H:9])[H:10]"
C        2.19976834      -0.23540706      -0.34354889
C        1.02395225      -0.02717938       0.58272872
O        1.52403074      -0.01253528       1.89726348
C        0.10829325       1.03299715       0.27380206
C       -0.73667406       1.06700380      -0.94330837
C       -1.68128613       0.22371320      -0.12511347
C       -1.49501913      -1.24983448      -0.09054858
H        1.88617473      -0.24006123      -1.38716506
H        2.67769242      -1.19159755      -0.12349001
H        2.94009662       0.55494347      -0.20730985
H        0.12920947      -1.11175217       0.38542837
H        0.79125168       0.16518548       2.49081500
H        0.02193117       1.86135202       0.96782721
H       -0.33316676       0.55026057      -1.81263894
H       -1.12991699       2.04584478      -1.20237027
H       -2.27648256       0.70070926       0.64468703
H       -1.11790007      -1.75369661      -0.97507606
H       -2.57861707      -0.56709988      -0.74821282
H       -1.95333790      -1.81284609       0.71623046
19
Frame=10 idx=007565 GeodesicLength=0.8561989753423589 rxn_smarts="[C:1]([C@@:2]([O:3][H:12])([C@@:4]1([H:13])[C:5]([H:14])([H:15])[C@:6]1([C:7]([H:17])([H:18])[H:19])[H:16])[H:11])([H:8])([H:9])[H:10]>>[C:1](/[C:2]([O:3][H:12])=[C:4](\[C:5]([C:6]([C:7]([H:11])([H:17])[H:19])([H:16])[H:18])([H:14])[H:15])[H:13])([H:8])([H:9])[H:10]"
C        2.21079823      -0.22130897      -0.34257256
C        1.03152854      -0.02966146       0.58104751
O        1.52700337      -0.01852854       1.89625574
C        0.10533599       1.02041254       0.27473513
C       -0.73482455       1.06028324      -0.94772397
C       -1.68122648       0.22805529      -0.12101418
C       -1.50797490      -1.25005357      -0.08422460
H        1.90172239      -0.22080612      -1.38739794
H        2.69505328      -1.17547666      -0.12763799
H        2.94546553       0.57284196      -0.19761495
H        0.11517025      -1.13521246       0.37136150
H        0.79164486       0.15330586       2.48847997
H        0.02754396       1.85565705       0.96167810
H       -0.33130330       0.53624815      -1.81231968
H       -1.12026328       2.04152995      -1.20929806
H       -2.27677357       0.71263041       0.64403709
H       -1.13178059      -1.75811549      -0.96708249
H       -2.59331086      -0.56771011      -0.74573082
H       -1.97380888      -1.80409107       0.72502219
19
Frame=11 idx=007565 GeodesicLength=0.9416348805366183 rxn_smarts="[C:1]([C@@:2]([O:3][H:12])([C@@:4]1([H:13])[C:5]([H:14])([H:15])[C@:6]1([C:7]([H:17])([H:18])[H:19])[H:16])[H:11])([H:8])([H:9])[H:10]>>[C:1](/[C:2]([O:3][H:12])=[C:4](\[C:5]([C:6]([C:7]([H:11])([H:17])[H:19])([H:16])[H:18])([H:14])[H:15])[H:13])([H:8])([H:9])[H:10]"
C        2.22182220      -0.20703597      -0.34150520
C        1.03942169      -0.03174301       0.57945927
O        1.53025754      -0.02435707       1.89530547
C        0.10245965       1.00776531       0.27572875
C       -0.73288297       1.05337113      -0.95206202
C       -1.68099962       0.23231962      -0.11687272
C       -1.52102527      -1.25025968      -0.07806094
H        1.91702878      -0.20141285      -1.38742471
H        2.71231545      -1.15914292      -0.13164311
H        2.95080840       0.59080036      -0.18795721
H        0.10047121      -1.15911185       0.35724406
H        0.79231547       0.14143658       2.48616945
H        0.03317285       1.84990149       0.95536587
H       -0.32936901       0.52206457      -1.81186000
H       -1.11047020       2.03695095      -1.21621821
H       -2.27684343       0.72447191       0.64336631
H       -1.14610072      -1.76247753      -0.95940308
H       -2.60819457      -0.56829714      -0.74327575
H       -1.99418746      -1.79524391       0.73364377
19
Frame=12 idx=007565 GeodesicLength=1.0270673869649127 rxn_smarts="[C:1]([C@@:2]([O:3][H:12])([C@@:4]1([H:13])[C:5]([H:14])([H:15])[C@:6]1([C:7]([H:17])([H:18])[H:19])[H:16])[H:11])([H:8])([H:9])[H:10]>>[C:1](/[C:2]([O:3][H:12])=[C:4](\[C:5]([C:6]([C:7]([H:11])([H:17])[H:19])([H:16])[H:18])([H:14])[H:15])[H:13])([H:8])([H:9])[H:10]"
C        2.23286077      -0.19256183      -0.34035189
C        1.04765041      -0.03340199       0.57797502
O        1.53381419      -0.03001466       1.89441904
C        0.09966898       0.99504159       0.27679305
C       -0.73083761       1.04624753      -0.95632052
C       -1.68060241       0.23650162      -0.11268567
C       -1.53419941      -1.25045445      -0.07206037
H        1.93211009      -0.18186735      -1.38725062
H        2.72950739      -1.14256916      -0.13551405
H        2.95614307       0.60885564      -0.17834113
H        0.08506352      -1.18349129       0.34308166
H        0.79328428       0.12956602       2.48388927
H        0.03880398       1.84407132       0.94889239
H       -0.32734839       0.50768042      -1.81125050
H       -1.10051534       2.03208567      -1.22314214
H       -2.27668971       0.73624077       0.64266949
H       -1.16091443      -1.76678531      -0.95205119
H       -2.62329034      -0.56884352      -0.74084602
H       -2.01450904      -1.78630103       0.74209417
19
Frame=13 idx=007565 GeodesicLength=1.112475865859118 rxn_smarts="[C:1]([C@@:2]([O:3][H:12])([C@@:4]1([H:13])[C:5]([H:14])([H:15])[C@:6]1([C:7]([H:17])([H:18])[H:19])[H:16])[H:11])([H:8])([H:9])[H:10]>>[C:1](/[C:2]([O:3][H:12])=[C:4](\[C:5]([C:6]([C:7]([H:11])([H:17])[H:19])([H:16])[H:18])([H:14])[H:15])[H:13])([H:8])([H:9])[H:10]"
C        2.24393393      -0.17786247      -0.33911402
C        1.05623254      -0.03462018       0.57660319
O        1.53769342      -0.03549238       1.89360093
C        0.09696985       0.98222542       0.27793538
C       -0.72867695       1.03889207      -0.96049859
C       -1.68003164       0.24059601      -0.10845040
C       -1.54752365      -1.25063747      -0.06622484
H        1.94698229      -0.16215113      -1.38688109
H        2.74665622      -1.12573052      -0.13925574
H        2.96148453       0.62704028      -0.16876844
H        0.06890033      -1.20838537       0.32887529
H        0.79457094       0.11768134       2.48164249
H        0.04442428       1.83815220       0.94226173
H       -0.32522726       0.49306497      -1.81048126
H       -1.09038176       2.02691231      -1.23008064
H       -2.27630757       0.74794228       0.64194163
H       -1.17627641      -1.77103877      -0.94504009
H       -2.63861917      -0.56933132      -0.73843840
H       -2.03480391      -1.77725729       0.75037287
19
Frame=14 idx=007565 GeodesicLength=1.1978577201458789 rxn_smarts="[C:1]([C@@:2]([O:3][H:12])([C@@:4]1([H:13])[C:5]([H:14])([H:15])[C@:6]1([C:7]([H:17])([H:18])[H:19])[H:16])[H:11])([H:8])([H:9])[H:10]>>[C:1](/[C:2]([O:3][H:12])=[C:4](\[C:5]([C:6]([C:7]([H:11])([H:17])[H:19])([H:16])[H:18])([H:14])[H:15])[H:13])([H:8])([H:9])[H:10]"
C        2.25506596      -0.16290530      -0.33779305
C        1.06518780      -0.03537813       0.57535374
O        1.54191668      -0.04078794       1.89285619
C        0.09436929       0.96929745       0.27916357
C       -0.72638740       1.03127852      -0.96459558
C       -1.67928362       0.24459837      -0.10416320
C       -1.56103224      -1.25081008      -0.06055540
H        1.96166869      -0.14223825      -1.38632329
H        2.76379702      -1.10859124      -0.14287664
H        2.96685061       0.64539710      -0.15923555
H        0.05192619      -1.23383544       0.31462040
H        0.79619619       0.10576415       2.47943233
H        0.05002251       1.83212841       0.93547461
H       -0.32299004       0.47817881      -1.80954128
H       -1.08004445       2.02140253      -1.23704778
H       -2.27569150       0.75958592       0.64117631
H       -1.19225396      -1.77524044      -0.93838314
H       -2.65420819      -0.56973928      -0.73604590
H       -2.05510956      -1.76810517       0.75848366
19
Frame=15 idx=007565 GeodesicLength=1.2831990998357092 rxn_smarts="[C:1]([C@@:2]([O:3][H:12])([C@@:4]1([H:13])[C:5]([H:14])([H:15])[C@:6]1([C:7]([H:17])([H:18])[H:19])[H:16])[H:11])([H:8])([H:9])[H:10]>>[C:1](/[C:2]([O:3][H:12])=[C:4](\[C:5]([C:6]([C:7]([H:11])([H:17])[H:19])([H:16])[H:18])([H:14])[H:15])[H:13])([H:8])([H:9])[H:10]"
C        2.26628115      -0.14765621      -0.33638852
C        1.07453692      -0.03565644       0.57423557
O        1.54650617      -0.04589705       1.89218914
C        0.09187514       0.95623592       0.28048534
C       -0.72395478       1.02337872      -0.96861136
C       -1.67835357       0.24850176      -0.09982093
C       -1.57475934      -1.25097174      -0.05505191
H        1.97619129      -0.12210033      -1.38558085
H        2.78096564      -1.09111405      -0.14638291
H        2.97225669       0.66397028      -0.14973927
H        0.03408479      -1.25988284       0.30030565
H        0.79818117       0.09379212       2.47726042
H        0.05558689       1.82598273       0.92853299
H       -0.32062065       0.46297962      -1.80841888
H       -1.06947840       2.01552605      -1.24405858
H       -2.27483355       0.77118064       0.64036607
H       -1.20891893      -1.77939082      -0.93209341
H       -2.67008448      -0.57004362      -0.73366043
H       -2.07546215      -1.75883474       0.76643187
19
Frame=16 idx=007565 GeodesicLength=1.3684837415253388 rxn_smarts="[C:1]([C@@:2]([O:3][H:12])([C@@:4]1([H:13])[C:5]([H:14])([H:15])[C@:6]1([C:7]([H:17])([H:18])[H:19])[H:16])[H:11])([H:8])([H:9])[H:10]>>[C:1](/[C:2]([O:3][H:12])=[C:4](\[C:5]([C:6]([C:7]([H:11])([H:17])[H:19])([H:16])[H:18])([H:14])[H:15])[H:13])([H:8])([H:9])[H:10]"
C        2.27760622      -0.13207607      -0.33489932
C        1.08430140      -0.03543703       0.57325725
O        1.55148423      -0.05081977       1.89160360
C        0.08949667       0.94301514       0.28190791
C       -0.72136288       1.01515990      -0.97254634
C       -1.67723683       0.25229963      -0.09542050
C       -1.58874390      -1.25112164      -0.04971233
H        1.99057589      -0.10170073      -1.38465779
H        2.79820291      -1.07325447      -0.14978227
H        2.97771871       0.68281171      -0.14026970
H        0.01531512      -1.28656993       0.28591360
H        0.80054766       0.08173815       2.47512686
H        0.06110781       1.81969420       0.92143506
H       -0.31810238       0.44741786      -1.80710107
H       -1.05865401       2.00924766      -1.25113018
H       -2.27372396       0.78273723       0.63950162
H       -1.22635287      -1.78349096      -0.92618215
H       -2.68627912      -0.57021738      -0.73127071
H       -2.09590066      -1.74943350       0.77422647
