14
Frame=0 idx=006635 GeodesicLength=0.0 rxn_smarts="[O:1]=[C:2]([C@@:3]1([H:9])[C@@:4]2([H:10])[C:5]([H:11])([H:12])[C:6]([H:13])([H:14])[N:7]12)[H:8]>>[O:1]1[C:2]([H:8])([H:11])[C@:3]1([N:7]1[C:4]([H:10])=[C:5]([H:12])[C:6]1([H:13])[H:14])[H:9]"
O        0.91151953       1.73465446       1.44418247
C        1.22538973       0.73244964       0.67697733
C        0.35124348       0.92025340      -0.53496430
C       -0.15836784      -0.50946069      -1.20722777
C       -0.37759510      -1.35120697      -0.13497331
C       -1.28691190      -0.36807695       0.52070477
N       -1.01231190       0.59888626      -0.58966503
H        2.28760777       0.63552024       0.35062471
H        0.63083990       1.67272683      -1.26774203
H        0.09172094      -0.65194000      -2.24768213
H        0.99126112      -0.33299616       1.05331436
H       -0.25055729      -2.41847576      -0.01532892
H       -1.07349922       0.01726809       1.51787845
H       -2.33033917      -0.67960233       0.43390145
14
Frame=1 idx=006635 GeodesicLength=0.09766867551683608 rxn_smarts="[O:1]=[C:2]([C@@:3]1([H:9])[C@@:4]2([H:10])[C:5]([H:11])([H:12])[C:6]([H:13])([H:14])[N:7]12)[H:8]>>[O:1]1[C:2]([H:8])([H:11])[C@:3]1([N:7]1[C:4]([H:10])=[C:5]([H:12])[C:6]1([H:13])[H:14])[H:9]"
O        0.89185900       1.73509120       1.42989755
C        1.24035717       0.73480878       0.67546472
C        0.35709541       0.93023132      -0.52690396
C       -0.16051550      -0.51128343      -1.20309884
C       -0.37076789      -1.35391961      -0.12535645
C       -1.28980875      -0.37004743       0.52108883
N       -1.00592401       0.59683664      -0.58699910
H        2.30410515       0.66399769       0.35199129
H        0.63944946       1.67327742      -1.26793459
H        0.08457390      -0.65475192      -2.24472563
H        0.99313818      -0.35239565       1.04798595
H       -0.27274981      -2.42592739      -0.02359787
H       -1.07724372       0.01312103       1.51913400
H       -2.33356859      -0.67903866       0.43305410
14
Frame=2 idx=006635 GeodesicLength=0.19525656933934013 rxn_smarts="[O:1]=[C:2]([C@@:3]1([H:9])[C@@:4]2([H:10])[C:5]([H:11])([H:12])[C:6]([H:13])([H:14])[N:7]12)[H:8]>>[O:1]1[C:2]([H:8])([H:11])[C@:3]1([N:7]1[C:4]([H:10])=[C:5]([H:12])[C:6]1([H:13])[H:14])[H:9]"
O        0.87305928       1.73460394       1.41612272
C        1.25530256       0.73761037       0.67382951
C        0.36291044       0.94015348      -0.51890619
C       -0.16269399      -0.51335208      -1.19902230
C       -0.36427078      -1.35685754      -0.11587110
C       -1.29274574      -0.37206478       0.52135009
N       -0.99945870       0.59466303      -0.58441794
H        2.32008880       0.69329345       0.35349428
H        0.64798442       1.67365174      -1.26812514
H        0.07749238      -0.65781549      -2.24177207
H        0.99492528      -0.37204959       1.04237521
H       -0.29464005      -2.43250104      -0.03146503
H       -1.08103858       0.00893367       1.52026159
H       -2.33691532      -0.67826917       0.43214638
14
Frame=3 idx=006635 GeodesicLength=0.2927928675549486 rxn_smarts="[O:1]=[C:2]([C@@:3]1([H:9])[C@@:4]2([H:10])[C:5]([H:11])([H:12])[C:6]([H:13])([H:14])[N:7]12)[H:8]>>[O:1]1[C:2]([H:8])([H:11])[C@:3]1([N:7]1[C:4]([H:10])=[C:5]([H:12])[C:6]1([H:13])[H:14])[H:9]"
O        0.85509958       1.73322796       1.40286356
C        1.27024144       0.74085247       0.67204882
C        0.36869621       0.95002042      -0.51098232
C       -0.16491697      -0.51565717      -1.19501291
C       -0.35812802      -1.36001643      -0.10653417
C       -1.29572652      -0.37411357       0.52148632
N       -0.99290974       0.59237743      -0.58192011
H        2.33555021       0.72336203       0.35515481
H        0.65644063       1.67386808      -1.26831027
H        0.07045270      -0.66111793      -2.23884008
H        0.99660563      -0.39199706       1.03649924
H       -0.31614550      -2.43825016      -0.03889105
H       -1.08487488       0.00471045       1.52125998
H       -2.34038476      -0.67726651       0.43117819
14
Frame=4 idx=006635 GeodesicLength=0.39030072880896793 rxn_smarts="[O:1]=[C:2]([C@@:3]1([H:9])[C@@:4]2([H:10])[C:5]([H:11])([H:12])[C:6]([H:13])([H:14])[N:7]12)[H:8]>>[O:1]1[C:2]([H:8])([H:11])[C@:3]1([N:7]1[C:4]([H:10])=[C:5]([H:12])[C:6]1([H:13])[H:14])[H:9]"
O        0.83795642       1.73100425       1.39012026
C        1.28519117       0.74453652       0.67010234
C        0.37446183       0.95983288      -0.50314166
C       -0.16719330      -0.51819076      -1.19108162
C       -0.35235528      -1.36339188      -0.09735736
C       -1.29875192      -0.37618021       0.52149760
N       -0.98626899       0.58998882      -0.57950267
H        2.35048720       0.75417670       0.35699161
H        0.66481432       1.67394398      -1.26848749
H        0.06343547      -0.66464803      -2.23594462
H        0.99816372      -0.41227608       1.03037845
H       -0.33722094      -2.44324446      -0.04585574
H       -1.08874228       0.00045576       1.52212999
H       -2.34397743      -0.67600748       0.43015091
14
Frame=5 idx=006635 GeodesicLength=0.4877931637075505 rxn_smarts="[O:1]=[C:2]([C@@:3]1([H:9])[C@@:4]2([H:10])[C:5]([H:11])([H:12])[C:6]([H:13])([H:14])[N:7]12)[H:8]>>[O:1]1[C:2]([H:8])([H:11])[C@:3]1([N:7]1[C:4]([H:10])=[C:5]([H:12])[C:6]1([H:13])[H:14])[H:9]"
O        0.82161113       1.72796971       1.37788582
C        1.30016805       0.74867168       0.66797194
C        0.38021486       0.96959383      -0.49539208
C       -0.16952906      -0.52094465      -1.18723706
C       -0.34696327      -1.36697912      -0.08834799
C       -1.30182146      -0.37825231       0.52138539
N       -0.97952915       0.58750457      -0.57716250
H        2.36489273       0.78570528       0.35902377
H        0.67309966       1.67389778      -1.26865555
H        0.05642742      -0.66839549      -2.23309720
H        0.99958528      -0.43291952       1.02403417
H       -0.35783315      -2.44755289      -0.05234911
H       -1.09263042      -0.00382495       1.52287331
H       -2.34769260      -0.67447391       0.42906708
14
Frame=6 idx=006635 GeodesicLength=0.5852981547395041 rxn_smarts="[O:1]=[C:2]([C@@:3]1([H:9])[C@@:4]2([H:10])[C:5]([H:11])([H:12])[C:6]([H:13])([H:14])[N:7]12)[H:8]>>[O:1]1[C:2]([H:8])([H:11])[C@:3]1([N:7]1[C:4]([H:10])=[C:5]([H:12])[C:6]1([H:13])[H:14])[H:9]"
O        0.80604071       1.72416616       1.36615181
C        1.31519368       0.75327115       0.66563835
C        0.38596548       0.97930472      -0.48774012
C       -0.17192553      -0.52391367      -1.18348414
C       -0.34195838      -1.37077546      -0.07951164
C       -1.30493127      -0.38031974       0.52115267
N       -0.97267971       0.58492777      -0.57489526
H        2.37876916       0.81794123       0.36126754
H        0.68128997       1.67374688      -1.26881393
H        0.04941765      -0.67235192      -2.23030591
H        1.00085264      -0.45396606       1.01749368
H       -0.37798426      -2.45125434      -0.05837613
H       -1.09652607      -0.00812816       1.52349309
H       -2.35152406      -0.67264857       0.42792999
14
Frame=7 idx=006635 GeodesicLength=0.6828232896782472 rxn_smarts="[O:1]=[C:2]([C@@:3]1([H:9])[C@@:4]2([H:10])[C:5]([H:11])([H:12])[C:6]([H:13])([H:14])[N:7]12)[H:8]>>[O:1]1[C:2]([H:8])([H:11])[C@:3]1([N:7]1[C:4]([H:10])=[C:5]([H:12])[C:6]1([H:13])[H:14])[H:9]"
O        0.79123023       1.71962671       1.35490388
C        1.33028668       0.75835152       0.66308525
C        0.39172223       0.98896760      -0.48019126
C       -0.17438269      -0.52709288      -1.17982647
C       -0.33734480      -1.37477950      -0.07085070
C       -1.30807778      -0.38237358       0.52080288
N       -0.96571136       0.58226048      -0.57269689
H        2.39211221       0.85087511       0.36374029
H        0.68937734       1.67350860      -1.26896269
H        0.04239970      -0.67651074      -2.22757691
H        1.00195091      -0.47545068       1.01078235
H       -0.39767843      -2.45441530      -0.06394572
H       -1.10041708      -0.01244989       1.52399278
H       -2.35546716      -0.67051746       0.42674321
14
Frame=8 idx=006635 GeodesicLength=0.7803814865797307 rxn_smarts="[O:1]=[C:2]([C@@:3]1([H:9])[C@@:4]2([H:10])[C:5]([H:11])([H:12])[C:6]([H:13])([H:14])[N:7]12)[H:8]>>[O:1]1[C:2]([H:8])([H:11])[C@:3]1([N:7]1[C:4]([H:10])=[C:5]([H:12])[C:6]1([H:13])[H:14])[H:9]"
O        0.77715915       1.71439196       1.34412850
C        1.34547021       0.76393720       0.66029661
C        0.39749573       0.99858463      -0.47274976
C       -0.17689499      -0.53047978      -1.17626366
C       -0.33312164      -1.37899015      -0.06236528
C       -1.31125312      -0.38440685       0.52034143
N       -0.95861158       0.57950102      -0.57056144
H        2.40492319       0.88451246       0.36645548
H        0.69735245       1.67320020      -1.26910427
H        0.03537100      -0.68086729      -2.22491239
H        1.00286438      -0.49740953       1.00392940
H       -0.41695557      -2.45711877      -0.06908372
H       -1.10428915      -0.01678755       1.52437756
H       -2.35951005      -0.66806756       0.42551154
14
Frame=9 idx=006635 GeodesicLength=0.8780898561124629 rxn_smarts="[O:1]=[C:2]([C@@:3]1([H:9])[C@@:4]2([H:10])[C:5]([H:11])([H:12])[C:6]([H:13])([H:14])[N:7]12)[H:8]>>[O:1]1[C:2]([H:8])([H:11])[C@:3]1([N:7]1[C:4]([H:10])=[C:5]([H:12])[C:6]1([H:13])[H:14])[H:9]"
O        0.76381153       1.70847393       1.33380179
C        1.36075876       0.77009366       0.65725702
C        0.40329717       1.00815489      -0.46540925
C       -0.17944123      -0.53407835      -1.17278485
C       -0.32930639      -1.38341446      -0.05405103
C       -1.31445351      -0.38641460       0.51977492
N       -0.95136480       0.57663930      -0.56848681
H        2.41723130       0.91888168       0.36938725
H        0.70518828       1.67284673      -1.26922696
H        0.02836307      -0.68542511      -2.22230199
H        1.00357004      -0.51990360       0.99698102
H       -0.43588104      -2.45943599      -0.07383580
H       -1.10812581      -0.02113749       1.52465221
H       -2.36364736      -0.66528059       0.42424249
14
Frame=10 idx=006635 GeodesicLength=0.975821755915887 rxn_smarts="[O:1]=[C:2]([C@@:3]1([H:9])[C@@:4]2([H:10])[C:5]([H:11])([H:12])[C:6]([H:13])([H:14])[N:7]12)[H:8]>>[O:1]1[C:2]([H:8])([H:11])[C@:3]1([N:7]1[C:4]([H:10])=[C:5]([H:12])[C:6]1([H:13])[H:14])[H:9]"
O        0.75117723       1.70192127       1.32391311
C        1.37618182       0.77680658       0.65395316
C        0.40913630       1.01768146      -0.45818043
C       -0.18202581      -0.53788341      -1.16939604
C       -0.32587826      -1.38805097      -0.04590640
C       -1.31766792      -0.38839116       0.51910806
N       -0.94396008       0.57367734      -0.56646389
H        2.42900382       0.95399224       0.37257373
H        0.71289299       1.67245566      -1.26934376
H        0.02135158      -0.69017656      -2.21975496
H        1.00405894      -0.54294918       0.98995680
H       -0.45448973      -2.46143101      -0.07821942
H       -1.11191580      -0.02549959       1.52482273
H       -2.36786509      -0.66215268       0.42293731
14
Frame=11 idx=006635 GeodesicLength=1.0735784010163492 rxn_smarts="[O:1]=[C:2]([C@@:3]1([H:9])[C@@:4]2([H:10])[C:5]([H:11])([H:12])[C:6]([H:13])([H:14])[N:7]12)[H:8]>>[O:1]1[C:2]([H:8])([H:11])[C@:3]1([N:7]1[C:4]([H:10])=[C:5]([H:12])[C:6]1([H:13])[H:14])[H:9]"
O        0.73924786       1.69475365       1.31444029
C        1.39175931       0.78411039       0.65037140
C        0.41502080       1.02716898      -0.45106390
C       -0.18463578      -0.54189396      -1.16609236
C       -0.32283615      -1.39290309      -0.03792705
C       -1.32088965      -0.39033195       0.51834635
N       -0.93638497       0.57061001      -0.56448813
H        2.44023465       0.98985297       0.37601421
H        0.72045351       1.67204569      -1.26945467
H        0.01434679      -0.69511919      -2.21726814
H        1.00431294      -0.56658838       0.98289310
H       -0.47282914      -2.46315957      -0.08226620
H       -1.11564656      -0.02987125       1.52489384
H       -2.37215361      -0.65867430       0.42160125
14
Frame=12 idx=006635 GeodesicLength=1.1713270924266195 rxn_smarts="[O:1]=[C:2]([C@@:3]1([H:9])[C@@:4]2([H:10])[C:5]([H:11])([H:12])[C:6]([H:13])([H:14])[N:7]12)[H:8]>>[O:1]1[C:2]([H:8])([H:11])[C@:3]1([N:7]1[C:4]([H:10])=[C:5]([H:12])[C:6]1([H:13])[H:14])[H:9]"
O        0.72800866       1.68700094       1.30536359
C        1.40751523       0.79203138       0.64649862
C        0.42095984       1.03661954      -0.44405713
C       -0.18725877      -0.54611048      -1.16286784
C       -0.32017864      -1.39797754      -0.03010964
C       -1.32411086      -0.39223501       0.51749535
N       -0.92862516       0.56743042      -0.56255223
H        2.45092008       1.02647617       0.37970216
H        0.72785894       1.67163390      -1.26955912
H        0.00735856      -0.70025080      -2.21483680
H        1.00431529      -0.59085800       0.97582560
H       -0.49095478      -2.46466946      -0.08601062
H       -1.11930655      -0.03425498       1.52487134
H       -2.37650184      -0.65483609       0.42023672
14
Frame=13 idx=006635 GeodesicLength=1.2690602433488605 rxn_smarts="[O:1]=[C:2]([C@@:3]1([H:9])[C@@:4]2([H:10])[C:5]([H:11])([H:12])[C:6]([H:13])([H:14])[N:7]12)[H:8]>>[O:1]1[C:2]([H:8])([H:11])[C@:3]1([N:7]1[C:4]([H:10])=[C:5]([H:12])[C:6]1([H:13])[H:14])[H:9]"
O        0.71745816       1.67867621       1.29666273
C        1.42347530       0.80060136       0.64231821
C        0.42696288       1.04603393      -0.43715803
C       -0.18987948      -0.55053535      -1.15971561
C       -0.31790923      -1.40328319      -0.02245046
C       -1.32732510      -0.39409747       0.51656007
N       -0.92066581       0.56412995      -0.56065144
H        2.46105157       1.06389550       0.38362994
H        0.73509490       1.67123886      -1.26965455
H        0.00040176      -0.70557220      -2.21245492
H        1.00404019      -0.61580838       0.96879449
H       -0.50892297      -2.46600320      -0.08948779
H       -1.12288176      -0.03865033       1.52476037
H       -2.38090043      -0.65062569       0.41884699
14
Frame=14 idx=006635 GeodesicLength=1.366769391732012 rxn_smarts="[O:1]=[C:2]([C@@:3]1([H:9])[C@@:4]2([H:10])[C:5]([H:11])([H:12])[C:6]([H:13])([H:14])[N:7]12)[H:8]>>[O:1]1[C:2]([H:8])([H:11])[C@:3]1([N:7]1[C:4]([H:10])=[C:5]([H:12])[C:6]1([H:13])[H:14])[H:9]"
O        0.70759893       1.66978560       1.28831842
C        1.43966154       0.80986364       0.63781754
C        0.43304142       1.05541157      -0.43036573
C       -0.19248098      -0.55517295      -1.15662714
C       -0.31603200      -1.40883154      -0.01494523
C       -1.33052368      -0.39591678       0.51554649
N       -0.91248940       0.56069812      -0.55877910
H        2.47061762       1.10215669       0.38779359
H        0.74214817       1.67087664      -1.26974403
H       -0.00650838      -0.71108613      -2.21011545
H        1.00346773      -0.64149434       0.96183583
H       -0.52680478      -2.46720294      -0.09273762
H       -1.12635864      -0.04305930       1.52456658
H       -2.38533755      -0.64602827       0.41743586
14
Frame=15 idx=006635 GeodesicLength=1.464427584713204 rxn_smarts="[O:1]=[C:2]([C@@:3]1([H:9])[C@@:4]2([H:10])[C:5]([H:11])([H:12])[C:6]([H:13])([H:14])[N:7]12)[H:8]>>[O:1]1[C:2]([H:8])([H:11])[C@:3]1([N:7]1[C:4]([H:10])=[C:5]([H:12])[C:6]1([H:13])[H:14])[H:9]"
O        0.69843715       1.66033450       1.28031130
C        1.45610032       0.81985506       0.63297945
C        0.43920638       1.06475098      -0.42367775
C       -0.19504633      -0.56002813      -1.15359403
C       -0.31455419      -1.41463597      -0.00759117
C       -1.33369915      -0.39769087       0.51445968
N       -0.90407861       0.55712389      -0.55692925
H        2.47959982       1.14130302       0.39218817
H        0.74900352       1.67056557      -1.26982711
H       -0.01335456      -0.71679553      -2.20781071
H        1.00257304      -0.66796982       0.95498612
H       -0.54466272      -2.46830023      -0.09579599
H       -1.12972198      -0.04748417       1.52429557
H       -2.38980268      -0.64102829       0.41600573
14
Frame=16 idx=006635 GeodesicLength=1.5620162643087336 rxn_smarts="[O:1]=[C:2]([C@@:3]1([H:9])[C@@:4]2([H:10])[C:5]([H:11])([H:12])[C:6]([H:13])([H:14])[N:7]12)[H:8]>>[O:1]1[C:2]([H:8])([H:11])[C@:3]1([N:7]1[C:4]([H:10])=[C:5]([H:12])[C:6]1([H:13])[H:14])[H:9]"
O        0.68998826       1.65031686       1.27262187
C        1.47281814       0.83061745       0.62778684
C        0.44547073       1.07404830      -0.41709143
C       -0.19755617      -0.56510828      -1.15060638
C       -0.31348879      -1.42071372      -0.00038633
C       -1.33684361      -0.39941729       0.51330498
N       -0.89541351       0.55339439      -0.55509543
H        2.48797437       1.18140161       0.39680860
H        0.75564597       1.67032216      -1.26990459
H       -0.02011691      -0.72270565      -2.20553176
H        1.00133022      -0.69530012       0.94828246
H       -0.56256677      -2.46932202      -0.09870108
H       -1.13295639      -0.05192854       1.52395257
H       -2.39428554      -0.63560515       0.41455968
