16
Frame=0 idx=009958 GeodesicLength=0.0 rxn_smarts="[C:1]([C:2]#[C:3][C:4]([N:5]1[C:6]([H:13])([H:14])[C:7]1([H:15])[H:16])([H:11])[H:12])([H:8])([H:9])[H:10]>>[C:1]([C:2]#[C:3][C:4]([N+:5]([C-:6]([H:13])[H:14])=[C:7]([H:15])[H:16])([H:11])[H:12])([H:8])([H:9])[H:10]"
C        3.30031966       0.55507970       0.15586948
C        1.96794778       0.12316286      -0.24696092
C        0.87102143      -0.22584039      -0.57853414
C       -0.47370998      -0.65226823      -0.95311040
N       -1.49255296      -0.14790520      -0.04851928
C       -2.81753539       0.04456685      -0.26591221
C       -1.50698176      -0.00055952       1.28898989
H        3.32666142       1.63522058       0.30668938
H        4.03501958       0.30181880      -0.60974770
H        3.60061023       0.07305461       1.08726195
H       -0.73431366      -0.28664050      -1.95142776
H       -0.51656883      -1.74702436      -0.99712130
H       -3.53388877      -0.64349791       0.15802651
H       -3.15582646       0.78015595      -0.99562303
H       -1.75363893       0.96550209       1.70004268
H       -1.11656341      -0.77482539       1.95007684
16
Frame=1 idx=009958 GeodesicLength=0.03820783158371047 rxn_smarts="[C:1]([C:2]#[C:3][C:4]([N:5]1[C:6]([H:13])([H:14])[C:7]1([H:15])[H:16])([H:11])[H:12])([H:8])([H:9])[H:10]>>[C:1]([C:2]#[C:3][C:4]([N+:5]([C-:6]([H:13])[H:14])=[C:7]([H:15])[H:16])([H:11])[H:12])([H:8])([H:9])[H:10]"
C        3.29929762       0.56247046       0.15174530
C        1.96247972       0.12830018      -0.23363706
C        0.86541646      -0.21941914      -0.56597229
C       -0.47247304      -0.65477810      -0.95349264
N       -1.50340841      -0.20508495      -0.03827826
C       -2.81628547       0.04971360      -0.25998908
C       -1.52089701      -0.02574577       1.29490515
H        3.33842331       1.64788218       0.25440145
H        4.03279713       0.26642346      -0.59959601
H        3.59153049       0.11880187       1.10457499
H       -0.73713849      -0.26322913      -1.94090746
H       -0.50065209      -1.74828124      -1.02478876
H       -3.56501827      -0.60612222       0.15894718
H       -3.11380552       0.78903375      -1.00268999
H       -1.72963509       0.95450317       1.69337494
H       -1.13063133      -0.79446811       1.96140255
16
Frame=2 idx=009958 GeodesicLength=0.07675973044021014 rxn_smarts="[C:1]([C:2]#[C:3][C:4]([N:5]1[C:6]([H:13])([H:14])[C:7]1([H:15])[H:16])([H:11])[H:12])([H:8])([H:9])[H:10]>>[C:1]([C:2]#[C:3][C:4]([N+:5]([C-:6]([H:13])[H:14])=[C:7]([H:15])[H:16])([H:11])[H:12])([H:8])([H:9])[H:10]"
C        3.29638028       0.57024765       0.14833846
C        1.95527184       0.13465937      -0.22022493
C        0.85892316      -0.21315220      -0.55467312
C       -0.47221913      -0.65803908      -0.95348730
N       -1.51489116      -0.26347961      -0.02946821
C       -2.81291082       0.05515632      -0.25420917
C       -1.53268352      -0.05075419       1.29891893
H        3.34820752       1.65856334       0.20349777
H        4.02841514       0.23287935      -0.58679238
H        3.58074703       0.16535534       1.12058711
H       -0.74138427      -0.24254048      -1.92990425
H       -0.48474981      -1.74949841      -1.05150719
H       -3.59333150      -0.56562103       0.16018746
H       -3.07027063       0.79832033      -1.00714698
H       -1.70076799       0.94245692       1.68455416
H       -1.14473613      -0.81455361       1.97132963
16
Frame=3 idx=009958 GeodesicLength=0.1151938388759651 rxn_smarts="[C:1]([C:2]#[C:3][C:4]([N:5]1[C:6]([H:13])([H:14])[C:7]1([H:15])[H:16])([H:11])[H:12])([H:8])([H:9])[H:10]>>[C:1]([C:2]#[C:3][C:4]([N+:5]([C-:6]([H:13])[H:14])=[C:7]([H:15])[H:16])([H:11])[H:12])([H:8])([H:9])[H:10]"
C        3.29244606       0.57760076       0.14556090
C        1.94718731       0.14200492      -0.20769109
C        0.85189093      -0.20638838      -0.54488190
C       -0.47294300      -0.66094281      -0.95290264
N       -1.52642849      -0.31915629      -0.02229386
C       -2.80799635       0.06009568      -0.24847753
C       -1.54251467      -0.07397025       1.30113901
H        3.35682617       1.66660091       0.15582789
H        4.02283698       0.20162343      -0.57227202
H        3.56915222       0.21002739       1.13471807
H       -0.74682557      -0.22431348      -1.91882892
H       -0.46974234      -1.74972108      -1.07572607
H       -3.61727772      -0.52566018       0.16145100
H       -3.02798729       0.80593575      -1.00974896
H       -1.67034373       0.92988934       1.67479392
H       -1.15828052      -0.83362573       1.97933220
16
Frame=4 idx=009958 GeodesicLength=0.15325009193652175 rxn_smarts="[C:1]([C:2]#[C:3][C:4]([N:5]1[C:6]([H:13])([H:14])[C:7]1([H:15])[H:16])([H:11])[H:12])([H:8])([H:9])[H:10]>>[C:1]([C:2]#[C:3][C:4]([N+:5]([C-:6]([H:13])[H:14])=[C:7]([H:15])[H:16])([H:11])[H:12])([H:8])([H:9])[H:10]"
C        3.28817786       0.58404609       0.14327873
C        1.93902818       0.14946466      -0.19632835
C        0.84475864      -0.19930898      -0.53639635
C       -0.47441284      -0.66312984      -0.95160791
N       -1.53751072      -0.36998346      -0.01659750
C       -2.80218528       0.06407923      -0.24287540
C       -1.55077497      -0.09418106       1.30184711
H        3.36403324       1.67198048       0.11429869
H        4.01652521       0.17466969      -0.55818469
H        3.55849111       0.24963101       1.14590048
H       -0.75293491      -0.20828166      -1.90787159
H       -0.45621308      -1.74880467      -1.09661359
H       -3.63666643      -0.48836631       0.16268489
H       -2.98858244       0.81051621      -1.01169211
H       -1.64081470       0.91788267       1.66461834
H       -1.17091886      -0.85021406       1.98553927
16
Frame=5 idx=009958 GeodesicLength=0.19092017516401183 rxn_smarts="[C:1]([C:2]#[C:3][C:4]([N:5]1[C:6]([H:13])([H:14])[C:7]1([H:15])[H:16])([H:11])[H:12])([H:8])([H:9])[H:10]>>[C:1]([C:2]#[C:3][C:4]([N+:5]([C-:6]([H:13])[H:14])=[C:7]([H:15])[H:16])([H:11])[H:12])([H:8])([H:9])[H:10]"
C        3.28415784       0.58968270       0.14109689
C        1.93099455       0.15812307      -0.18634631
C        0.83763535      -0.19081344      -0.52910694
C       -0.47636215      -0.66354976      -0.95002062
N       -1.54787208      -0.41553975      -0.01221909
C       -2.79593727       0.06725723      -0.23704247
C       -1.55800654      -0.11319907       1.30165834
H        3.37350286       1.67469987       0.07033752
H        4.01058736       0.14459910      -0.54037757
H        3.54601757       0.29120870       1.15726037
H       -0.75956561      -0.19260886      -1.89716362
H       -0.44389941      -1.74574915      -1.11521733
H       -3.65212812      -0.45499119       0.16317303
H       -2.95230121       0.81361075      -1.01178507
H       -1.61371379       0.90431505       1.65630164
H       -1.18310936      -0.86704526       1.98945124
16
Frame=6 idx=009958 GeodesicLength=0.2281521383395591 rxn_smarts="[C:1]([C:2]#[C:3][C:4]([N:5]1[C:6]([H:13])([H:14])[C:7]1([H:15])[H:16])([H:11])[H:12])([H:8])([H:9])[H:10]>>[C:1]([C:2]#[C:3][C:4]([N+:5]([C-:6]([H:13])[H:14])=[C:7]([H:15])[H:16])([H:11])[H:12])([H:8])([H:9])[H:10]"
C        3.28025273       0.59479394       0.13898244
C        1.92336751       0.16666798      -0.17758936
C        0.83076094      -0.18240280      -0.52256011
C       -0.47861043      -0.66343563      -0.94793259
N       -1.55750580      -0.45653362      -0.00884591
C       -2.78926869       0.07013619      -0.23133221
C       -1.56446063      -0.13042638       1.30079883
H        3.38253365       1.67538801       0.02933433
H        4.00454924       0.11698481      -0.52223932
H        3.53419281       0.33045692       1.16650179
H       -0.76623316      -0.17845328      -1.88673694
H       -0.43298682      -1.74203828      -1.13102534
H       -3.66453022      -0.42408641       0.16312663
H       -2.91837453       0.81529017      -1.01144682
H       -1.58855040       0.89067920       1.64900359
H       -1.19513620      -0.88302082       1.99196097
16
Frame=7 idx=009958 GeodesicLength=0.2651210355120837 rxn_smarts="[C:1]([C:2]#[C:3][C:4]([N:5]1[C:6]([H:13])([H:14])[C:7]1([H:15])[H:16])([H:11])[H:12])([H:8])([H:9])[H:10]>>[C:1]([C:2]#[C:3][C:4]([N+:5]([C-:6]([H:13])[H:14])=[C:7]([H:15])[H:16])([H:11])[H:12])([H:8])([H:9])[H:10]"
C        3.27664491       0.59956621       0.13675924
C        1.91597573       0.17592160      -0.16968038
C        0.82405471      -0.17346466      -0.51648039
C       -0.48103876      -0.66223616      -0.94569998
N       -1.56654671      -0.49381752      -0.00644707
C       -2.78238197       0.07283197      -0.22549421
C       -1.57045165      -0.14740960       1.29957255
H        3.39338804       1.67365402      -0.01487917
H        3.99869311       0.08684352      -0.50044266
H        3.52127969       0.37292290       1.17555361
H       -0.77291031      -0.16432246      -1.87652123
H       -0.42303672      -1.73704987      -1.14545608
H       -3.67459954      -0.39554369       0.16240696
H       -2.88641418       0.81674423      -1.00976919
H       -1.56534329       0.87549225       1.64370247
H       -1.20731307      -0.90013273       1.99287551
16
Frame=8 idx=009958 GeodesicLength=0.3019103813343942 rxn_smarts="[C:1]([C:2]#[C:3][C:4]([N:5]1[C:6]([H:13])([H:14])[C:7]1([H:15])[H:16])([H:11])[H:12])([H:8])([H:9])[H:10]>>[C:1]([C:2]#[C:3][C:4]([N+:5]([C-:6]([H:13])[H:14])=[C:7]([H:15])[H:16])([H:11])[H:12])([H:8])([H:9])[H:10]"
C        3.27332823       0.60431053       0.13406495
C        1.90896254       0.18471255      -0.16159110
C        0.81769002      -0.16546102      -0.50963387
C       -0.48337286      -0.66136484      -0.94248118
N       -1.57526733      -0.52804812      -0.00466498
C       -2.77510002       0.07588401      -0.22027543
C       -1.57671709      -0.16336244       1.29806560
H        3.40287731       1.67082669      -0.05554895
H        3.99220097       0.06097841      -0.48088114
H        3.51116144       0.41253419       1.18137966
H       -0.77870563      -0.15206210      -1.86616514
H       -0.41396372      -1.73243070      -1.15695822
H       -3.68299166      -0.36763737       0.16035486
H       -2.85505874       0.81809574      -1.00823671
H       -1.54400983       0.86011224       1.63941600
H       -1.22103363      -0.91708779       1.99315565
16
Frame=9 idx=009958 GeodesicLength=0.3387101676319012 rxn_smarts="[C:1]([C:2]#[C:3][C:4]([N:5]1[C:6]([H:13])([H:14])[C:7]1([H:15])[H:16])([H:11])[H:12])([H:8])([H:9])[H:10]>>[C:1]([C:2]#[C:3][C:4]([N+:5]([C-:6]([H:13])[H:14])=[C:7]([H:15])[H:16])([H:11])[H:12])([H:8])([H:9])[H:10]"
C        3.26999106       0.60931856       0.13108109
C        1.90212208       0.19338776      -0.15372121
C        0.81160269      -0.15828133      -0.50263003
C       -0.48576697      -0.66034931      -0.93907154
N       -1.58373284      -0.55989940      -0.00373821
C       -2.76730626       0.07966370      -0.21503468
C       -1.58283340      -0.17992254       1.29638894
H        3.41269959       1.66601144      -0.09967153
H        3.98574434       0.03408139      -0.45797931
H        3.50043410       0.45632225       1.18642292
H       -0.78401785      -0.14018810      -1.85589371
H       -0.40589011      -1.72757036      -1.16746266
H       -3.68985346      -0.33974058       0.15756638
H       -2.82390894       0.82061516      -1.00547625
H       -1.52343876       0.84272589       1.63707632
H       -1.23584527      -0.93617451       1.99214348
16
Frame=10 idx=009958 GeodesicLength=0.3756697165949518 rxn_smarts="[C:1]([C:2]#[C:3][C:4]([N:5]1[C:6]([H:13])([H:14])[C:7]1([H:15])[H:16])([H:11])[H:12])([H:8])([H:9])[H:10]>>[C:1]([C:2]#[C:3][C:4]([N+:5]([C-:6]([H:13])[H:14])=[C:7]([H:15])[H:16])([H:11])[H:12])([H:8])([H:9])[H:10]"
C        3.26647848       0.61447943       0.12818055
C        1.89502448       0.20375797      -0.14710197
C        0.80550029      -0.15033970      -0.49666114
C       -0.48841792      -0.65796785      -0.93654322
N       -1.59184840      -0.58983375      -0.00407535
C       -2.75916073       0.08386141      -0.20886017
C       -1.58816250      -0.19864974       1.29455327
H        3.42696600       1.65578235      -0.15486652
H        3.97909904      -0.00039000      -0.42342017
H        3.48491076       0.51256891       1.19220706
H       -0.78978980      -0.12668818      -1.84609689
H       -0.39847902      -1.72100272      -1.17916982
H       -3.69517381      -0.31260739       0.15511346
H       -2.79354758       0.82490921      -0.99977274
H       -1.50298556       0.82154540       1.63758102
H       -1.25041373      -0.95942536       1.98893264
16
Frame=11 idx=009958 GeodesicLength=0.41254157439512096 rxn_smarts="[C:1]([C:2]#[C:3][C:4]([N:5]1[C:6]([H:13])([H:14])[C:7]1([H:15])[H:16])([H:11])[H:12])([H:8])([H:9])[H:10]>>[C:1]([C:2]#[C:3][C:4]([N+:5]([C-:6]([H:13])[H:14])=[C:7]([H:15])[H:16])([H:11])[H:12])([H:8])([H:9])[H:10]"
C        3.26305413       0.61982228       0.12478000
C        1.88837518       0.21252456      -0.13963437
C        0.79986129      -0.14448357      -0.48937774
C       -0.49080038      -0.65705893      -0.93272852
N       -1.59999695      -0.61783673      -0.00467540
C       -2.75056366       0.08859009      -0.20369449
C       -1.59410128      -0.21558529       1.29244720
H        3.43675263       1.64641767      -0.20099293
H        3.97186608      -0.02562400      -0.39595108
H        3.47445152       0.56063484       1.19346483
H       -0.79418626      -0.11615348      -1.83607911
H       -0.39177584      -1.71620611      -1.18747261
H       -3.69942966      -0.28459492       0.15145054
H       -2.76275615       0.82885181      -0.99528514
H       -1.48382321       0.80157038       1.63780902
H       -1.26692743      -0.98086860       1.98593980
16
Frame=12 idx=009958 GeodesicLength=0.4494392431843295 rxn_smarts="[C:1]([C:2]#[C:3][C:4]([N:5]1[C:6]([H:13])([H:14])[C:7]1([H:15])[H:16])([H:11])[H:12])([H:8])([H:9])[H:10]>>[C:1]([C:2]#[C:3][C:4]([N+:5]([C-:6]([H:13])[H:14])=[C:7]([H:15])[H:16])([H:11])[H:12])([H:8])([H:9])[H:10]"
C        3.25955576       0.62520516       0.12138204
C        1.88167544       0.22192696      -0.13275658
C        0.79432458      -0.13869794      -0.48243582
C       -0.49324265      -0.65593496      -0.92906193
N       -1.60799512      -0.64427837      -0.00604015
C       -2.74171972       0.09350084      -0.19832109
C       -1.59972974      -0.23281091       1.29012505
H        3.44745490       1.63413842      -0.24876159
H        3.96418937      -0.05103663      -0.36483655
H        3.46324817       0.61159239       1.19315306
H       -0.79850936      -0.10583141      -1.82638894
H       -0.38554708      -1.71117084      -1.19530588
H       -3.70250473      -0.25683173       0.14789907
H       -2.73245186       0.83327299      -0.98972420
H       -1.46509803       0.78033029       1.63913884
H       -1.28364992      -1.00337425       1.98193467
16
Frame=13 idx=009958 GeodesicLength=0.4866153479877984 rxn_smarts="[C:1]([C:2]#[C:3][C:4]([N:5]1[C:6]([H:13])([H:14])[C:7]1([H:15])[H:16])([H:11])[H:12])([H:8])([H:9])[H:10]>>[C:1]([C:2]#[C:3][C:4]([N+:5]([C-:6]([H:13])[H:14])=[C:7]([H:15])[H:16])([H:11])[H:12])([H:8])([H:9])[H:10]"
C        3.25565286       0.63145907       0.11747206
C        1.87517768       0.22969673      -0.12524014
C        0.78929039      -0.13576959      -0.47444506
C       -0.49559862      -0.65612445      -0.92482439
N       -1.61632209      -0.66944803      -0.00810219
C       -2.73189124       0.10004281      -0.19323420
C       -1.60570651      -0.25063821       1.28766155
H        3.45527577       1.62103685      -0.29615041
H        3.95662917      -0.07234101      -0.33363741
H        3.45311561       0.66385082       1.18998564
H       -0.80154497      -0.09711171      -1.81656608
H       -0.38049293      -1.70758322      -1.20169830
H       -3.70440171      -0.22629175       0.14351701
H       -2.70028544       0.83963067      -0.98353059
H       -1.44608521       0.75727576       1.64169045
H       -1.30281276      -1.02768475       1.97710205
16
Frame=14 idx=009958 GeodesicLength=0.5240772208763752 rxn_smarts="[C:1]([C:2]#[C:3][C:4]([N:5]1[C:6]([H:13])([H:14])[C:7]1([H:15])[H:16])([H:11])[H:12])([H:8])([H:9])[H:10]>>[C:1]([C:2]#[C:3][C:4]([N+:5]([C-:6]([H:13])[H:14])=[C:7]([H:15])[H:16])([H:11])[H:12])([H:8])([H:9])[H:10]"
C        3.25132431       0.63815034       0.11357333
C        1.86832607       0.23851218      -0.11852973
C        0.78433332      -0.13323242      -0.46699603
C       -0.49811582      -0.65601653      -0.92119432
N       -1.62471683      -0.69351050      -0.01130808
C       -2.72143273       0.10739794      -0.18742977
C       -1.61120992      -0.27023669       1.28498750
H        3.46539416       1.60241926      -0.34960814
H        3.94827671      -0.09581267      -0.29352616
H        3.44007184       0.72484747       1.18464223
H       -0.80461503      -0.08789429      -1.80715703
H       -0.37607529      -1.70356615      -1.20876194
H       -3.70496305      -0.19469728       0.13973606
H       -2.66761080       0.84782304      -0.97505063
H       -1.42653936       0.73102014       1.64612108
H       -1.32244758      -1.05520384       1.97050165
16
Frame=15 idx=009958 GeodesicLength=0.5616632538136671 rxn_smarts="[C:1]([C:2]#[C:3][C:4]([N:5]1[C:6]([H:13])([H:14])[C:7]1([H:15])[H:16])([H:11])[H:12])([H:8])([H:9])[H:10]>>[C:1]([C:2]#[C:3][C:4]([N+:5]([C-:6]([H:13])[H:14])=[C:7]([H:15])[H:16])([H:11])[H:12])([H:8])([H:9])[H:10]"
C        3.24688418       0.64554018       0.10899760
C        1.86181531       0.24549385      -0.11054947
C        0.77991723      -0.13343898      -0.45783005
C       -0.50039995      -0.65709565      -0.91673601
N       -1.63361953      -0.71639909      -0.01511165
C       -2.71018638       0.11598945      -0.18209635
C       -1.61755962      -0.29001097       1.28220120
H        3.47217913       1.58324241      -0.40111371
H        3.94037220      -0.11389216      -0.25516283
H        3.42922727       0.78510343       1.17560319
H       -0.80605550      -0.07994720      -1.79736134
H       -0.37256078      -1.70093146      -1.21428545
H       -3.70440283      -0.16077205       0.13497044
H       -2.63324465       0.85727070      -0.96633387
H       -1.40757986       0.70345046       1.65146844
H       -1.34478621      -1.08360292       1.96333985
16
Frame=16 idx=009958 GeodesicLength=0.5992050555515135 rxn_smarts="[C:1]([C:2]#[C:3][C:4]([N:5]1[C:6]([H:13])([H:14])[C:7]1([H:15])[H:16])([H:11])[H:12])([H:8])([H:9])[H:10]>>[C:1]([C:2]#[C:3][C:4]([N+:5]([C-:6]([H:13])[H:14])=[C:7]([H:15])[H:16])([H:11])[H:12])([H:8])([H:9])[H:10]"
C        3.24254820       0.65186985       0.10526032
C        1.85475766       0.25604637      -0.10496322
C        0.77508307      -0.13022706      -0.45106558
C       -0.50294881      -0.65602006      -0.91359190
N       -1.64184671      -0.73803598      -0.01975046
C       -2.69962454       0.12281470      -0.17559886
C       -1.62254599      -0.30977399       1.27893224
H        3.48484010       1.55599188      -0.45509549
H        3.93033783      -0.13532334      -0.20691523
H        3.41535468       0.85029486       1.16408778
H       -0.80917022      -0.07010780      -1.78838533
H       -0.36853001      -1.69581014      -1.22125718
H       -3.70286298      -0.13046341       0.13248122
H       -2.60211174       0.86514560      -0.95583272
H       -1.38936272       0.67532277       1.65697019
H       -1.36391781      -1.11172426       1.95472422
