13
Frame=0 idx=003336 GeodesicLength=0.0 rxn_smarts="[C:1]1([H:7])([H:8])[C@@:2]2([H:9])[C@:3]1([H:10])[N:4]1[C:5]([H:11])([H:12])[C@@:6]21[H:13]>>[C:1](=[C:3]([N:4]1[C:5]([H:11])([H:12])[C@:6]1([C:2][H:9])[H:13])[H:10])([H:7])[H:8]"
C       -0.98204091       1.35873913       0.09301074
C       -1.00018586      -1.20605059       0.36515780
C       -0.26855113       0.75620931      -0.86130244
N        0.93133037       0.00157550      -0.71301872
C        1.36845955      -0.22306054       0.67137758
C        0.46904215      -1.18537834       0.02917332
H       -0.65623703       1.46562512       1.11745284
H       -1.92823498       1.81303007      -0.16797514
H       -1.52765483      -1.29027474      -0.60154211
H       -0.65039221       0.72469139      -1.87681642
H        0.97869957       0.39609795       1.46913349
H        2.42663882      -0.44069019       0.73974711
H        0.83912655      -2.17051409      -0.26439808
13
Frame=1 idx=003336 GeodesicLength=0.06063802680709651 rxn_smarts="[C:1]1([H:7])([H:8])[C@@:2]2([H:9])[C@:3]1([H:10])[N:4]1[C:5]([H:11])([H:12])[C@@:6]21[H:13]>>[C:1](=[C:3]([N:4]1[C:5]([H:11])([H:12])[C@:6]1([C:2][H:9])[H:13])[H:10])([H:7])[H:8]"
C       -0.98812389       1.35176377       0.09942894
C       -0.99780255      -1.18056616       0.35432159
C       -0.27291349       0.75113631      -0.86027960
N        0.93400649       0.00462913      -0.70969870
C        1.36707048      -0.22266364       0.67289573
C        0.47010350      -1.18735418       0.02449826
H       -0.64309952       1.49153070       1.11370839
H       -1.93060818       1.81296523      -0.16286333
H       -1.53171484      -1.32433388      -0.60056757
H       -0.64911608       0.72706206      -1.87782270
H        0.97688725       0.39280046       1.47322005
H        2.42362151      -0.44695772       0.74582012
H        0.84168933      -2.17001208      -0.27266117
13
Frame=2 idx=003336 GeodesicLength=0.12114790123612268 rxn_smarts="[C:1]1([H:7])([H:8])[C@@:2]2([H:9])[C@:3]1([H:10])[N:4]1[C:5]([H:11])([H:12])[C@@:6]21[H:13]>>[C:1](=[C:3]([N:4]1[C:5]([H:11])([H:12])[C@:6]1([C:2][H:9])[H:13])[H:10])([H:7])[H:8]"
C       -0.99364155       1.34531760       0.10571978
C       -0.99516242      -1.15580299       0.34255782
C       -0.27682835       0.74655077      -0.85951781
N        0.93685834       0.00789786      -0.70638238
C        1.36545182      -0.22236228       0.67448893
C        0.47108181      -1.18921692       0.01939335
H       -0.63064892       1.51663046       1.10900761
H       -1.93276647       1.81264066      -0.15787304
H       -1.53620083      -1.35805372      -0.59642024
H       -0.64758375       0.72973835      -1.87893072
H        0.97452479       0.38913186       1.47741666
H        2.42029025      -0.45333306       0.75220109
H        0.84462527      -2.16913861      -0.28166104
13
Frame=3 idx=003336 GeodesicLength=0.1815331668906972 rxn_smarts="[C:1]1([H:7])([H:8])[C@@:2]2([H:9])[C@:3]1([H:10])[N:4]1[C:5]([H:11])([H:12])[C@@:6]21[H:13]>>[C:1](=[C:3]([N:4]1[C:5]([H:11])([H:12])[C@:6]1([C:2][H:9])[H:13])[H:10])([H:7])[H:8]"
C       -0.99863309       1.33936209       0.11185702
C       -0.99228964      -1.13171020       0.32987648
C       -0.28027565       0.74247373      -0.85903182
N        0.93990169       0.01138309      -0.70307627
C        1.36361160      -0.22216522       0.67614649
C        0.47198066      -1.19095522       0.01383890
H       -0.61890902       1.54088693       1.10348285
H       -1.93474747       1.81205402      -0.15303214
H       -1.54108690      -1.39145499      -0.58907488
H       -0.64574007       0.73276406      -1.88017729
H        0.97162856       0.38509214       1.48170584
H        2.41664945      -0.45983580       0.75886729
H        0.84790990      -2.16789462      -0.29138247
13
Frame=4 idx=003336 GeodesicLength=0.24178857892809716 rxn_smarts="[C:1]1([H:7])([H:8])[C@@:2]2([H:9])[C@:3]1([H:10])[N:4]1[C:5]([H:11])([H:12])[C@@:6]21[H:13]>>[C:1](=[C:3]([N:4]1[C:5]([H:11])([H:12])[C@:6]1([C:2][H:9])[H:13])[H:10])([H:7])[H:8]"
C       -1.00314131       1.33385269       0.11781560
C       -0.98920210      -1.10824906       0.31626365
C       -0.28323841       0.73892723      -0.85883373
N        0.94314573       0.01508610      -0.69978525
C        1.36154863      -0.22208449       0.67785457
C        0.47280381      -1.19256178       0.00781103
H       -0.60790667       1.56426581       1.09725762
H       -1.93657500       1.81121733      -0.14837310
H       -1.54632077      -1.42454499      -0.57846733
H       -0.64353223       0.73618706      -1.88159199
H        0.96820196       0.38067249       1.48606553
H        2.41269166      -0.46648218       0.76579140
H        0.85152470      -2.16628621      -0.30180799
13
Frame=5 idx=003336 GeodesicLength=0.30190560890476165 rxn_smarts="[C:1]1([H:7])([H:8])[C@@:2]2([H:9])[C@:3]1([H:10])[N:4]1[C:5]([H:11])([H:12])[C@@:6]21[H:13]>>[C:1](=[C:3]([N:4]1[C:5]([H:11])([H:12])[C@:6]1([C:2][H:9])[H:13])[H:10])([H:7])[H:8]"
C       -1.00720784       1.32875040       0.12355883
C       -0.98592885      -1.08537669       0.30169512
C       -0.28568821       0.73592780      -0.85895084
N        0.94662451       0.01901240      -0.69652361
C        1.35927889      -0.22212790       0.67960412
C        0.47356297      -1.19402352       0.00127024
H       -0.59770893       1.58667187       1.09048265
H       -1.93827873       1.81013946      -0.14394893
H       -1.55190770      -1.45728796      -0.56446764
H       -0.64089537       0.74004396      -1.88322802
H        0.96425634       0.37586497       1.49048745
H        2.40844030      -0.47328411       0.77295895
H        0.85545263      -2.16431068      -0.31293833
13
Frame=6 idx=003336 GeodesicLength=0.361852663191829 rxn_smarts="[C:1]1([H:7])([H:8])[C@@:2]2([H:9])[C@:3]1([H:10])[N:4]1[C:5]([H:11])([H:12])[C@@:6]21[H:13]>>[C:1](=[C:3]([N:4]1[C:5]([H:11])([H:12])[C@:6]1([C:2][H:9])[H:13])[H:10])([H:7])[H:8]"
C       -1.01087379       1.32399532       0.12906503
C       -0.98246307      -1.06308537       0.28610793
C       -0.28761981       0.73351044      -0.85938095
N        0.95031157       0.02317165      -0.69328415
C        1.35675918      -0.22231821       0.68136921
C        0.47425384      -1.19534196      -0.00580904
H       -0.58831499       1.60811413       1.08323526
H       -1.93984156       1.80884841      -0.13978978
H       -1.55767684      -1.48969182      -0.54693768
H       -0.63778599       0.74441050      -1.88508031
H        0.95975016       0.37062702       1.49492711
H        2.40382170      -0.48025690       0.78032670
H        0.85967962      -2.16198322      -0.32474932
13
Frame=7 idx=003336 GeodesicLength=0.42166282345092343 rxn_smarts="[C:1]1([H:7])([H:8])[C@@:2]2([H:9])[C@:3]1([H:10])[N:4]1[C:5]([H:11])([H:12])[C@@:6]21[H:13]>>[C:1](=[C:3]([N:4]1[C:5]([H:11])([H:12])[C@:6]1([C:2][H:9])[H:13])[H:10])([H:7])[H:8]"
C       -1.01421122       1.31953332       0.13429429
C       -0.97886195      -1.04132824       0.26945349
C       -0.28899137       0.73166688      -0.86017746
N        0.95430125       0.02757718      -0.69008665
C        1.35403276      -0.22266721       0.68316905
C        0.47490943      -1.19649903      -0.01351595
H       -0.57979270       1.62853600       1.07566094
H       -1.94135044       1.80731783      -0.13596191
H       -1.56372650      -1.52165212      -0.52559440
H       -0.63411284       0.74929648      -1.88725560
H        0.95467198       0.36492238       1.49943594
H        2.39892090      -0.48743270       0.78794136
H        0.86421069      -2.15927077      -0.33736311
13
Frame=8 idx=003336 GeodesicLength=0.48126706398105357 rxn_smarts="[C:1]1([H:7])([H:8])[C@@:2]2([H:9])[C@:3]1([H:10])[N:4]1[C:5]([H:11])([H:12])[C@@:6]21[H:13]>>[C:1](=[C:3]([N:4]1[C:5]([H:11])([H:12])[C@:6]1([C:2][H:9])[H:13])[H:10])([H:7])[H:8]"
C       -1.01723890       1.31531083       0.13921052
C       -0.97505805      -1.02012311       0.25161371
C       -0.28981694       0.73046504      -0.86131473
N        0.95850116       0.03225544      -0.68689935
C        1.35098814      -0.22322067       0.68494973
C        0.47551840      -1.19750523      -0.02187672
H       -0.57213264       1.64794273       1.06776983
H       -1.94273178       1.80558984      -0.13250438
H       -1.56969248      -1.55316464      -0.50017390
H       -0.62984375       0.75484166      -1.88968703
H        0.94892239       0.35865931       1.50390729
H        2.39354156      -0.49485246       0.79573739
H        0.86904289      -2.15619873      -0.35073235
13
Frame=9 idx=003336 GeodesicLength=0.540682186130561 rxn_smarts="[C:1]1([H:7])([H:8])[C@@:2]2([H:9])[C@:3]1([H:10])[N:4]1[C:5]([H:11])([H:12])[C@@:6]21[H:13]>>[C:1](=[C:3]([N:4]1[C:5]([H:11])([H:12])[C@:6]1([C:2][H:9])[H:13])[H:10])([H:7])[H:8]"
C       -1.02004271       1.31124318       0.14377074
C       -0.97114651      -0.99944025       0.23248569
C       -0.29002107       0.72988370      -0.86286931
N        0.96305131       0.03721328      -0.68376131
C        1.34768698      -0.22399200       0.68674068
C        0.47611823      -1.19833542      -0.03101168
H       -0.56544941       1.66622089       1.05974292
H       -1.94410446       1.80357458      -0.12949893
H       -1.57573259      -1.58395676      -0.47025609
H       -0.62484438       0.76104455      -1.89252413
H        0.94248233       0.35179213       1.50842032
H        2.38782289      -0.50252905       0.80376837
H        0.87417939      -2.15271882      -0.36500726
13
Frame=10 idx=003336 GeodesicLength=0.5998513580942042 rxn_smarts="[C:1]1([H:7])([H:8])[C@@:2]2([H:9])[C@:3]1([H:10])[N:4]1[C:5]([H:11])([H:12])[C@@:6]21[H:13]>>[C:1](=[C:3]([N:4]1[C:5]([H:11])([H:12])[C@:6]1([C:2][H:9])[H:13])[H:10])([H:7])[H:8]"
C       -1.02268961       1.30732594       0.14793773
C       -0.96710395      -0.97931723       0.21187192
C       -0.28963132       0.73000354      -0.86484126
N        0.96790607       0.04247124      -0.68064176
C        1.34405532      -0.22504360       0.68851903
C        0.47672247      -1.19903959      -0.04100404
H       -0.55975567       1.68345302       1.05161308
H       -1.94548041       1.80138691      -0.12700196
H       -1.58148387      -1.61403680      -0.43541076
H       -0.61908693       0.76805911      -1.89575805
H        0.93524131       0.34421615       1.51293289
H        2.38163261      -0.51054926       0.81203612
H        0.87967398      -2.14892945      -0.38025294
13
Frame=11 idx=003336 GeodesicLength=0.6587496557724501 rxn_smarts="[C:1]1([H:7])([H:8])[C@@:2]2([H:9])[C@:3]1([H:10])[N:4]1[C:5]([H:11])([H:12])[C@@:6]21[H:13]>>[C:1](=[C:3]([N:4]1[C:5]([H:11])([H:12])[C@:6]1([C:2][H:9])[H:13])[H:10])([H:7])[H:8]"
C       -1.02518074       1.30332454       0.15162114
C       -0.96289268      -0.95975408       0.18962815
C       -0.28852718       0.73081590      -0.86728767
N        0.97311567       0.04812791      -0.67755489
C        1.33998259      -0.22641207       0.69025748
C        0.47733971      -1.19951353      -0.05200080
H       -0.55514259       1.69934806       1.04341887
H       -1.94680396       1.79871320      -0.12513154
H       -1.58687594      -1.64286931      -0.39479741
H       -0.61232285       0.77599704      -1.89945784
H        0.92700945       0.33571954       1.51741054
H        2.37483307      -0.51891090       0.82053644
H        0.88546545      -2.14458630      -0.39664247
13
Frame=12 idx=003336 GeodesicLength=0.7174263555511047 rxn_smarts="[C:1]1([H:7])([H:8])[C@@:2]2([H:9])[C@:3]1([H:10])[N:4]1[C:5]([H:11])([H:12])[C@@:6]21[H:13]>>[C:1](=[C:3]([N:4]1[C:5]([H:11])([H:12])[C@:6]1([C:2][H:9])[H:13])[H:10])([H:7])[H:8]"
C       -1.02773493       1.29930479       0.15479419
C       -0.95865996      -0.94079425       0.16537830
C       -0.28671236       0.73236321      -0.87027646
N        0.97883200       0.05412646      -0.67449235
C        1.33554792      -0.22818908       0.69201091
C        0.47805204      -1.19987592      -0.06422420
H       -0.55176837       1.71410792       1.03533437
H       -1.94837314       1.79573510      -0.12396972
H       -1.59173099      -1.67025118      -0.34767040
H       -0.60447425       0.78494363      -1.90377895
H        0.91769810       0.32622612       1.52197345
H        2.36759457      -0.52779065       0.82941029
H        0.89172938      -2.13990614      -0.41448943
13
Frame=13 idx=003336 GeodesicLength=0.7757503769411003 rxn_smarts="[C:1]1([H:7])([H:8])[C@@:2]2([H:9])[C@:3]1([H:10])[N:4]1[C:5]([H:11])([H:12])[C@@:6]21[H:13]>>[C:1](=[C:3]([N:4]1[C:5]([H:11])([H:12])[C@:6]1([C:2][H:9])[H:13])[H:10])([H:7])[H:8]"
C       -1.03034357       1.29509517       0.15731323
C       -0.95428923      -0.92252014       0.13871511
C       -0.28412517       0.73479272      -0.87381387
N        0.98493984       0.06063689      -0.67139933
C        1.33042025      -0.23050142       0.69366225
C        0.47883419      -1.20009233      -0.07788707
H       -0.54972698       1.72748746       1.02724839
H       -1.94999974       1.79236126      -0.12367871
H       -1.59512751      -1.69577679      -0.29253601
H       -0.59527465       0.79529311      -1.90864371
H        0.90685473       0.31533016       1.52641994
H        2.35937360      -0.53735004       0.83860966
H        0.89846425      -2.13475605      -0.43400988
13
Frame=14 idx=003336 GeodesicLength=0.8336892679482046 rxn_smarts="[C:1]1([H:7])([H:8])[C@@:2]2([H:9])[C@:3]1([H:10])[N:4]1[C:5]([H:11])([H:12])[C@@:6]21[H:13]>>[C:1](=[C:3]([N:4]1[C:5]([H:11])([H:12])[C@:6]1([C:2][H:9])[H:13])[H:10])([H:7])[H:8]"
C       -1.03313546       1.29041368       0.15899191
C       -0.94977331      -0.90503262       0.10909827
C       -0.28061682       0.73811487      -0.87806327
N        0.99158770       0.06770141      -0.66831597
C        1.32457769      -0.23347975       0.69524231
C        0.47979194      -1.20010444      -0.09329966
H       -0.54941498       1.73890438       1.01944941
H       -1.95184555       1.78821113      -0.12454699
H       -1.59697771      -1.71799437      -0.22778519
H       -0.58445127       0.80721227      -1.91429999
H        0.89428136       0.30267200       1.53081486
H        2.35022700      -0.54764407       0.84824073
H        0.90574940      -2.12897448      -0.45552643
13
Frame=15 idx=003336 GeodesicLength=0.8912510325232679 rxn_smarts="[C:1]1([H:7])([H:8])[C@@:2]2([H:9])[C@:3]1([H:10])[N:4]1[C:5]([H:11])([H:12])[C@@:6]21[H:13]>>[C:1](=[C:3]([N:4]1[C:5]([H:11])([H:12])[C@:6]1([C:2][H:9])[H:13])[H:10])([H:7])[H:8]"
C       -1.03631686       1.28500276       0.15961068
C       -0.94510201      -0.88852000       0.07571562
C       -0.27613005       0.74240470      -0.88310140
N        0.99880708       0.07536430      -0.66517388
C        1.31780415      -0.23737023       0.69669174
C        0.48101873      -1.19994989      -0.11087284
H       -0.55122121       1.74794391       1.01201151
H       -1.95410545       1.78304032      -0.12686653
H       -1.59617533      -1.73514415      -0.15117004
H       -0.57169809       0.82107241      -1.92080543
H        0.87947131       0.28767874       1.53504652
H        2.33985357      -0.55900021       0.85841172
H        0.91379416      -2.12252266      -0.47949768
13
Frame=16 idx=003336 GeodesicLength=0.9483410933976455 rxn_smarts="[C:1]1([H:7])([H:8])[C@@:2]2([H:9])[C@:3]1([H:10])[N:4]1[C:5]([H:11])([H:12])[C@@:6]21[H:13]>>[C:1](=[C:3]([N:4]1[C:5]([H:11])([H:12])[C@:6]1([C:2][H:9])[H:13])[H:10])([H:7])[H:8]"
C       -1.04013253       1.27838917       0.15895223
C       -0.94027492      -0.87341987       0.03772865
C       -0.27057634       0.74761803      -0.88904002
N        1.00663911       0.08362229      -0.66197275
C        1.30987186      -0.24241270       0.69793207
C        0.48263397      -1.19972011      -0.13101634
H       -0.55569994       1.75389910       1.00515195
H       -1.95704393       1.77625042      -0.13091326
H       -1.59135921      -1.74395101      -0.06037207
H       -0.55666278       0.83711348      -1.92827897
H        0.86181881       0.26965394       1.53902735
H        2.32795674      -0.57165831       0.86917689
H        0.92282919      -2.11538442      -0.50637572
