16
Frame=0 idx=002767 GeodesicLength=0.0 rxn_smarts="[C:1]([C@@:2]1([H:10])[C@:3]([C:4]([H:12])([H:13])[H:14])([H:11])[C@:5]1([O:6][H:16])[H:15])([H:7])([H:8])[H:9]>>[C:1]([C@@:2]([C@@:3]([C:4]([H:12])([H:13])[H:14])([O:6][H:16])[H:11])([C:5][H:15])[H:10])([H:7])([H:8])[H:9]"
C       -1.07731531      -0.69729785      -1.14584189
C       -0.88312704      -0.27926634       0.30636492
C        0.50408846      -0.14843132       0.79269100
C        1.74311288      -0.46255901       0.04006457
C       -1.06603286       1.13936236       0.73352166
O        0.21516077       1.71991366       0.15686251
H       -0.58099057       0.00170798      -1.82098587
H       -2.14158534      -0.68635627      -1.38614956
H       -0.69934243      -1.70529148      -1.34768427
H       -1.43870506      -0.93299411       0.99014740
H        0.58965225      -0.10082146       1.87140487
H        2.59005671       0.12592647       0.39203520
H        1.96989974      -1.51620725       0.24972831
H        1.62889893      -0.33922895      -1.03376364
H       -1.93934014       1.64906501       0.32714716
H        0.58556901       2.23247862       0.87445768
16
Frame=1 idx=002767 GeodesicLength=0.037728162369307185 rxn_smarts="[C:1]([C@@:2]1([H:10])[C@:3]([C:4]([H:12])([H:13])[H:14])([H:11])[C@:5]1([O:6][H:16])[H:15])([H:7])([H:8])[H:9]>>[C:1]([C@@:2]([C@@:3]([C:4]([H:12])([H:13])[H:14])([O:6][H:16])[H:11])([C:5][H:15])[H:10])([H:7])([H:8])[H:9]"
C       -1.07713083      -0.69804158      -1.14753376
C       -0.88521953      -0.28459800       0.30541243
C        0.50150119      -0.13537602       0.79424230
C        1.74040768      -0.46125345       0.04384595
C       -1.05999270       1.13421469       0.73665384
O        0.21628779       1.72087086       0.14687803
H       -0.57934636       0.00141588      -1.82101753
H       -2.14095697      -0.68689046      -1.38995240
H       -0.69872083      -1.70559403      -1.35019807
H       -1.43880774      -0.94090476       0.98744875
H        0.58877198      -0.10187962       1.87364577
H        2.59144118       0.11891816       0.40025031
H        1.95909406      -1.51747984       0.24701217
H        1.63045152      -0.32963108      -1.02958303
H       -1.93889783       1.64562199       0.34567743
H        0.59111737       2.24060726       0.85721781
16
Frame=2 idx=002767 GeodesicLength=0.07545974386850646 rxn_smarts="[C:1]([C@@:2]1([H:10])[C@:3]([C:4]([H:12])([H:13])[H:14])([H:11])[C@:5]1([O:6][H:16])[H:15])([H:7])([H:8])[H:9]>>[C:1]([C@@:2]([C@@:3]([C:4]([H:12])([H:13])[H:14])([O:6][H:16])[H:11])([C:5][H:15])[H:10])([H:7])([H:8])[H:9]"
C       -1.07694526      -0.69880401      -1.14915171
C       -0.88720389      -0.28984829       0.30449405
C        0.49889743      -0.12246448       0.79577428
C        1.73765169      -0.45991716       0.04759287
C       -1.05402846       1.12916111       0.73962390
O        0.21741657       1.72180843       0.13708802
H       -0.57770911       0.00106182      -1.82102009
H       -2.14033162      -0.68744772      -1.39364369
H       -0.69815425      -1.70593838      -1.35262402
H       -1.43885996      -0.94867784       0.98478002
H        0.58791490      -0.10304915       1.87569862
H        2.59263266       0.11196187       0.40844021
H        1.94839452      -1.51859837       0.24418494
H        1.63201493      -0.32005495      -1.02537021
H       -1.93818050       1.64225202       0.36392081
H        0.59649036       2.24855510       0.84021202
16
Frame=3 idx=002767 GeodesicLength=0.11319305283161837 rxn_smarts="[C:1]([C@@:2]1([H:10])[C@:3]([C:4]([H:12])([H:13])[H:14])([H:11])[C@:5]1([O:6][H:16])[H:15])([H:7])([H:8])[H:9]>>[C:1]([C@@:2]([C@@:3]([C:4]([H:12])([H:13])[H:14])([O:6][H:16])[H:11])([C:5][H:15])[H:10])([H:7])([H:8])[H:9]"
C       -1.07676038      -0.69958728      -1.15070381
C       -0.88908831      -0.29501753       0.30361234
C        0.49628149      -0.10969263       0.79729521
C        1.73485668      -0.45855556       0.05130790
C       -1.04815042       1.12420505       0.74244462
O        0.21854031       1.72272632       0.12747787
H       -0.57608083       0.00064347      -1.82100381
H       -2.13971595      -0.68802965      -1.39723681
H       -0.69763732      -1.70632848      -1.35497423
H       -1.43886605      -0.95631779       0.98214614
H        0.58708707      -0.10430767       1.87758065
H        2.59365114       0.10503582       0.41662680
H        1.93780088      -1.51958101       0.24123037
H        1.63360017      -0.31048431      -1.02112535
H       -1.93722190       1.63895906       0.38190213
H        0.60170340       2.25633219       0.82342000
16
Frame=4 idx=002767 GeodesicLength=0.15095330533536028 rxn_smarts="[C:1]([C@@:2]1([H:10])[C@:3]([C:4]([H:12])([H:13])[H:14])([H:11])[C@:5]1([O:6][H:16])[H:15])([H:7])([H:8])[H:9]>>[C:1]([C@@:2]([C@@:3]([C:4]([H:12])([H:13])[H:14])([O:6][H:16])[H:11])([C:5][H:15])[H:10])([H:7])([H:8])[H:9]"
C       -1.07656669      -0.70038616      -1.15217941
C       -0.89086866      -0.30011396       0.30276441
C        0.49365098      -0.09705833       0.79880035
C        1.73200995      -0.45716420       0.05499220
C       -1.04234797       1.11933341       0.74512216
O        0.21966638       1.72361435       0.11803454
H       -0.57444899       0.00016778      -1.82095184
H       -2.13908939      -0.68862863      -1.40071963
H       -0.69717034      -1.70675364      -1.35723586
H       -1.43881860      -0.96384427       0.97953137
H        0.58626818      -0.10563965       1.87926753
H        2.59448389       0.09813321       0.42481908
H        1.92727696      -1.52042292       0.23814174
H        1.63520189      -0.30090148      -1.01683625
H       -1.93602061       1.63572044       0.39963872
H        0.60677303       2.26394405       0.80681090
16
Frame=5 idx=002767 GeodesicLength=0.18872842700651626 rxn_smarts="[C:1]([C@@:2]1([H:10])[C@:3]([C:4]([H:12])([H:13])[H:14])([H:11])[C@:5]1([O:6][H:16])[H:15])([H:7])([H:8])[H:9]>>[C:1]([C@@:2]([C@@:3]([C:4]([H:12])([H:13])[H:14])([O:6][H:16])[H:11])([C:5][H:15])[H:10])([H:7])([H:8])[H:9]"
C       -1.07636725      -0.70119723      -1.15358159
C       -0.89255527      -0.30513940       0.30194837
C        0.49099826      -0.08457266       0.80028596
C        1.72910810      -0.45574026       0.05863972
C       -1.03662801       1.11454049       0.74765244
O        0.22081090       1.72446907       0.10878008
H       -0.57281243      -0.00035525      -1.82085708
H       -2.13845445      -0.68924631      -1.40409847
H       -0.69675373      -1.70720839      -1.35940730
H       -1.43874019      -0.97124855       0.97693755
H        0.58546187      -0.10704803       1.88077256
H        2.59512063       0.09130345       0.43295534
H        1.91687241      -1.52110620       0.23496002
H        1.63679551      -0.29135542      -1.01251115
H       -1.93456944       1.63254626       0.41709089
H        0.61171309       2.27135842       0.79043267
16
Frame=6 idx=002767 GeodesicLength=0.22649394956598698 rxn_smarts="[C:1]([C@@:2]1([H:10])[C@:3]([C:4]([H:12])([H:13])[H:14])([H:11])[C@:5]1([O:6][H:16])[H:15])([H:7])([H:8])[H:9]>>[C:1]([C@@:2]([C@@:3]([C:4]([H:12])([H:13])[H:14])([O:6][H:16])[H:11])([C:5][H:15])[H:10])([H:7])([H:8])[H:9]"
C       -1.07617081      -0.70202350      -1.15492731
C       -0.89415500      -0.31009367       0.30116756
C        0.48833728      -0.07222862       0.80176724
C        1.72617520      -0.45429946       0.06225316
C       -1.03100640       1.10983761       0.75005555
O        0.22196097       1.72529783       0.09970710
H       -0.57118469      -0.00092732      -1.82074215
H       -2.13783047      -0.68987744      -1.40739500
H       -0.69638469      -1.70770220      -1.36151380
H       -1.43862926      -0.97853603       0.97437162
H        0.58467659      -0.10850268       1.88211562
H        2.59559802       0.08451836       0.44105403
H        1.90660477      -1.52165865       0.23168463
H        1.63840163      -0.28185553      -1.00816069
H       -1.93291554       1.62944409       0.43428635
H        0.61652238       2.27860722       0.77427610
16
Frame=7 idx=002767 GeodesicLength=0.26427428844527895 rxn_smarts="[C:1]([C@@:2]1([H:10])[C@:3]([C:4]([H:12])([H:13])[H:14])([H:11])[C@:5]1([O:6][H:16])[H:15])([H:7])([H:8])[H:9]>>[C:1]([C@@:2]([C@@:3]([C:4]([H:12])([H:13])[H:14])([O:6][H:16])[H:11])([C:5][H:15])[H:10])([H:7])([H:8])[H:9]"
C       -1.07596969      -0.70286227      -1.15621158
C       -0.89566985      -0.31498087       0.30042024
C        0.48566405      -0.06002118       0.80323977
C        1.72320374      -0.45283695       0.06583439
C       -1.02547840       1.10521564       0.75233612
O        0.22311670       1.72609395       0.09079586
H       -0.56955190      -0.00154691      -1.82059741
H       -2.13720320      -0.69052131      -1.41060808
H       -0.69605925      -1.70822899      -1.36354572
H       -1.43848457      -0.98571907       0.97182604
H        0.58390502      -0.10998973       1.88329357
H        2.59591168       0.07776227       0.44913491
H        1.89644248      -1.52208202       0.22829530
H        1.64002142      -0.27237483      -1.00377441
H       -1.93106781       1.62640150       0.45125633
H        0.62121956       2.28569077       0.75830467
16
Frame=8 idx=002767 GeodesicLength=0.3020764551547993 rxn_smarts="[C:1]([C@@:2]1([H:10])[C@:3]([C:4]([H:12])([H:13])[H:14])([H:11])[C@:5]1([O:6][H:16])[H:15])([H:7])([H:8])[H:9]>>[C:1]([C@@:2]([C@@:3]([C:4]([H:12])([H:13])[H:14])([O:6][H:16])[H:11])([C:5][H:15])[H:10])([H:7])([H:8])[H:9]"
C       -1.07576132      -0.70371388      -1.15743650
C       -0.89710308      -0.31980349       0.29970664
C        0.48297903      -0.04794496       0.80470450
C        1.72019663      -0.45135352       0.06938540
C       -1.02004579       1.10067275       0.75450233
O        0.22427348       1.72685426       0.08203126
H       -0.56790386      -0.00221823      -1.82042377
H       -2.13656906      -0.69117070      -1.41374464
H       -0.69577892      -1.70879121      -1.36550276
H       -1.43830374      -0.99280709       0.96929830
H        0.58314559      -0.11149365       1.88430608
H        2.59606745       0.07101785       0.45721655
H        1.88637169      -1.52238376       0.22477877
H        1.64166242      -0.26289624      -0.99934693
H       -1.92904401       1.62341466       0.46803352
H        0.62581348       2.29261720       0.74249124
16
Frame=9 idx=002767 GeodesicLength=0.3398969922422858 rxn_smarts="[C:1]([C@@:2]1([H:10])[C@:3]([C:4]([H:12])([H:13])[H:14])([H:11])[C@:5]1([O:6][H:16])[H:15])([H:7])([H:8])[H:9]>>[C:1]([C@@:2]([C@@:3]([C:4]([H:12])([H:13])[H:14])([O:6][H:16])[H:11])([C:5][H:15])[H:10])([H:7])([H:8])[H:9]"
C       -1.07554821      -0.70457555      -1.15860931
C       -0.89846215      -0.32456236       0.29902848
C        0.48028494      -0.03599450       0.80616670
C        1.71716669      -0.44985411       0.07290707
C       -1.01471462       1.09620991       0.75655447
O        0.22542140       1.72758253       0.07339370
H       -0.56623611      -0.00294200      -1.82023429
H       -2.13593561      -0.69181239      -1.41681813
H       -0.69554107      -1.70938956      -1.36738918
H       -1.43809179      -0.99980709       0.96679663
H        0.58239867      -0.11300742       1.88518092
H        2.59608342       0.06426630       0.46531156
H        1.87639885      -1.52258039       0.22112915
H        1.64333884      -0.25341068      -0.99487899
H       -1.92686985       1.62047788       0.48465489
H        0.63030660       2.29939946       0.72680633
16
Frame=10 idx=002767 GeodesicLength=0.37776544223755143 rxn_smarts="[C:1]([C@@:2]1([H:10])[C@:3]([C:4]([H:12])([H:13])[H:14])([H:11])[C@:5]1([O:6][H:16])[H:15])([H:7])([H:8])[H:9]>>[C:1]([C@@:2]([C@@:3]([C:4]([H:12])([H:13])[H:14])([O:6][H:16])[H:11])([C:5][H:15])[H:10])([H:7])([H:8])[H:9]"
C       -1.07531969      -0.70545370      -1.15971985
C       -0.89974070      -0.32926123       0.29837794
C        0.47758300      -0.02416436       0.80761661
C        1.71409509      -0.44833262       0.07640210
C       -1.00947668       1.09181705       0.75851554
O        0.22657494       1.72826479       0.06488939
H       -0.56454711      -0.00372203      -1.82000494
H       -2.13527776      -0.69246237      -1.41981412
H       -0.69534424      -1.71002336      -1.36919728
H       -1.43783453      -1.00672556       0.96429564
H        0.58165900      -0.11449799       1.88588275
H        2.59594191       0.05749941       0.47343890
H        1.86646970      -1.52265320       0.21731803
H        1.64503918      -0.24389828      -0.99035971
H       -1.92455130       1.61758609       0.50111093
H        0.63472919       2.30602736       0.71124808
16
Frame=11 idx=002767 GeodesicLength=0.4156701371219154 rxn_smarts="[C:1]([C@@:2]1([H:10])[C@:3]([C:4]([H:12])([H:13])[H:14])([H:11])[C@:5]1([O:6][H:16])[H:15])([H:7])([H:8])[H:9]>>[C:1]([C@@:2]([C@@:3]([C:4]([H:12])([H:13])[H:14])([O:6][H:16])[H:11])([C:5][H:15])[H:10])([H:7])([H:8])[H:9]"
C       -1.07508493      -0.70634365      -1.16077483
C       -0.90094769      -0.33390668       0.29775670
C        0.47486523      -0.01246146       0.80905603
C        1.71098372      -0.44678838       0.07986586
C       -1.00432812       1.08749100       0.76036361
O        0.22773981       1.72890909       0.05652980
H       -0.56283638      -0.00455234      -1.81973935
H       -2.13460910      -0.69311114      -1.42274774
H       -0.69519726      -1.71068828      -1.37093848
H       -1.43755676      -1.01355670       0.96180243
H        0.58092156      -0.11598135       1.88643600
H        2.59563458       0.05076902       0.48153996
H        1.85664935      -1.52260174       0.21340016
H        1.64674400      -0.23440577      -0.98579209
H       -1.92205459       1.61473431       0.51739581
H        0.63907657       2.31249408       0.69584613
16
Frame=12 idx=002767 GeodesicLength=0.4535818864898706 rxn_smarts="[C:1]([C@@:2]1([H:10])[C@:3]([C:4]([H:12])([H:13])[H:14])([H:11])[C@:5]1([O:6][H:16])[H:15])([H:7])([H:8])[H:9]>>[C:1]([C@@:2]([C@@:3]([C:4]([H:12])([H:13])[H:14])([O:6][H:16])[H:11])([C:5][H:15])[H:10])([H:7])([H:8])[H:9]"
C       -1.07484705      -0.70724124      -1.16178389
C       -0.90209106      -0.33849771       0.29716872
C        0.47213980      -0.00088355       0.81049413
C        1.70785390      -0.44523416       0.08329894
C       -0.99929049       1.08323530       0.76212330
O        0.22890480       1.72951594       0.04830361
H       -0.56111030      -0.00542400      -1.81945631
H       -2.13394105      -0.69375649      -1.42562472
H       -0.69509003      -1.71138310      -1.37262477
H       -1.43725923      -1.02030893       0.95933128
H        0.58019574      -0.11744064       1.88685715
H        2.59519162       0.04404778       0.48962832
H        1.84694427      -1.52244274       0.20937330
H        1.64847713      -0.22493466      -0.98118987
H       -1.91942720       1.61193800       0.53351553
H        0.64334914       2.31881020       0.68058526
16
Frame=13 idx=002767 GeodesicLength=0.49152271262449193 rxn_smarts="[C:1]([C@@:2]1([H:10])[C@:3]([C:4]([H:12])([H:13])[H:14])([H:11])[C@:5]1([O:6][H:16])[H:15])([H:7])([H:8])[H:9]>>[C:1]([C@@:2]([C@@:3]([C:4]([H:12])([H:13])[H:14])([O:6][H:16])[H:11])([C:5][H:15])[H:10])([H:7])([H:8])[H:9]"
C       -1.07460107      -0.70814894      -1.16274400
C       -0.90317048      -0.34303595       0.29660926
C        0.46940551       0.01057666       0.81192447
C        1.70469648      -0.44366527       0.08670284
C       -0.99435478       1.07904630       0.76379402
O        0.23007320       1.73008135       0.04020227
H       -0.55936370      -0.00634134      -1.81914735
H       -2.13326220      -0.69440240      -1.42844608
H       -0.69502109      -1.71210707      -1.37425272
H       -1.43693580      -1.02698805       0.95687030
H        0.57947378      -0.11885847       1.88714422
H        2.59460542       0.03732407       0.49772109
H        1.83732610      -1.52217307       0.20521958
H        1.65023480      -0.21546554      -0.97654187
H       -1.91667234       1.60918165       0.54949994
H        0.64756616       2.32497609       0.66544402
16
Frame=14 idx=002767 GeodesicLength=0.5294862376959268 rxn_smarts="[C:1]([C@@:2]1([H:10])[C@:3]([C:4]([H:12])([H:13])[H:14])([H:11])[C@:5]1([O:6][H:16])[H:15])([H:7])([H:8])[H:9]>>[C:1]([C@@:2]([C@@:3]([C:4]([H:12])([H:13])[H:14])([O:6][H:16])[H:11])([C:5][H:15])[H:10])([H:7])([H:8])[H:9]"
C       -1.07434988      -0.70906524      -1.16365835
C       -0.90419028      -0.34752516       0.29607850
C        0.46666057       0.02191871       0.81334896
C        1.70151289      -0.44208320       0.09007666
C       -0.98952342       1.07492064       0.76537997
O        0.23124852       1.73060715       0.03223193
H       -0.55760098      -0.00729783      -1.81881217
H       -2.13257674      -0.69504986      -1.43121395
H       -0.69499015      -1.71285731      -1.37582762
H       -1.43659265      -1.03359673       0.95441925
H        0.57875628      -0.12023165       1.88730210
H        2.59387696       0.03061299       0.50579777
H        1.82781310      -1.52179217       0.20095744
H        1.65200990      -0.20601692      -0.97185142
H       -1.91378555       1.60646835       0.56533434
H        0.65173144       2.33098823       0.65043658
16
Frame=15 idx=002767 GeodesicLength=0.5674643992272529 rxn_smarts="[C:1]([C@@:2]1([H:10])[C@:3]([C:4]([H:12])([H:13])[H:14])([H:11])[C@:5]1([O:6][H:16])[H:15])([H:7])([H:8])[H:9]>>[C:1]([C@@:2]([C@@:3]([C:4]([H:12])([H:13])[H:14])([O:6][H:16])[H:11])([C:5][H:15])[H:10])([H:7])([H:8])[H:9]"
C       -1.07409540      -0.70998915      -1.16452884
C       -0.90515364      -0.35196793       0.29557505
C        0.46390513       0.03314217       0.81476645
C        1.69830393      -0.44048965       0.09341836
C       -0.98479812       1.07085581       0.76688471
O        0.23243758       1.73109459       0.02440069
H       -0.55582740      -0.00828748      -1.81844975
H       -2.13188689      -0.69570156      -1.43392827
H       -0.69499606      -1.71363137      -1.37735231
H       -1.43623358      -1.04013628       0.95197782
H        0.57804182      -0.12155454       1.88733543
H        2.59300796       0.02392753       0.51384018
H        1.81841690      -1.52129939       0.19660194
H        1.65379537      -0.19660456      -0.96712338
H       -1.91076959       1.60379841       0.58100173
H        0.65585199       2.33684340       0.63558021
16
Frame=16 idx=002767 GeodesicLength=0.6054492559498119 rxn_smarts="[C:1]([C@@:2]1([H:10])[C@:3]([C:4]([H:12])([H:13])[H:14])([H:11])[C@:5]1([O:6][H:16])[H:15])([H:7])([H:8])[H:9]>>[C:1]([C@@:2]([C@@:3]([C:4]([H:12])([H:13])[H:14])([O:6][H:16])[H:11])([C:5][H:15])[H:10])([H:7])([H:8])[H:9]"
C       -1.07383978      -0.71091963      -1.16535753
C       -0.90606394      -0.35636685       0.29509795
C        0.46113898       0.04424683       0.81617610
C        1.69507055      -0.43888655       0.09672600
C       -0.98018024       1.06684924       0.76831112
O        0.23364664       1.73154569       0.01671640
H       -0.55404884      -0.00930375      -1.81805926
H       -2.13119543      -0.69636120      -1.43658907
H       -0.69503695      -1.71442642      -1.37883019
H       -1.43586277      -1.04660787       0.94954600
H        0.57733021      -0.12282137       1.88724958
H        2.59200119       0.01727984       0.52183049
H        1.80914875      -1.52069538       0.19216820
H        1.65558414      -0.18724330      -0.96236271
H       -1.90762682       1.60117174       0.59648478
H        0.65993432       2.34253899       0.62089214
