15
Frame=0 idx=010515 GeodesicLength=0.0 rxn_smarts="[C:1]([C:2]([C:3]([C:4](=[O:5])[C:6](=[O:7])[H:15])([H:13])[H:14])([H:11])[H:12])([H:8])([H:9])[H:10]>>[C:1]([C:2]([C:3](=[C:4]=[O:5])[H:13])([H:11])[H:12])([H:8])([H:9])[H:10].[C:6](=[O:7])([H:14])[H:15]"
C       -2.19474805      -0.17480061      -0.82464589
C       -1.07787792      -0.39843577       0.17881857
C        0.13992416       0.38175526       0.01204608
C        1.22845892       0.18263826       0.91497214
O        1.24352236      -0.67842896       1.84756720
C        2.55132148       0.14738226      -0.06788864
O        2.84660637       0.92810496      -0.90550731
H       -2.55457779       0.85514277      -0.79360962
H       -3.04083614      -0.82813081      -0.61193475
H       -1.86079439      -0.38449112      -1.84229290
H       -0.73245906      -1.44564843       0.22449449
H       -1.39334048      -0.25063100       1.22394115
H        0.26225456       1.10899353      -0.78739792
H        1.43299507       1.27966695       1.17331421
H        3.14955097      -0.72311734       0.25812322
15
Frame=1 idx=010515 GeodesicLength=0.16199390634568175 rxn_smarts="[C:1]([C:2]([C:3]([C:4](=[O:5])[C:6](=[O:7])[H:15])([H:13])[H:14])([H:11])[H:12])([H:8])([H:9])[H:10]>>[C:1]([C:2]([C:3](=[C:4]=[O:5])[H:13])([H:11])[H:12])([H:8])([H:9])[H:10].[C:6](=[O:7])([H:14])[H:15]"
C       -2.21627125      -0.15032346      -0.81066175
C       -1.09286678      -0.41606777       0.17561892
C        0.14900499       0.32692680      -0.01137431
C        1.21924739       0.13088729       0.90898006
O        1.24192741      -0.71062420       1.85053266
C        2.59838372       0.18932260      -0.03881431
O        2.86494023       0.95586258      -0.90009454
H       -2.54234593       0.89040119      -0.76620229
H       -3.07949050      -0.77896625      -0.59200303
H       -1.90396852      -0.36254241      -1.83469840
H       -0.78300506      -1.47406557       0.21018598
H       -1.39743991      -0.26199442       1.22248581
H        0.29175853       1.00593003      -0.84864400
H        1.39593519       1.28010248       1.11267060
H        3.25419049      -0.62484889       0.32201861
15
Frame=2 idx=010515 GeodesicLength=0.3227653073793094 rxn_smarts="[C:1]([C:2]([C:3]([C:4](=[O:5])[C:6](=[O:7])[H:15])([H:13])[H:14])([H:11])[H:12])([H:8])([H:9])[H:10]>>[C:1]([C:2]([C:3](=[C:4]=[O:5])[H:13])([H:11])[H:12])([H:8])([H:9])[H:10].[C:6](=[O:7])([H:14])[H:15]"
C       -2.23445943      -0.12367131      -0.79624220
C       -1.10747808      -0.43441524       0.17318261
C        0.15828913       0.26842656      -0.03393939
C        1.21197998       0.07650511       0.90183137
O        1.24222500      -0.74594690       1.85174634
C        2.64051029       0.23613313      -0.00925953
O        2.87867001       0.98186525      -0.89795897
H       -2.52351951       0.92741508      -0.73924912
H       -3.11566571      -0.72480780      -0.57160159
H       -1.94394091      -0.33863090      -1.82616186
H       -0.83561646      -1.50241822       0.19660471
H       -1.40052750      -0.27413683       1.22181610
H        0.32275059       0.89164460      -0.90945442
H        1.35737643       1.27645865       1.04987016
H        3.34940615      -0.51442118       0.38881579
15
Frame=3 idx=010515 GeodesicLength=0.4823697489490926 rxn_smarts="[C:1]([C:2]([C:3]([C:4](=[O:5])[C:6](=[O:7])[H:15])([H:13])[H:14])([H:11])[H:12])([H:8])([H:9])[H:10]>>[C:1]([C:2]([C:3](=[C:4]=[O:5])[H:13])([H:11])[H:12])([H:8])([H:9])[H:10].[C:6](=[O:7])([H:14])[H:15]"
C       -2.24839735      -0.09489056      -0.78170142
C       -1.12152091      -0.45325310       0.17179823
C        0.16746336       0.20715880      -0.05462909
C        1.20670540       0.01966593       0.89415075
O        1.24474374      -0.78442700       1.85162579
C        2.67617290       0.28764060       0.01993233
O        2.88692303       1.00502710      -0.89976544
H       -2.49761807       0.96574078      -0.71306319
H       -3.14815438      -0.66590747      -0.55162006
H       -1.97914495      -0.31239270      -1.81691797
H       -0.88973730      -1.53016520       0.18388034
H       -1.40278100      -0.28718415       1.22215659
H        0.35488220       0.76632722      -0.96774155
H        1.31776279       1.26910741       0.98539425
H        3.43270053      -0.39244767       0.45650045
15
Frame=4 idx=010515 GeodesicLength=0.6409641795197512 rxn_smarts="[C:1]([C:2]([C:3]([C:4](=[O:5])[C:6](=[O:7])[H:15])([H:13])[H:14])([H:11])[H:12])([H:8])([H:9])[H:10]>>[C:1]([C:2]([C:3](=[C:4]=[O:5])[H:13])([H:11])[H:12])([H:8])([H:9])[H:10].[C:6](=[O:7])([H:14])[H:15]"
C       -2.25747308      -0.06412440      -0.76724544
C       -1.13478436      -0.47244718       0.17151233
C        0.17626399       0.14413414      -0.07279715
C        1.20337726      -0.03933726       0.88639045
O        1.24959452      -0.82582859       1.85056961
C        2.70406921       0.34288263       0.04748821
O        2.88961428       1.02357013      -0.90620005
H       -2.46482424       1.00477345      -0.68724111
H       -3.17589289      -0.60301836      -0.53296610
H       -2.00834249      -0.28308616      -1.80725575
H       -0.94464598      -1.55687264       0.17169299
H       -1.40429734      -0.30153857       1.22356465
H        0.38759982       0.63159894      -1.02095432
H        1.27771333       1.25856359       0.91929444
H        3.50202796      -0.25926974       0.52414726
15
Frame=5 idx=010515 GeodesicLength=0.7986713902927975 rxn_smarts="[C:1]([C:2]([C:3]([C:4](=[O:5])[C:6](=[O:7])[H:15])([H:13])[H:14])([H:11])[H:12])([H:8])([H:9])[H:10]>>[C:1]([C:2]([C:3](=[C:4]=[O:5])[H:13])([H:11])[H:12])([H:8])([H:9])[H:10].[C:6](=[O:7])([H:14])[H:15]"
C       -2.26086610      -0.03223068      -0.75351564
C       -1.14700830      -0.49158751       0.17258013
C        0.18445549       0.08127391      -0.08701836
C        1.20182405      -0.09951678       0.87986430
O        1.25663731      -0.86909828       1.84988115
C        2.72313671       0.40076223       0.07249835
O        2.88650874       1.03543060      -0.91759043
H       -2.42590265       1.04317647      -0.66209391
H       -3.19746315      -0.53823502      -0.51743124
H       -2.02928889      -0.25076155      -1.79773358
H       -0.99901080      -1.58179869       0.16001882
H       -1.40564819      -0.31708883       1.22612552
H        0.41918753       0.49267567      -1.06515362
H        1.23816084       1.24603975       0.85247700
H        3.55527742      -0.11904128       0.58709150
15
Frame=6 idx=010515 GeodesicLength=0.9559516074463681 rxn_smarts="[C:1]([C:2]([C:3]([C:4](=[O:5])[C:6](=[O:7])[H:15])([H:13])[H:14])([H:11])[H:12])([H:8])([H:9])[H:10]>>[C:1]([C:2]([C:3](=[C:4]=[O:5])[H:13])([H:11])[H:12])([H:8])([H:9])[H:10].[C:6](=[O:7])([H:14])[H:15]"
C       -2.25900519       0.00055754      -0.74019411
C       -1.15810551      -0.51075452       0.17460013
C        0.19202222       0.01919905      -0.09778635
C        1.20177556      -0.16056952       0.87445392
O        1.26555822      -0.91379075       1.84961225
C        2.73348360       0.45955672       0.09377544
O        2.87989487       1.03950565      -0.93315574
H       -2.38206359       1.08050457      -0.63613394
H       -3.21299623      -0.47245004      -0.50487140
H       -2.04231236      -0.21476800      -1.78834421
H       -1.05231573      -1.60491976       0.14790432
H       -1.40673118      -0.33450435       1.22961203
H        0.44944000       0.35203928      -1.09981877
H        1.19940904       1.23216323       0.78398834
H        3.59194629       0.02823090       0.64635808
15
Frame=7 idx=010515 GeodesicLength=1.1130310914834718 rxn_smarts="[C:1]([C:2]([C:3]([C:4](=[O:5])[C:6](=[O:7])[H:15])([H:13])[H:14])([H:11])[H:12])([H:8])([H:9])[H:10]>>[C:1]([C:2]([C:3](=[C:4]=[O:5])[H:13])([H:11])[H:12])([H:8])([H:9])[H:10].[C:6](=[O:7])([H:14])[H:15]"
C       -2.25224288       0.03365222      -0.72710866
C       -1.16798444      -0.52988659       0.17730004
C        0.19899760      -0.04119677      -0.10519676
C        1.20290609      -0.22202976       0.87038092
O        1.27580284      -0.95904558       1.85027394
C        2.73564964       0.51751977       0.11061975
O        2.87205274       1.03450784      -0.95197138
H       -2.33479701       1.11600217      -0.60827520
H       -3.22247957      -0.40725787      -0.49544904
H       -2.04727742      -0.17500838      -1.77902918
H       -1.10384479      -1.62607706       0.13463003
H       -1.40770140      -0.35405701       1.23376946
H        0.47744682       0.21426121      -1.12427429
H        1.16200921       1.21768813       0.71306294
H        3.61146257       0.18092768       0.70126743
15
Frame=8 idx=010515 GeodesicLength=1.2701206451682965 rxn_smarts="[C:1]([C:2]([C:3]([C:4](=[O:5])[C:6](=[O:7])[H:15])([H:13])[H:14])([H:11])[H:12])([H:8])([H:9])[H:10]>>[C:1]([C:2]([C:3](=[C:4]=[O:5])[H:13])([H:11])[H:12])([H:8])([H:9])[H:10].[C:6](=[O:7])([H:14])[H:15]"
C       -2.24098447       0.06625696      -0.71439815
C       -1.17665900      -0.54872644       0.18064752
C        0.20556582      -0.09918841      -0.10906051
C        1.20503653      -0.28353225       0.86817290
O        1.28688024      -1.00397155       1.85281942
C        2.73045356       0.57455136       0.12363294
O        2.86427896       1.02169108      -0.97177579
H       -2.28528259       1.14897184      -0.57892018
H       -3.22622101      -0.34398385      -0.48933489
H       -2.04412169      -0.13266330      -1.76983083
H       -1.15308696      -1.64501654       0.12031891
H       -1.40894875      -0.37516576       1.23847713
H        0.50243717       0.08348848      -1.13872179
H        1.12578728       1.20335163       0.63992137
H        3.61486492       0.33393675       0.74805196
15
Frame=9 idx=010515 GeodesicLength=1.4272935889737335 rxn_smarts="[C:1]([C:2]([C:3]([C:4](=[O:5])[C:6](=[O:7])[H:15])([H:13])[H:14])([H:11])[H:12])([H:8])([H:9])[H:10]>>[C:1]([C:2]([C:3](=[C:4]=[O:5])[H:13])([H:11])[H:12])([H:8])([H:9])[H:10].[C:6](=[O:7])([H:14])[H:15]"
C       -2.22604023       0.09803636      -0.70176373
C       -1.18421287      -0.56709077       0.18445557
C        0.21185539      -0.15444538      -0.10987494
C        1.20807079      -0.34537449       0.86742688
O        1.29831493      -1.04830879       1.85726818
C        2.71890337       0.63014669       0.13308562
O        2.85845394       1.00233720      -0.99061634
H       -2.23466826       1.17922341      -0.54780069
H       -3.22500317      -0.28318442      -0.48579747
H       -2.03385751      -0.08848212      -1.76042112
H       -1.19994886      -1.66159625       0.10486000
H       -1.41047217      -0.39742231       1.24355775
H        0.52445241      -0.03862464      -1.14484435
H        1.09071585       1.18926670       0.56369684
H        3.60343639       0.48551880       0.78676781
15
Frame=10 idx=010515 GeodesicLength=1.5844852875356643 rxn_smarts="[C:1]([C:2]([C:3]([C:4](=[O:5])[C:6](=[O:7])[H:15])([H:13])[H:14])([H:11])[H:12])([H:8])([H:9])[H:10]>>[C:1]([C:2]([C:3](=[C:4]=[O:5])[H:13])([H:11])[H:12])([H:8])([H:9])[H:10].[C:6](=[O:7])([H:14])[H:15]"
C       -2.20789976       0.12859039      -0.68939713
C       -1.19074079      -0.58450448       0.18880287
C        0.21797156      -0.20626060      -0.10746978
C        1.21208355      -0.40813584       0.86801375
O        1.30973690      -1.09218924       1.86377232
C        2.70152657       0.68463025       0.13976992
O        2.85392397       0.97978498      -1.00631815
H       -2.18347957       1.20669900      -0.51621492
H       -3.21936485      -0.22508756      -0.48450281
H       -2.01704830      -0.04407923      -1.75075361
H       -1.24429321      -1.67544811       0.08873851
H       -1.41248925      -0.41976812       1.24897487
H        0.54341573      -0.15168225      -1.14389489
H        1.05657367       1.17556163       0.48511043
H        3.58008378       0.63188918       0.81536862
15
Frame=11 idx=010515 GeodesicLength=1.7420358417644635 rxn_smarts="[C:1]([C:2]([C:3]([C:4](=[O:5])[C:6](=[O:7])[H:15])([H:13])[H:14])([H:11])[H:12])([H:8])([H:9])[H:10]>>[C:1]([C:2]([C:3](=[C:4]=[O:5])[H:13])([H:11])[H:12])([H:8])([H:9])[H:10].[C:6](=[O:7])([H:14])[H:15]"
C       -2.18744106       0.15894660      -0.67547841
C       -1.19609197      -0.60148417       0.19309944
C        0.22414524      -0.25575867      -0.10393655
C        1.21677040      -0.47256408       0.86827436
O        1.32128018      -1.13670956       1.87032854
C        2.67938803       0.73620344       0.14286796
O        2.85707847       0.94827669      -1.01916949
H       -2.13239533       1.23223521      -0.48029376
H       -3.21019749      -0.16859722      -0.48303830
H       -1.99584757       0.00298940      -1.73938104
H       -1.28650361      -1.68701580       0.07051902
H       -1.41378768      -0.44360845       1.25448116
H        0.56024781      -0.25783366      -1.13883769
H        1.02378273       1.16140360       0.39813985
H        3.53957185       0.78351668       0.84242490
15
Frame=12 idx=010515 GeodesicLength=1.8995098968142523 rxn_smarts="[C:1]([C:2]([C:3]([C:4](=[O:5])[C:6](=[O:7])[H:15])([H:13])[H:14])([H:11])[H:12])([H:8])([H:9])[H:10]>>[C:1]([C:2]([C:3](=[C:4]=[O:5])[H:13])([H:11])[H:12])([H:8])([H:9])[H:10].[C:6](=[O:7])([H:14])[H:15]"
C       -2.16473778       0.18786406      -0.66171274
C       -1.20041213      -0.61687931       0.19803581
C        0.23046880      -0.30084629      -0.09729794
C        1.22246178      -0.53916828       0.86924202
O        1.33241386      -1.18122616       1.87874474
C        2.65221738       0.78695753       0.14440157
O        2.86140275       0.91783835      -1.02579829
H       -2.08209140       1.25521272      -0.44452955
H       -3.19761504      -0.11525534      -0.48337478
H       -1.96925638       0.04915240      -1.72739179
H       -1.32581280      -1.69538719       0.05222655
H       -1.41553120      -0.46634017       1.26032646
H        0.57430935      -0.35571371      -1.12879237
H        0.99181890       1.14748955       0.30731748
H        3.49036392       0.92630183       0.85860281
15
Frame=13 idx=010515 GeodesicLength=2.0574794608545344 rxn_smarts="[C:1]([C:2]([C:3]([C:4](=[O:5])[C:6](=[O:7])[H:15])([H:13])[H:14])([H:11])[H:12])([H:8])([H:9])[H:10]>>[C:1]([C:2]([C:3](=[C:4]=[O:5])[H:13])([H:11])[H:12])([H:8])([H:9])[H:10].[C:6](=[O:7])([H:14])[H:15]"
C       -2.14044979       0.21655295      -0.64601445
C       -1.20332134      -0.63108449       0.20324371
C        0.23737971      -0.34313429      -0.09002132
C        1.22889683      -0.60893814       0.86887738
O        1.34383366      -1.22740570       1.88632081
C        2.62032121       0.83591745       0.14368565
O        2.87543242       0.88118115      -1.02523796
H       -2.03249207       1.27663137      -0.40527724
H       -3.18231973      -0.06328883      -0.48216192
H       -1.93965013       0.09660429      -1.71305469
H       -1.36282789      -1.70085227       0.03313806
H       -1.41587660      -0.48879813       1.26649751
H        0.58632796      -0.44740607      -1.11667903
H        0.96133172       1.13202838       0.20392044
H        3.42341405       1.07199235       0.87276305
15
Frame=14 idx=010515 GeodesicLength=2.2155867051340774 rxn_smarts="[C:1]([C:2]([C:3]([C:4](=[O:5])[C:6](=[O:7])[H:15])([H:13])[H:14])([H:11])[H:12])([H:8])([H:9])[H:10]>>[C:1]([C:2]([C:3](=[C:4]=[O:5])[H:13])([H:11])[H:12])([H:8])([H:9])[H:10].[C:6](=[O:7])([H:14])[H:15]"
C       -2.11442595       0.24456124      -0.62954191
C       -1.20482247      -0.64327212       0.20932738
C        0.24516888      -0.38142318      -0.08062388
C        1.23632016      -0.68318354       0.86758215
O        1.35551141      -1.27561273       1.89396336
C        2.58286714       0.88423292       0.14197404
O        2.89328102       0.84600004      -1.01532306
H       -1.98348327       1.29655154      -0.36554802
H       -3.16432469      -0.01318785      -0.48091864
H       -1.90628764       0.14334957      -1.69722171
H       -1.39719134      -1.70280813       0.01481415
H       -1.41536382      -0.50917991       1.27337606
H        0.59575866      -0.53305486      -1.10175637
H        0.93240384       1.11415831       0.09010296
H        3.34458808       1.21286871       0.87979349
15
Frame=15 idx=010515 GeodesicLength=2.374497929039361 rxn_smarts="[C:1]([C:2]([C:3]([C:4](=[O:5])[C:6](=[O:7])[H:15])([H:13])[H:14])([H:11])[H:12])([H:8])([H:9])[H:10]>>[C:1]([C:2]([C:3](=[C:4]=[O:5])[H:13])([H:11])[H:12])([H:8])([H:9])[H:10].[C:6](=[O:7])([H:14])[H:15]"
C       -2.08639820       0.27295833      -0.61103287
C       -1.20423830      -0.65315988       0.21653677
C        0.25458194      -0.41714348      -0.07080230
C        1.24462757      -0.76343331       0.86358969
O        1.36857314      -1.32778046       1.89933517
C        2.53789362       0.93276831       0.13909566
O        2.91986565       0.81060646      -0.99232805
H       -1.93318435       1.31608406      -0.32451231
H       -3.14347804       0.03752218      -0.47647932
H       -1.87065637       0.18963294      -1.67885245
H       -1.42951510      -1.70092183      -0.00173025
H       -1.41196534      -0.52648011       1.28139192
H        0.60283033      -0.61511427      -1.08598713
H        0.90597288       1.08998893      -0.04227367
H        3.24509057       1.35447213       0.88404913
15
Frame=16 idx=010515 GeodesicLength=2.534152571141066 rxn_smarts="[C:1]([C:2]([C:3]([C:4](=[O:5])[C:6](=[O:7])[H:15])([H:13])[H:14])([H:11])[H:12])([H:8])([H:9])[H:10]>>[C:1]([C:2]([C:3](=[C:4]=[O:5])[H:13])([H:11])[H:12])([H:8])([H:9])[H:10].[C:6](=[O:7])([H:14])[H:15]"
C       -2.05497697       0.30246803      -0.59096326
C       -1.20104550      -0.66010833       0.22546027
C        0.26638611      -0.45071860      -0.05984365
C        1.25376386      -0.85162491       0.85672051
O        1.38383379      -1.38528270       1.90223519
C        2.48217811       0.98250865       0.13517426
O        2.94943447       0.78124170      -0.95394237
H       -1.87878626       1.33619187      -0.28406988
H       -3.11863197       0.09063563      -0.46929962
H       -1.83153627       0.23484392      -1.65840660
H       -1.45994697      -1.69454875      -0.01505831
H       -1.40500269      -0.53923101       1.29104787
H        0.60698317      -0.69569049      -1.06887666
H        0.88326373       1.05463219      -0.19291508
H        3.12408337       1.49468279       0.88273734
