19
Frame=0 idx=011365 GeodesicLength=0.0 rxn_smarts="[C:1]([C:2]([C:3]([C:4]([C:5]([H:16])([H:17])[H:18])([H:14])[H:15])([C:6](=[O:7])[H:19])[H:13])([H:11])[H:12])([H:8])([H:9])[H:10]>>[C:1]([C:2]([C@@:3]1([H:13])[C:6]([H:17])([H:19])[O:7]1)([H:11])[H:12])([H:8])([H:9])[H:10].[C:4](=[C:5]([H:16])[H:18])([H:14])[H:15]"
C       -2.42925131      -0.74965549       0.45774902
C       -1.13684005      -0.73059698      -0.35369561
C       -0.02347432       0.06021128       0.27998551
C        1.65295917      -0.61127322      -0.39864900
C        2.57232363       0.36488998      -0.10786899
C        0.13799689       1.51743083      -0.02976611
O       -0.91281089       1.95486505       0.59467990
H       -3.17758097      -1.37751094      -0.02999145
H       -2.25757673      -1.14744098       1.46047833
H       -2.81740235       0.26245865       0.56084064
H       -0.78628716      -1.75994882      -0.48233945
H       -1.32144601      -0.33240594      -1.35557425
H        0.12520148      -0.14385056       1.33885028
H        1.39150285      -0.77535894      -1.43846385
H        1.62743605      -1.49507767       0.23153855
H        3.04782707       0.41988461       0.86417444
H        1.18122492       1.77079572       0.39225773
H        2.91890602       1.06263067      -0.85904515
H        0.20729180       1.70995278      -1.12516053
19
Frame=1 idx=011365 GeodesicLength=0.10397248629792323 rxn_smarts="[C:1]([C:2]([C:3]([C:4]([C:5]([H:16])([H:17])[H:18])([H:14])[H:15])([C:6](=[O:7])[H:19])[H:13])([H:11])[H:12])([H:8])([H:9])[H:10]>>[C:1]([C:2]([C@@:3]1([H:13])[C:6]([H:17])([H:19])[O:7]1)([H:11])[H:12])([H:8])([H:9])[H:10].[C:4](=[C:5]([H:16])[H:18])([H:14])[H:15]"
C       -2.44064661      -0.75055662       0.45029521
C       -1.14192507      -0.72987661      -0.35051555
C       -0.03491208       0.06604653       0.28914716
C        1.66035182      -0.60721409      -0.39436608
C        2.58048943       0.37485024      -0.11095254
C        0.13130425       1.51956023      -0.02712631
O       -0.90827794       1.94510429       0.62268380
H       -3.18242599      -1.38486618      -0.03900952
H       -2.27565416      -1.14035899       1.45724879
H       -2.83639572       0.25984553       0.54243147
H       -0.78777394      -1.75870629      -0.47334186
H       -1.32072462      -0.33554632      -1.35502961
H        0.11227610      -0.14291769       1.34748218
H        1.40407236      -0.77945002      -1.43447176
H        1.63948466      -1.48853057       0.23954334
H        3.08425898       0.41417054       0.84749682
H        1.20680636       1.76621448       0.38496835
H        2.92961986       1.05902257      -0.87390704
H        0.18007231       1.71320896      -1.12257686
19
Frame=2 idx=011365 GeodesicLength=0.2078027623002935 rxn_smarts="[C:1]([C:2]([C:3]([C:4]([C:5]([H:16])([H:17])[H:18])([H:14])[H:15])([C:6](=[O:7])[H:19])[H:13])([H:11])[H:12])([H:8])([H:9])[H:10]>>[C:1]([C:2]([C@@:3]1([H:13])[C:6]([H:17])([H:19])[O:7]1)([H:11])[H:12])([H:8])([H:9])[H:10].[C:4](=[C:5]([H:16])[H:18])([H:14])[H:15]"
C       -2.45203854      -0.75145213       0.44282850
C       -1.14700532      -0.72920757      -0.34716280
C       -0.04649731       0.07193137       0.29850474
C        1.66785372      -0.60302900      -0.39012895
C        2.58886293       0.38479395      -0.11399074
C        0.12414542       1.52169887      -0.02436240
O       -0.90412189       1.93547370       0.64959225
H       -3.18727114      -1.39205690      -0.04806096
H       -2.29393935      -1.13332446       1.45389510
H       -2.85504259       0.25720250       0.52397839
H       -0.78925604      -1.75748682      -0.46400466
H       -1.31984700      -0.33884105      -1.35432451
H        0.09921180      -0.14195312       1.35627956
H        1.41684519      -0.78336161      -1.43047037
H        1.65166174      -1.48187202       0.24742680
H        3.12081282       0.40803256       0.82965506
H        1.23221671       1.76153922       0.37836292
H        2.94021478       1.05530199      -0.88857421
H        0.15319406       1.71661053      -1.11944371
19
Frame=3 idx=011365 GeodesicLength=0.3115264936908464 rxn_smarts="[C:1]([C:2]([C:3]([C:4]([C:5]([H:16])([H:17])[H:18])([H:14])[H:15])([C:6](=[O:7])[H:19])[H:13])([H:11])[H:12])([H:8])([H:9])[H:10]>>[C:1]([C:2]([C@@:3]1([H:13])[C:6]([H:17])([H:19])[O:7]1)([H:11])[H:12])([H:8])([H:9])[H:10].[C:4](=[C:5]([H:16])[H:18])([H:14])[H:15]"
C       -2.46342081      -0.75236369       0.43535425
C       -1.15208618      -0.72857471      -0.34364164
C       -0.05823912       0.07788478       0.30804697
C        1.67546052      -0.59872126      -0.38593513
C        2.59746296       0.39470100      -0.11697923
C        0.11653358       1.52385709      -0.02151375
O       -0.90035982       1.92602846       0.67541634
H       -3.19209813      -1.39912719      -0.05713427
H       -2.31240675      -1.12635674       1.45041900
H       -2.87337343       0.25449861       0.50549265
H       -0.79073481      -1.75626950      -0.45434803
H       -1.31883239      -0.34226890      -1.35345452
H        0.08598824      -0.14091213       1.36523774
H        1.42982810      -0.78710684      -1.42645770
H        1.66394759      -1.47510198       0.25519684
H        3.15744845       0.40145059       0.81062128
H        1.25754550       1.75676786       0.37255790
H        2.95067368       1.05148574      -0.90303088
H        0.12666282       1.72012883      -1.11584783
19
Frame=4 idx=011365 GeodesicLength=0.4151993602293031 rxn_smarts="[C:1]([C:2]([C:3]([C:4]([C:5]([H:16])([H:17])[H:18])([H:14])[H:15])([C:6](=[O:7])[H:19])[H:13])([H:11])[H:12])([H:8])([H:9])[H:10]>>[C:1]([C:2]([C@@:3]1([H:13])[C:6]([H:17])([H:19])[O:7]1)([H:11])[H:12])([H:8])([H:9])[H:10].[C:4](=[C:5]([H:16])[H:18])([H:14])[H:15]"
C       -2.47478874      -0.75330944       0.42787685
C       -1.15717240      -0.72796549      -0.33995441
C       -0.07014664       0.08392546       0.31776109
C        1.68316818      -0.59429300      -0.38178488
C        2.60631136       0.40454937      -0.11991725
C        0.10847801       1.52604333      -0.01862432
O       -0.89700171       1.91682031       0.70016912
H       -3.19688854      -1.40612084      -0.06621678
H       -2.33103522      -1.11946494       1.44682472
H       -2.89141837       0.25170615       0.48697504
H       -0.79221089      -1.75503641      -0.44438421
H       -1.31769767      -0.34581734      -1.35241620
H        0.07258674      -0.13975008       1.37435061
H        1.44302688      -0.79069648      -1.42243437
H        1.67632392      -1.46822107       0.26285679
H        3.19412377       0.39440803       0.79036307
H        1.28289268       1.75188476       0.36769369
H        2.96097006       1.04760361      -0.91726097
H        0.10047858       1.72373405      -1.11187760
19
Frame=5 idx=011365 GeodesicLength=0.5187838730112481 rxn_smarts="[C:1]([C:2]([C:3]([C:4]([C:5]([H:16])([H:17])[H:18])([H:14])[H:15])([C:6](=[O:7])[H:19])[H:13])([H:11])[H:12])([H:8])([H:9])[H:10]>>[C:1]([C:2]([C@@:3]1([H:13])[C:6]([H:17])([H:19])[O:7]1)([H:11])[H:12])([H:8])([H:9])[H:10].[C:4](=[C:5]([H:16])[H:18])([H:14])[H:15]"
C       -2.48613615      -0.75430279       0.42040334
C       -1.16226806      -0.72736911      -0.33610353
C       -0.08222678       0.09006966       0.32763265
C        1.69097633      -0.58974565      -0.37768362
C        2.61543169       0.41432138      -0.12279683
C        0.09999260       1.52826322      -0.01573892
O       -0.89404686       1.90789065       0.72386390
H       -3.20162679      -1.41307068      -0.07529208
H       -2.34980313      -1.11265542       1.44311782
H       -2.90919945       0.24880401       0.46843045
H       -0.79368422      -1.75377285      -0.43412231
H       -1.31645817      -0.34947813      -1.35120675
H        0.05899237      -0.13842720       1.38361016
H        1.45645101      -0.79413309      -1.41840533
H        1.68877675      -1.46123214       0.27039901
H        3.23077907       0.38688677       0.76886368
H        1.30833426       1.74686969       0.36389225
H        2.97108258       1.04368674      -0.93124657
H        0.07463295       1.72739493      -1.10761730
19
Frame=6 idx=011365 GeodesicLength=0.6223385348177922 rxn_smarts="[C:1]([C:2]([C:3]([C:4]([C:5]([H:16])([H:17])[H:18])([H:14])[H:15])([C:6](=[O:7])[H:19])[H:13])([H:11])[H:12])([H:8])([H:9])[H:10]>>[C:1]([C:2]([C@@:3]1([H:13])[C:6]([H:17])([H:19])[O:7]1)([H:11])[H:12])([H:8])([H:9])[H:10].[C:4](=[C:5]([H:16])[H:18])([H:14])[H:15]"
C       -2.49745906      -0.75535976       0.41293852
C       -1.16737775      -0.72677669      -0.33209001
C       -0.09448788       0.09633524       0.33764687
C        1.69888081      -0.58508149      -0.37363776
C        2.62485137       0.42398748      -0.12562016
C        0.09108440       1.53052461      -0.01290026
O       -0.89150186       1.89928874       0.74651263
H       -3.20629361      -1.42002114      -0.08434209
H       -2.36869358      -1.10592730       1.43930587
H       -2.92674584       0.24576494       0.44984957
H       -0.79515527      -1.75246484      -0.42356733
H       -1.31512915      -0.35324668      -1.34982429
H        0.04518813      -0.13689784       1.39300956
H        1.47010382      -0.79742276      -1.41437747
H        1.70128783      -1.45414084       0.27781662
H        3.26735658       0.37888021       0.74609546
H        1.33398923       1.74169656       0.36130812
H        2.98097871       1.03977768      -0.94497330
H        0.04912315       1.73108387      -1.10315054
19
Frame=7 idx=011365 GeodesicLength=0.7258337392229317 rxn_smarts="[C:1]([C:2]([C:3]([C:4]([C:5]([H:16])([H:17])[H:18])([H:14])[H:15])([C:6](=[O:7])[H:19])[H:13])([H:11])[H:12])([H:8])([H:9])[H:10]>>[C:1]([C:2]([C@@:3]1([H:13])[C:6]([H:17])([H:19])[O:7]1)([H:11])[H:12])([H:8])([H:9])[H:10].[C:4](=[C:5]([H:16])[H:18])([H:14])[H:15]"
C       -2.50875186      -0.75648990       0.40548983
C       -1.17250491      -0.72618077      -0.32791463
C       -0.10693544       0.10273723       0.34778593
C        1.70688155      -0.58030299      -0.36965859
C        2.63460154       0.43352090      -0.12838641
C        0.08176519       1.53283057      -0.01015507
O       -0.88936132       1.89105538       0.76812120
H       -3.21087456      -1.42700192      -0.09334554
H       -2.38768871      -1.09927692       1.43539767
H       -2.94407572       0.24257095       0.43122990
H       -0.79662405      -1.75110126      -0.41272013
H       -1.31372360      -0.35712416      -1.34826716
H        0.03116172      -0.13512187       1.40253773
H        1.48399168      -0.80056408      -1.41036276
H        1.71384478      -1.44695562       0.28509124
H        3.30378539       0.37038352       0.72204910
H        1.35994923       1.73632714       0.36009018
H        2.99062564       1.03592705      -0.95842200
H        0.02393343       1.73476674      -1.09856049
19
Frame=8 idx=011365 GeodesicLength=0.829311430863732 rxn_smarts="[C:1]([C:2]([C:3]([C:4]([C:5]([H:16])([H:17])[H:18])([H:14])[H:15])([C:6](=[O:7])[H:19])[H:13])([H:11])[H:12])([H:8])([H:9])[H:10]>>[C:1]([C:2]([C@@:3]1([H:13])[C:6]([H:17])([H:19])[O:7]1)([H:11])[H:12])([H:8])([H:9])[H:10].[C:4](=[C:5]([H:16])[H:18])([H:14])[H:15]"
C       -2.52001117      -0.75770235       0.39806397
C       -1.17765388      -0.72557669      -0.32357659
C       -0.11957717       0.10929261       0.35802963
C        1.71497734      -0.57541137      -0.36576298
C        2.64470930       0.44289696      -0.13109818
C        0.07204074       1.53518386      -0.00755636
O       -0.88761654       1.88322773       0.78870109
H       -3.21535512      -1.43404673      -0.10227802
H       -2.40677623      -1.09269236       1.43140346
H       -2.96120927       0.23920300       0.41255982
H       -0.79809062      -1.74967233      -0.40157278
H       -1.31225319      -0.36112106      -1.34653414
H        0.01690043      -0.13305561       1.41218201
H        1.49811776      -0.80355564      -1.40637860
H        1.72643391      -1.43968533       0.29220183
H        3.33999682       0.36139327       0.69671689
H        1.38633697       1.73070957       0.36040870
H        2.99998660       1.03220016      -0.97157215
H       -0.00095669       1.73841232      -1.09393760
19
Frame=9 idx=011365 GeodesicLength=0.9327718947707593 rxn_smarts="[C:1]([C:2]([C:3]([C:4]([C:5]([H:16])([H:17])[H:18])([H:14])[H:15])([C:6](=[O:7])[H:19])[H:13])([H:11])[H:12])([H:8])([H:9])[H:10]>>[C:1]([C:2]([C@@:3]1([H:13])[C:6]([H:17])([H:19])[O:7]1)([H:11])[H:12])([H:8])([H:9])[H:10].[C:4](=[C:5]([H:16])[H:18])([H:14])[H:15]"
C       -2.53123457      -0.75899263       0.39068002
C       -1.18283224      -0.72497381      -0.31907208
C       -0.13242059       0.11601875       0.36834433
C        1.72316599      -0.57039465      -0.36200197
C        2.65521589       0.45207857      -0.13383218
C        0.06190013       1.53758560      -0.00520257
O       -0.88623383       1.87582418       0.80824535
H       -3.21973332      -1.44117252      -0.11108936
H       -2.42594113      -1.08613565       1.42734939
H       -2.97815371       0.23566141       0.39383434
H       -0.79955765      -1.74818674      -0.39009549
H       -1.31073899      -0.36528096      -1.34463454
H        0.00240611      -0.13065510       1.42191807
H        1.51247501      -0.80637727      -1.40247571
H        1.73905042      -1.43232748       0.29908231
H        3.37592986       0.35192743       0.67022793
H        1.41323000       1.72471496       0.36250186
H        3.00904347       1.02869761      -0.98438944
H       -0.02557085       1.74198830      -1.08939026
19
Frame=10 idx=011365 GeodesicLength=1.0362253689764338 rxn_smarts="[C:1]([C:2]([C:3]([C:4]([C:5]([H:16])([H:17])[H:18])([H:14])[H:15])([C:6](=[O:7])[H:19])[H:13])([H:11])[H:12])([H:8])([H:9])[H:10]>>[C:1]([C:2]([C@@:3]1([H:13])[C:6]([H:17])([H:19])[O:7]1)([H:11])[H:12])([H:8])([H:9])[H:10].[C:4](=[C:5]([H:16])[H:18])([H:14])[H:15]"
C       -2.54241872      -0.76038120       0.38333561
C       -1.18804064      -0.72435936      -0.31440118
C       -0.14547338       0.12293306       0.37872034
C        1.73144597      -0.56526271      -0.35836393
C        2.66613435       0.46105282      -0.13652072
C        0.05136060       1.54004278      -0.00310149
O       -0.88523598       1.86891296       0.82675805
H       -3.22398384      -1.44842798      -0.11977110
H       -2.44517592      -1.07960938       1.42323564
H       -2.99493815       0.23190859       0.37502763
H       -0.80102082      -1.74662424      -0.37829202
H       -1.30918357      -0.36959283      -1.34256021
H       -0.01234741      -0.12787101       1.43174542
H        1.52707384      -0.80902903      -1.39864577
H        1.75167283      -1.42490323       0.30573851
H        3.41153549       0.34194862       0.64244724
H        1.44078502       1.71832533       0.36649467
H        3.01774449       1.02547195      -0.99686592
H       -0.04993417       1.74546488      -1.08498078
19
Frame=11 idx=011365 GeodesicLength=1.1396246589157863 rxn_smarts="[C:1]([C:2]([C:3]([C:4]([C:5]([H:16])([H:17])[H:18])([H:14])[H:15])([C:6](=[O:7])[H:19])[H:13])([H:11])[H:12])([H:8])([H:9])[H:10]>>[C:1]([C:2]([C@@:3]1([H:13])[C:6]([H:17])([H:19])[O:7]1)([H:11])[H:12])([H:8])([H:9])[H:10].[C:4](=[C:5]([H:16])[H:18])([H:14])[H:15]"
C       -2.55356008      -0.76187495       0.37604352
C       -1.19328451      -0.72373281      -0.30956277
C       -0.15874227       0.13005253       0.38913165
C        1.73981723      -0.56001564      -0.35487560
C        2.67749446       0.46979032      -0.13916920
C        0.04042801       1.54255892      -0.00131115
O       -0.88460914       1.86253136       0.84423330
H       -3.22809632      -1.45584061      -0.12828747
H       -2.46446618      -1.07309831       1.41907770
H       -3.01157551       0.22792692       0.35613380
H       -0.80248117      -1.74497993      -0.36615012
H       -1.30760279      -0.37407390      -1.34031139
H       -0.02736846      -0.12465760       1.44164797
H        1.54191574      -0.81149461      -1.39491741
H        1.76428917      -1.41742747       0.31212717
H        3.44674341       0.33145629       0.61340645
H        1.46910423       1.71146771       0.37255954
H        3.02606363       1.02260053      -1.00898361
H       -0.07406947       1.74881125      -1.08079237
19
Frame=12 idx=011365 GeodesicLength=1.2430183968609212 rxn_smarts="[C:1]([C:2]([C:3]([C:4]([C:5]([H:16])([H:17])[H:18])([H:14])[H:15])([C:6](=[O:7])[H:19])[H:13])([H:11])[H:12])([H:8])([H:9])[H:10]>>[C:1]([C:2]([C@@:3]1([H:13])[C:6]([H:17])([H:19])[O:7]1)([H:11])[H:12])([H:8])([H:9])[H:10].[C:4](=[C:5]([H:16])[H:18])([H:14])[H:15]"
C       -2.56465791      -0.76348170       0.36881566
C       -1.19857019      -0.72309597      -0.30455334
C       -0.17223779       0.13739905       0.39954981
C        1.74827692      -0.55464955      -0.35156507
C        2.68931859       0.47826719      -0.14177856
C        0.02909840       1.54513779       0.00010087
O       -0.88434394       1.85672349       0.86065820
H       -3.23205971      -1.46344434      -0.13659920
H       -2.48380383      -1.06657837       1.41489245
H       -3.02808209       0.22369532       0.33713636
H       -0.80393832      -1.74324956      -0.35364606
H       -1.30601074      -0.37875401      -1.33788897
H       -0.04267004      -0.12095868       1.45160842
H        1.55699870      -0.81375163      -1.39132371
H        1.77688376      -1.40991507       0.31820291
H        3.48151071       0.32043935       0.58311205
H        1.49833290       1.70403800       0.38091626
H        3.03396654       1.02018393      -1.02071551
H       -0.09801197       1.75199477      -1.07692257
19
Frame=13 idx=011365 GeodesicLength=1.3463624474595068 rxn_smarts="[C:1]([C:2]([C:3]([C:4]([C:5]([H:16])([H:17])[H:18])([H:14])[H:15])([C:6](=[O:7])[H:19])[H:13])([H:11])[H:12])([H:8])([H:9])[H:10]>>[C:1]([C:2]([C@@:3]1([H:13])[C:6]([H:17])([H:19])[O:7]1)([H:11])[H:12])([H:8])([H:9])[H:10].[C:4](=[C:5]([H:16])[H:18])([H:14])[H:15]"
C       -2.57570993      -0.76520859       0.36166798
C       -1.20390406      -0.72245156      -0.29936996
C       -0.18596916       0.14499359       0.40994451
C        1.75682435      -0.54916039      -0.34846338
C        2.70163392       0.48645837      -0.14434239
C        0.01737075       1.54778387       0.00106760
O       -0.88442928       1.85153247       0.87601042
H       -3.23586598      -1.47126785      -0.14466201
H       -2.50317687      -1.06002863       1.41069946
H       -3.04446998       0.21919423       0.31802832
H       -0.80539233      -1.74143070      -0.34075837
H       -1.30442440      -0.38366064      -1.33529467
H       -0.05826199      -0.11671986       1.46160870
H        1.57232453      -0.81576791      -1.38790174
H        1.78944227      -1.40238386       0.32390984
H        3.51578669       0.30888665       0.55158537
H        1.52857958       1.69593109       0.39176568
H        3.04143214       1.01831615      -1.03203534
H       -0.12179026       1.75498357      -1.07346001
19
Frame=14 idx=011365 GeodesicLength=1.4496786424009531 rxn_smarts="[C:1]([C:2]([C:3]([C:4]([C:5]([H:16])([H:17])[H:18])([H:14])[H:15])([C:6](=[O:7])[H:19])[H:13])([H:11])[H:12])([H:8])([H:9])[H:10]>>[C:1]([C:2]([C@@:3]1([H:13])[C:6]([H:17])([H:19])[O:7]1)([H:11])[H:12])([H:8])([H:9])[H:10].[C:4](=[C:5]([H:16])[H:18])([H:14])[H:15]"
C       -2.58671445      -0.76706387       0.35461842
C       -1.20929304      -0.72180072      -0.29400672
C       -0.19994723       0.15286288       0.42028051
C        1.76545671      -0.54354378      -0.34560733
C        2.71446609       0.49433253      -0.14685420
C        0.00523826       1.55050137       0.00150975
O       -0.88485571       1.84700632       0.89025844
H       -3.23950378      -1.47934658      -0.15242444
H       -2.52257532      -1.05342095       1.40652086
H       -3.06075337       0.21439793       0.29879662
H       -0.80684186      -1.73951514      -0.32745537
H       -1.30285928      -0.38882975      -1.33252700
H       -0.07415715      -0.11187432       1.47162589
H        1.58788977      -0.81750413      -1.38469871
H        1.80194599      -1.39486038       0.32918252
H        3.54953112       0.29678527       0.51883274
H        1.55999253       1.68701946       0.40534761
H        3.04842801       1.01711410      -1.04288793
H       -0.14544729       1.75773978      -1.07051166
19
Frame=15 idx=011365 GeodesicLength=1.5529298923263333 rxn_smarts="[C:1]([C:2]([C:3]([C:4]([C:5]([H:16])([H:17])[H:18])([H:14])[H:15])([C:6](=[O:7])[H:19])[H:13])([H:11])[H:12])([H:8])([H:9])[H:10]>>[C:1]([C:2]([C@@:3]1([H:13])[C:6]([H:17])([H:19])[O:7]1)([H:11])[H:12])([H:8])([H:9])[H:10].[C:4](=[C:5]([H:16])[H:18])([H:14])[H:15]"
C       -2.59767032      -0.76905514       0.34768878
C       -1.21474514      -0.72114699      -0.28845803
C       -0.21418358       0.16103509       0.43052009
C        1.77417215      -0.53779254      -0.34303454
C        2.72784250       0.50186048      -0.14929666
C       -0.00730568       1.55329544       0.00134201
O       -0.88561026       1.84319282       0.90336153
H       -3.24296566      -1.48771211      -0.15983003
H       -2.54198790      -1.04672941       1.40238074
H       -3.07694352       0.20928159       0.27943641
H       -0.80828635      -1.73749821      -0.31370533
H       -1.30133519      -0.39430045      -1.32958658
H       -0.09036614      -0.10635398       1.48163656
H        1.60369465      -0.81890904      -1.38176505
H        1.81437571      -1.38737224       0.33394641
H        3.58270501       0.28412237       0.48486228
H        1.59269583       1.67716284       0.42190432
H        3.05493603       1.01669301      -1.05321946
H       -0.16902214       1.76022647      -1.06818343
19
Frame=16 idx=011365 GeodesicLength=1.6560986547247625 rxn_smarts="[C:1]([C:2]([C:3]([C:4]([C:5]([H:16])([H:17])[H:18])([H:14])[H:15])([C:6](=[O:7])[H:19])[H:13])([H:11])[H:12])([H:8])([H:9])[H:10]>>[C:1]([C:2]([C@@:3]1([H:13])[C:6]([H:17])([H:19])[O:7]1)([H:11])[H:12])([H:8])([H:9])[H:10].[C:4](=[C:5]([H:16])[H:18])([H:14])[H:15]"
C       -2.60857753      -0.77119132       0.34090166
C       -1.22026833      -0.72049554      -0.28271567
C       -0.22869192       0.16954288       0.44062302
C        1.78296766      -0.53189661      -0.34078366
C        2.74178942       0.50901167      -0.15164219
C       -0.02027409       1.55617324       0.00047157
O       -0.88668572       1.84014900       0.91526853
H       -3.24624245      -1.49640248      -0.16681521
H       -2.56140649      -1.03991976       1.39830610
H       -3.09305431       0.20381532       0.25993426
H       -0.80972373      -1.73537472      -0.29946648
H       -1.29986964      -0.40012033      -1.32647312
H       -0.10690295      -0.10007985       1.49161684
H        1.61973770      -0.81991945      -1.37915718
H        1.82670879      -1.37995268       0.33811870
H        3.61528760       0.27087502       0.44965050
H        1.62683356       1.66619199       0.44170475
H        3.06093173       1.01718913      -1.06295211
H       -0.19255929       1.76240449      -1.06659030
