15
Frame=0 idx=010474 GeodesicLength=0.0 rxn_smarts="[C:1]([C@@:2]([O:3][H:11])([C:4]([O:5][H:14])([H:12])[H:13])[C:6]#[C:7][H:15])([H:8])([H:9])[H:10]>>[C:1]([C@@:2]([O:3][H:11])([C:4]([O:5][H:14])([H:12])[H:13])[C:7](=[C:6])[H:15])([H:8])([H:9])[H:10]"
C       -0.51688567      -1.52309912       0.66010148
C       -0.06863959      -0.39770986      -0.24757301
O       -0.62674228      -0.51679587      -1.48793151
C       -0.49064678       0.96338634       0.34735112
O       -0.39486668       2.01362219      -0.58804962
C        1.68458602      -1.04682720      -0.56579081
C        1.83175975       0.13103783      -0.18634969
H       -1.58155413      -1.39336418       0.87648913
H        0.04432313      -1.51350999       1.59298964
H       -0.36664689      -2.47881103       0.16725343
H       -0.64574434       0.36135834      -1.89013046
H        0.03248991       1.17863644       1.28218885
H       -1.55647915       0.86990606       0.56639105
H        0.52373876       2.26317167      -0.71190679
H        2.13130793       1.08899838       0.18496714
15
Frame=1 idx=010474 GeodesicLength=0.07778890997105269 rxn_smarts="[C:1]([C@@:2]([O:3][H:11])([C:4]([O:5][H:14])([H:12])[H:13])[C:6]#[C:7][H:15])([H:8])([H:9])[H:10]>>[C:1]([C@@:2]([O:3][H:11])([C:4]([O:5][H:14])([H:12])[H:13])[C:7](=[C:6])[H:15])([H:8])([H:9])[H:10]"
C       -0.52717059      -1.52497135       0.65507922
C       -0.05546975      -0.39801185      -0.24162492
O       -0.61126011      -0.51893722      -1.48641223
C       -0.48961839       0.95916101       0.35297520
O       -0.41056483       2.01617049      -0.57652604
C        1.70492684      -1.06230342      -0.49438824
C        1.84474759       0.14600457      -0.23523482
H       -1.59599321      -1.39794297       0.85130915
H        0.00910892      -1.51918949       1.60264001
H       -0.37903839      -2.48313799       0.16593206
H       -0.64823523       0.35923623      -1.88652831
H        0.03400613       1.17384060       1.28778854
H       -1.55481486       0.86300118       0.57508726
H        0.50316678       2.28722215      -0.68985887
H        2.17620911       1.09985805       0.11976198
15
Frame=2 idx=010474 GeodesicLength=0.15330395560379195 rxn_smarts="[C:1]([C@@:2]([O:3][H:11])([C:4]([O:5][H:14])([H:12])[H:13])[C:6]#[C:7][H:15])([H:8])([H:9])[H:10]>>[C:1]([C@@:2]([O:3][H:11])([C:4]([O:5][H:14])([H:12])[H:13])[C:7](=[C:6])[H:15])([H:8])([H:9])[H:10]"
C       -0.53747789      -1.52713676       0.64975310
C       -0.04331129      -0.39810698      -0.23513071
O       -0.59616147      -0.52057247      -1.48465061
C       -0.48909039       0.95512799       0.35926115
O       -0.42417758       2.01855800      -0.56418850
C        1.72479269      -1.06994652      -0.41826917
C        1.85627482       0.15709158      -0.28320099
H       -1.61031084      -1.40364022       0.82476935
H       -0.02742075      -1.52430257       1.61180562
H       -0.38794797      -2.48708118       0.16407694
H       -0.65103259       0.35738068      -1.88241998
H        0.03434118       1.16885149       1.29452353
H       -1.55388494       0.85662411       0.58333296
H        0.48484451       2.30880641      -0.66643417
H        2.22056252       1.10834646       0.04677149
15
Frame=3 idx=010474 GeodesicLength=0.2269186676793011 rxn_smarts="[C:1]([C@@:2]([O:3][H:11])([C:4]([O:5][H:14])([H:12])[H:13])[C:6]#[C:7][H:15])([H:8])([H:9])[H:10]>>[C:1]([C@@:2]([O:3][H:11])([C:4]([O:5][H:14])([H:12])[H:13])[C:7](=[C:6])[H:15])([H:8])([H:9])[H:10]"
C       -0.54759444      -1.52957296       0.64416327
C       -0.03227945      -0.39787744      -0.22812063
O       -0.58170035      -0.52151348      -1.48261923
C       -0.48929932       0.95133861       0.36624405
O       -0.43548838       2.02096608      -0.55094234
C        1.74368360      -1.06943665      -0.33785642
C        1.86650599       0.16386867      -0.32930760
H       -1.62421226      -1.41056925       0.79707437
H       -0.06481512      -1.52890316       1.62031821
H       -0.39315482      -2.49063424       0.16178360
H       -0.65358345       0.35597879      -1.87794440
H        0.03286805       1.16366042       1.30265531
H       -1.55401032       0.85077990       0.59078054
H        0.46921109       2.32787384      -0.64139632
H        2.26386921       1.11404088      -0.03483242
15
Frame=4 idx=010474 GeodesicLength=0.2988111594529787 rxn_smarts="[C:1]([C@@:2]([O:3][H:11])([C:4]([O:5][H:14])([H:12])[H:13])[C:6]#[C:7][H:15])([H:8])([H:9])[H:10]>>[C:1]([C@@:2]([O:3][H:11])([C:4]([O:5][H:14])([H:12])[H:13])[C:7](=[C:6])[H:15])([H:8])([H:9])[H:10]"
C       -0.55716696      -1.53220482       0.63838210
C       -0.02243348      -0.39723945      -0.22075308
O       -0.56815868      -0.52169324      -1.48037028
C       -0.49046752       0.94783984       0.37378314
O       -0.44416086       2.02354929      -0.53687837
C        1.76132135      -1.06041239      -0.25389434
C        1.87545979       0.16616747      -0.37309023
H       -1.63723661      -1.41869413       0.76869932
H       -0.10229326      -1.53295626       1.62798412
H       -0.39452790      -2.49372591       0.15917037
H       -0.65585528       0.35514583      -1.87323563
H        0.02892298       1.15825843       1.31229153
H       -1.55549466       0.84556488       0.59689138
H        0.45678477       2.34450047      -0.61443388
H        2.30530631       1.11589999      -0.12454614
15
Frame=5 idx=010474 GeodesicLength=0.3693267978724034 rxn_smarts="[C:1]([C@@:2]([O:3][H:11])([C:4]([O:5][H:14])([H:12])[H:13])[C:6]#[C:7][H:15])([H:8])([H:9])[H:10]>>[C:1]([C@@:2]([O:3][H:11])([C:4]([O:5][H:14])([H:12])[H:13])[C:7](=[C:6])[H:15])([H:8])([H:9])[H:10]"
C       -0.56576988      -1.53492887       0.63253611
C       -0.01394226      -0.39595873      -0.21319493
O       -0.55607296      -0.52096790      -1.47791167
C       -0.49297060       0.94478395       0.38174523
O       -0.45007547       2.02657222      -0.52208054
C        1.77697300      -1.04258094      -0.16768322
C        1.88338494       0.16391404      -0.41417440
H       -1.64890694      -1.42817905       0.74018906
H       -0.13888972      -1.53639401       1.63467987
H       -0.39167413      -2.49625974       0.15650576
H       -0.65750336       0.35508906      -1.86856853
H        0.02170349       1.15274663       1.32352140
H       -1.55880251       0.84102868       0.60110401
H        0.44789462       2.35869147      -0.58545755
H        2.34465179       1.11244319      -0.22121060
15
Frame=6 idx=010474 GeodesicLength=0.43851795038220576 rxn_smarts="[C:1]([C@@:2]([O:3][H:11])([C:4]([O:5][H:14])([H:12])[H:13])[C:6]#[C:7][H:15])([H:8])([H:9])[H:10]>>[C:1]([C@@:2]([O:3][H:11])([C:4]([O:5][H:14])([H:12])[H:13])[C:7](=[C:6])[H:15])([H:8])([H:9])[H:10]"
C       -0.57304431      -1.53768874       0.62676392
C       -0.00679373      -0.39399244      -0.20560077
O       -0.54572803      -0.51931924      -1.47528654
C       -0.49700798       0.94221365       0.38992045
O       -0.45292644       2.03019516      -0.50663639
C        1.79065023      -1.01574486      -0.08042918
C        1.89016621       0.15716503      -0.45248330
H       -1.65880541      -1.43889422       0.71226051
H       -0.17355289      -1.53926098       1.64029798
H       -0.38473109      -2.49812821       0.15386437
H       -0.65827122       0.35593858      -1.86414943
H        0.01058177       1.14710326       1.33634096
H       -1.56419770       0.83734850       0.60278618
H        0.44294167       2.37057072      -0.55417924
H        2.38071890       1.10249378      -0.32346951
15
Frame=7 idx=010474 GeodesicLength=0.5068223409946222 rxn_smarts="[C:1]([C@@:2]([O:3][H:11])([C:4]([O:5][H:14])([H:12])[H:13])[C:6]#[C:7][H:15])([H:8])([H:9])[H:10]>>[C:1]([C@@:2]([O:3][H:11])([C:4]([O:5][H:14])([H:12])[H:13])[C:7](=[C:6])[H:15])([H:8])([H:9])[H:10]"
C       -0.57839898      -1.54018867       0.62117924
C       -0.00123636      -0.39089034      -0.19830104
O       -0.53774448      -0.51660332      -1.47261962
C       -0.50303642       0.94033417       0.39807904
O       -0.45305240       2.03455735      -0.49076472
C        1.80116739      -0.97999135       0.00533408
C        1.89609660       0.14625490      -0.48778816
H       -1.66627645      -1.45095752       0.68571009
H       -0.20491467      -1.54132237       1.64474563
H       -0.37327518      -2.49898176       0.15149040
H       -0.65854112       0.35786504      -1.86024755
H       -0.00521373       1.14153242       1.35058080
H       -1.57205835       0.83444110       0.60155849
H        0.44167883       2.37991152      -0.52116360
H        2.41480533       1.08403882      -0.42779309
15
Frame=8 idx=010474 GeodesicLength=0.5742806211598599 rxn_smarts="[C:1]([C@@:2]([O:3][H:11])([C:4]([O:5][H:14])([H:12])[H:13])[C:6]#[C:7][H:15])([H:8])([H:9])[H:10]>>[C:1]([C@@:2]([O:3][H:11])([C:4]([O:5][H:14])([H:12])[H:13])[C:7](=[C:6])[H:15])([H:8])([H:9])[H:10]"
C       -0.58179849      -1.54244283       0.61590183
C        0.00298260      -0.38684648      -0.19125297
O       -0.53203096      -0.51289410      -1.46986288
C       -0.51093841       0.93905575       0.40610372
O       -0.45009150       2.03965065      -0.47431039
C        1.80934708      -0.93547214       0.08886737
C        1.90080994       0.13107605      -0.52055632
H       -1.67130347      -1.46403211       0.66085824
H       -0.23245473      -1.54272603       1.64812136
H       -0.35783790      -2.49871985       0.14930220
H       -0.65741074       0.36089919      -1.85699915
H       -0.02578552       1.13587941       1.36614413
H       -1.58224550       0.83258705       0.59700620
H        0.44436498       2.38690666      -0.48587014
H        2.44439262       1.05707877      -0.53345321
15
Frame=9 idx=010474 GeodesicLength=0.6415990334266068 rxn_smarts="[C:1]([C@@:2]([O:3][H:11])([C:4]([O:5][H:14])([H:12])[H:13])[C:6]#[C:7][H:15])([H:8])([H:9])[H:10]>>[C:1]([C@@:2]([O:3][H:11])([C:4]([O:5][H:14])([H:12])[H:13])[C:7](=[C:6])[H:15])([H:8])([H:9])[H:10]"
C       -0.58275673      -1.54418943       0.61095501
C        0.00558165      -0.38143613      -0.18492490
O       -0.52916396      -0.50821689      -1.46725813
C       -0.52108395       0.93862263       0.41369491
O       -0.44489680       2.04555883      -0.45759935
C        1.81411040      -0.88302978       0.16714941
C        1.90465705       0.11230225      -0.55066968
H       -1.67339057      -1.47811514       0.63872197
H       -0.25467349      -1.54330487       1.65026865
H       -0.33847965      -2.49712123       0.14730006
H       -0.65625750       0.36502774      -1.85451259
H       -0.05140957       1.13044505       1.38249689
H       -1.59492928       0.83169530       0.58921593
H        0.45013662       2.39145566      -0.44938508
H        2.47255578       1.02030602      -0.63545310
15
Frame=10 idx=010474 GeodesicLength=0.7094178266235349 rxn_smarts="[C:1]([C@@:2]([O:3][H:11])([C:4]([O:5][H:14])([H:12])[H:13])[C:6]#[C:7][H:15])([H:8])([H:9])[H:10]>>[C:1]([C@@:2]([O:3][H:11])([C:4]([O:5][H:14])([H:12])[H:13])[C:7](=[C:6])[H:15])([H:8])([H:9])[H:10]"
C       -0.58148987      -1.54558462       0.60646135
C        0.00676997      -0.37478722      -0.17914773
O       -0.52885983      -0.50250918      -1.46478874
C       -0.53340405       0.93897882       0.42086493
O       -0.43749439       2.05235719      -0.44042450
C        1.81626535      -0.82311028       0.23995264
C        1.90767272       0.08984767      -0.57833820
H       -1.67293458      -1.49317019       0.61920972
H       -0.27165570      -1.54337941       1.65153303
H       -0.31565819      -2.49424709       0.14546014
H       -0.65428099       0.37043130      -1.85290532
H       -0.08197258       1.12505962       1.39952826
H       -1.61004187       0.83185998       0.57812582
H        0.45885721       2.39394583      -0.41126864
H        2.49822680       0.97430757      -0.73426278
15
Frame=11 idx=010474 GeodesicLength=0.7779124363772879 rxn_smarts="[C:1]([C@@:2]([O:3][H:11])([C:4]([O:5][H:14])([H:12])[H:13])[C:6]#[C:7][H:15])([H:8])([H:9])[H:10]>>[C:1]([C@@:2]([O:3][H:11])([C:4]([O:5][H:14])([H:12])[H:13])[C:7](=[C:6])[H:15])([H:8])([H:9])[H:10]"
C       -0.57801235      -1.54643794       0.60232757
C        0.00665098      -0.36688776      -0.17390064
O       -0.53079387      -0.49582333      -1.46244576
C       -0.54775711       0.94008154       0.42763103
O       -0.42836786       2.05979610      -0.42255403
C        1.81588517      -0.75644106       0.30619601
C        1.90967435       0.06382317      -0.60331044
H       -1.66987970      -1.50882430       0.60227878
H       -0.28315843      -1.54277198       1.65186654
H       -0.28983192      -2.48982376       0.14347885
H       -0.65112198       0.37697544      -1.85210915
H       -0.11705563       1.11976154       1.41686765
H       -1.62713643       0.83302883       0.56413850
H        0.46976822       2.39431376      -0.37180055
H        2.52113656       0.91922976      -0.82866435
15
Frame=12 idx=010474 GeodesicLength=0.8475615827630303 rxn_smarts="[C:1]([C@@:2]([O:3][H:11])([C:4]([O:5][H:14])([H:12])[H:13])[C:6]#[C:7][H:15])([H:8])([H:9])[H:10]>>[C:1]([C@@:2]([O:3][H:11])([C:4]([O:5][H:14])([H:12])[H:13])[C:7](=[C:6])[H:15])([H:8])([H:9])[H:10]"
C       -0.57243865      -1.54676097       0.59864619
C        0.00522388      -0.35773812      -0.16930799
O       -0.53498259      -0.48818064      -1.46043754
C       -0.56415060       0.94190984       0.43387232
O       -0.41805383       2.06785730      -0.40410806
C        1.81324631      -0.68410558       0.36463161
C        1.91088282       0.03479627      -0.62550123
H       -1.66448440      -1.52493826       0.58829360
H       -0.28883354      -1.54157421       1.65148129
H       -0.26160442      -2.48390264       0.14131882
H       -0.64713653       0.38464216      -1.85228703
H       -0.15623860       1.11439883       1.43413587
H       -1.64615935       0.83514786       0.54750006
H        0.48217845       2.39294083      -0.33106658
H        2.54255104       0.85550734      -0.91717134
15
Frame=13 idx=010474 GeodesicLength=0.9189128319763495 rxn_smarts="[C:1]([C@@:2]([O:3][H:11])([C:4]([O:5][H:14])([H:12])[H:13])[C:6]#[C:7][H:15])([H:8])([H:9])[H:10]>>[C:1]([C@@:2]([O:3][H:11])([C:4]([O:5][H:14])([H:12])[H:13])[C:7](=[C:6])[H:15])([H:8])([H:9])[H:10]"
C       -0.56464342      -1.54625136       0.59518421
C        0.00237818      -0.34728347      -0.16566132
O       -0.54146113      -0.47983099      -1.45879918
C       -0.58255038       0.94445074       0.43943001
O       -0.40707547       2.07623830      -0.38499960
C        1.80779205      -0.60674052       0.41416429
C        1.91098150       0.00333686      -0.64491934
H       -1.65644487      -1.54107602       0.57761102
H       -0.28802331      -1.53937092       1.64997927
H       -0.23132341      -2.47622508       0.13858682
H       -0.64305850       0.39300995      -1.85316764
H       -0.19916249       1.10896124       1.45073464
H       -1.66669873       0.83820528       0.52850406
H        0.49509840       2.38989195      -0.28873198
H        2.56419157       0.78268403      -0.99791524
15
Frame=14 idx=010474 GeodesicLength=0.9926630218120034 rxn_smarts="[C:1]([C@@:2]([O:3][H:11])([C:4]([O:5][H:14])([H:12])[H:13])[C:6]#[C:7][H:15])([H:8])([H:9])[H:10]>>[C:1]([C@@:2]([O:3][H:11])([C:4]([O:5][H:14])([H:12])[H:13])[C:7](=[C:6])[H:15])([H:8])([H:9])[H:10]"
C       -0.55499533      -1.54507622       0.59200561
C       -0.00165463      -0.33567439      -0.16269768
O       -0.54972402      -0.47058213      -1.45761629
C       -0.60275387       0.94759308       0.44447108
O       -0.39571888       2.08497245      -0.36500907
C        1.80052338      -0.52467600       0.45515753
C        1.91019639      -0.03078694      -0.66141951
H       -1.64633049      -1.55726488       0.56961502
H       -0.28142781      -1.53630179       1.64774154
H       -0.19930333      -2.46687654       0.13522243
H       -0.63805074       0.40229979      -1.85492112
H       -0.24507550       1.10321822       1.46664721
H       -1.68861101       0.84210306       0.50760150
H        0.50820858       2.38547152      -0.24490661
H        2.58471726       0.70158077      -1.07189163
15
Frame=15 idx=010474 GeodesicLength=1.0693917977998408 rxn_smarts="[C:1]([C@@:2]([O:3][H:11])([C:4]([O:5][H:14])([H:12])[H:13])[C:6]#[C:7][H:15])([H:8])([H:9])[H:10]>>[C:1]([C@@:2]([O:3][H:11])([C:4]([O:5][H:14])([H:12])[H:13])[C:7](=[C:6])[H:15])([H:8])([H:9])[H:10]"
C       -0.54358225      -1.54313498       0.58894127
C       -0.00685623      -0.32294717      -0.16048983
O       -0.55958159      -0.46046529      -1.45695413
C       -0.62459543       0.95127841       0.44902933
O       -0.38464291       2.09391978      -0.34402611
C        1.79147720      -0.43848606       0.48703482
C        1.90840373      -0.06706821      -0.67466166
H       -1.63418080      -1.57326698       0.56418210
H       -0.26897494      -1.53215515       1.64455385
H       -0.16593728      -2.45577747       0.13088334
H       -0.63229389       0.41237444      -1.85742231
H       -0.29311456       1.09711889       1.48154473
H       -1.71155614       0.84671020       0.48544558
H        0.52061017       2.37993180      -0.19982115
H        2.60482493       0.61196779      -1.13823983
15
Frame=16 idx=010474 GeodesicLength=1.149413850772385 rxn_smarts="[C:1]([C@@:2]([O:3][H:11])([C:4]([O:5][H:14])([H:12])[H:13])[C:6]#[C:7][H:15])([H:8])([H:9])[H:10]>>[C:1]([C@@:2]([O:3][H:11])([C:4]([O:5][H:14])([H:12])[H:13])[C:7](=[C:6])[H:15])([H:8])([H:9])[H:10]"
C       -0.53058817      -1.54039164       0.58586199
C       -0.01312189      -0.30923899      -0.15905127
O       -0.57077503      -0.44954199      -1.45684382
C       -0.64775055       0.95540761       0.45315458
O       -0.37448434       2.10297578      -0.32205478
C        1.78093210      -0.34906509       0.50922618
C        1.90550972      -0.10499902      -0.68438937
H       -1.62014785      -1.58882097       0.56107470
H       -0.25083045      -1.52674283       1.64023955
H       -0.13176526      -2.44297794       0.12531511
H       -0.62574658       0.42307690      -1.86057906
H       -0.34211269       1.09058578       1.49515975
H       -1.73512076       0.85186316       0.46274558
H        0.53149022       2.37365134      -0.15390051
H        2.62451154       0.51421790      -1.19595862
