11
Frame=0 idx=002178 GeodesicLength=0.0 rxn_smarts="[N:1]([c:2]1[c:3]([H:9])[c:4]([H:10])[c:5]([H:11])[o:6]1)([H:7])[H:8]>>[N+:1]1([H:7])([H:8])[C:2]([O:6][C:5](=[C:4]([H:9])[H:10])[H:11])=[C-:3]1"
N        2.15888459      -0.38004704       0.18007246
C        0.81573167      -0.01899868       0.04723828
C        0.50184893       1.26654510      -0.16092659
C       -1.69032132       0.56917578      -0.02615984
C       -1.33090955      -0.70113880       0.04107606
O       -0.03996151      -1.07130103       0.14855863
H        2.52757077      -0.84605249      -0.63765636
H        2.73949204       0.40193068       0.44095250
H       -0.96883944       1.42664130       0.13337656
H       -2.70979887       0.89983118      -0.16556352
H       -2.00369730      -1.54658601      -0.00096823
11
Frame=1 idx=002178 GeodesicLength=0.0698654507401791 rxn_smarts="[N:1]([c:2]1[c:3]([H:9])[c:4]([H:10])[c:5]([H:11])[o:6]1)([H:7])[H:8]>>[N+:1]1([H:7])([H:8])[C:2]([O:6][C:5](=[C:4]([H:9])[H:10])[H:11])=[C-:3]1"
N        2.15960664      -0.36920239       0.16637223
C        0.81022584      -0.02630200       0.07488385
C        0.49342737       1.25155987      -0.16700788
C       -1.68015532       0.56845242      -0.03647430
C       -1.33436688      -0.70539184       0.05497001
O       -0.04262800      -1.08040019       0.16028880
H        2.51627659      -0.83768698      -0.65470400
H        2.74253837       0.40731748       0.43668854
H       -0.96137142       1.43997738       0.17299327
H       -2.69475456       0.90013422      -0.20680585
H       -2.00879863      -1.54845797      -0.00120468
11
Frame=2 idx=002178 GeodesicLength=0.13980656493388374 rxn_smarts="[N:1]([c:2]1[c:3]([H:9])[c:4]([H:10])[c:5]([H:11])[o:6]1)([H:7])[H:8]>>[N+:1]1([H:7])([H:8])[C:2]([O:6][C:5](=[C:4]([H:9])[H:10])[H:11])=[C-:3]1"
N        2.15920415      -0.35806076       0.15265410
C        0.80496718      -0.03337839       0.10036452
C        0.48502624       1.23674939      -0.17149207
C       -1.67003259       0.56753298      -0.04408385
C       -1.33766570      -0.70962531       0.06666993
O       -0.04514929      -1.08899929       0.17161719
H        2.50512640      -0.82931473      -0.67087371
H        2.74487396       0.41187205       0.43419434
H       -0.95383566       1.45357328       0.20622584
H       -2.67901848       0.90010111      -0.24395526
H       -2.01349622      -1.55045033      -0.00132103
11
Frame=3 idx=002178 GeodesicLength=0.20979201605815517 rxn_smarts="[N:1]([c:2]1[c:3]([H:9])[c:4]([H:10])[c:5]([H:11])[o:6]1)([H:7])[H:8]>>[N+:1]1([H:7])([H:8])[C:2]([O:6][C:5](=[C:4]([H:9])[H:10])[H:11])=[C-:3]1"
N        2.15781130      -0.34651482       0.13931406
C        0.79989372      -0.04044259       0.12234926
C        0.47659764       1.22200937      -0.17616545
C       -1.66006054       0.56647522      -0.04984026
C       -1.34090462      -0.71385520       0.07675730
O       -0.04755046      -1.09733149       0.18152002
H        2.49515291      -0.82125303      -0.68521573
H        2.74615236       0.41594376       0.43392875
H       -0.94583901       1.46753219       0.23483523
H       -2.66321287       0.89995140      -0.27626054
H       -2.01804044      -1.55251481      -0.00122264
11
Frame=4 idx=002178 GeodesicLength=0.2798088259846404 rxn_smarts="[N:1]([c:2]1[c:3]([H:9])[c:4]([H:10])[c:5]([H:11])[o:6]1)([H:7])[H:8]>>[N+:1]1([H:7])([H:8])[C:2]([O:6][C:5](=[C:4]([H:9])[H:10])[H:11])=[C-:3]1"
N        2.15565798      -0.33454019       0.12638033
C        0.79495821      -0.04752858       0.14100714
C        0.46812098       1.20735823      -0.18136688
C       -1.65031593       0.56528629      -0.05431627
C       -1.34412816      -0.71810087       0.08557194
O       -0.04986278      -1.10549887       0.18997931
H        2.48650836      -0.81358604      -0.69774766
H        2.74650526       0.41962731       0.43567210
H       -0.93724064       1.48190741       0.25988697
H       -2.64765985       0.89973375      -0.30417097
H       -2.02254342      -1.55465844      -0.00089601
11
Frame=5 idx=002178 GeodesicLength=0.34980433830709734 rxn_smarts="[N:1]([c:2]1[c:3]([H:9])[c:4]([H:10])[c:5]([H:11])[o:6]1)([H:7])[H:8]>>[N+:1]1([H:7])([H:8])[C:2]([O:6][C:5](=[C:4]([H:9])[H:10])[H:11])=[C-:3]1"
N        2.15288127      -0.32213631       0.11373947
C        0.79011462      -0.05460944       0.15690451
C        0.45956001       1.19284711      -0.18694645
C       -1.64080973       0.56394737      -0.05787809
C       -1.34731764      -0.72236841       0.09343982
O       -0.05211789      -1.11352690       0.19730419
H        2.47897916      -0.80629826      -0.70878663
H        2.74610463       0.42288316       0.43904417
H       -0.92800665       1.49671817       0.28209615
H       -2.63244284       0.89942941      -0.32849560
H       -2.02694494      -1.55688591      -0.00042154
11
Frame=6 idx=002178 GeodesicLength=0.4198042948664068 rxn_smarts="[N:1]([c:2]1[c:3]([H:9])[c:4]([H:10])[c:5]([H:11])[o:6]1)([H:7])[H:8]>>[N+:1]1([H:7])([H:8])[C:2]([O:6][C:5](=[C:4]([H:9])[H:10])[H:11])=[C-:3]1"
N        2.14962321      -0.30931469       0.10130049
C        0.78537550      -0.06163877       0.17057764
C        0.45095128       1.17852997      -0.19274413
C       -1.63156140       0.56246102      -0.06088732
C       -1.35047613      -0.72666672       0.10041967
O       -0.05428501      -1.12138427       0.20381550
H        2.47237164      -0.79941976      -0.71849749
H        2.74516253       0.42567897       0.44366000
H       -0.91813292       1.51200265       0.30194697
H       -2.61776822       0.89899795      -0.34969104
H       -2.03126048      -1.55924635       0.00009972
11
Frame=7 idx=002178 GeodesicLength=0.4898263811348095 rxn_smarts="[N:1]([c:2]1[c:3]([H:9])[c:4]([H:10])[c:5]([H:11])[o:6]1)([H:7])[H:8]>>[N+:1]1([H:7])([H:8])[C:2]([O:6][C:5](=[C:4]([H:9])[H:10])[H:11])=[C-:3]1"
N        2.14592824      -0.29605700       0.08901651
C        0.78071859      -0.06855878       0.18249910
C        0.44225096       1.16443633      -0.19866478
C       -1.62256901       0.56079634      -0.06343842
C       -1.35358183      -0.73102290       0.10666010
O       -0.05635849      -1.12908228       0.20988765
H        2.46642447      -0.79300394      -0.72706302
H        2.74379923       0.42803005       0.44912682
H       -0.90760252       1.52777319       0.31984799
H       -2.60360837       0.89846102      -0.36828015
H       -2.03540126      -1.56177203       0.00040819
11
Frame=8 idx=002178 GeodesicLength=0.5598190195892083 rxn_smarts="[N:1]([c:2]1[c:3]([H:9])[c:4]([H:10])[c:5]([H:11])[o:6]1)([H:7])[H:8]>>[N+:1]1([H:7])([H:8])[C:2]([O:6][C:5](=[C:4]([H:9])[H:10])[H:11])=[C-:3]1"
N        2.14185784      -0.28236257       0.07674048
C        0.77614842      -0.07537074       0.19291698
C        0.43347912       1.15063378      -0.20446093
C       -1.61383533       0.55895771      -0.06569100
C       -1.35663375      -0.73543429       0.11226037
O       -0.05833920      -1.13662962       0.21544143
H        2.46106421      -0.78688095      -0.73470847
H        2.74208916       0.42976575       0.45541708
H       -0.89644050       1.54402932       0.33610498
H       -2.58997119       0.89776044      -0.38486081
H       -2.03941877      -1.56446884       0.00083988
11
Frame=9 idx=002178 GeodesicLength=0.6298286606035758 rxn_smarts="[N:1]([c:2]1[c:3]([H:9])[c:4]([H:10])[c:5]([H:11])[o:6]1)([H:7])[H:8]>>[N+:1]1([H:7])([H:8])[C:2]([O:6][C:5](=[C:4]([H:9])[H:10])[H:11])=[C-:3]1"
N        2.13744057      -0.26823000       0.06453615
C        0.77164562      -0.08207137       0.20196860
C        0.42460313       1.13706409      -0.21032078
C       -1.60536906       0.55694316      -0.06769716
C       -1.35963676      -0.73991288       0.11729365
O       -0.06021853      -1.14404612       0.22044220
H        2.45629980      -0.78107949      -0.74134438
H        2.74003107       0.43094694       0.46239456
H       -0.88456672       1.56079131       0.35087300
H       -2.57692917       0.89694010      -0.39940621
H       -2.04329995      -1.56734573       0.00126036
11
Frame=10 idx=002178 GeodesicLength=0.69983069003441 rxn_smarts="[N:1]([c:2]1[c:3]([H:9])[c:4]([H:10])[c:5]([H:11])[o:6]1)([H:7])[H:8]>>[N+:1]1([H:7])([H:8])[C:2]([O:6][C:5](=[C:4]([H:9])[H:10])[H:11])=[C-:3]1"
N        2.13268855      -0.25362059       0.05229039
C        0.76721908      -0.08860899       0.20995081
C        0.41562100       1.12383101      -0.21598167
C       -1.59715604       0.55472408      -0.06950670
C       -1.36256880      -0.74447858       0.12183376
O       -0.06197936      -1.15131674       0.22517980
H        2.45190432      -0.77554336      -0.74719323
H        2.73772253       0.43141510       0.46986734
H       -0.87201641       1.57807919       0.36435263
H       -2.56443638       0.89595764      -0.41242083
H       -2.04699847      -1.57043874       0.00162771
11
Frame=11 idx=002178 GeodesicLength=0.7698264049263144 rxn_smarts="[N:1]([c:2]1[c:3]([H:9])[c:4]([H:10])[c:5]([H:11])[o:6]1)([H:7])[H:8]>>[N+:1]1([H:7])([H:8])[C:2]([O:6][C:5](=[C:4]([H:9])[H:10])[H:11])=[C-:3]1"
N        2.12764343      -0.23854284       0.04012537
C        0.76284324      -0.09504189       0.21673967
C        0.40652465       1.11082312      -0.22179103
C       -1.58922154       0.55231990      -0.07116033
C       -1.36545774      -0.74913538       0.12588499
O       -0.06363784      -1.15850835       0.22923047
H        2.44813845      -0.77021528      -0.75202544
H        2.73504787       0.43124603       0.47795255
H       -0.85864959       1.59590106       0.37653610
H       -2.55263157       0.89488049      -0.42358012
H       -2.05059935      -1.57372686       0.00208777
11
Frame=12 idx=002178 GeodesicLength=0.8398055564672701 rxn_smarts="[N:1]([c:2]1[c:3]([H:9])[c:4]([H:10])[c:5]([H:11])[o:6]1)([H:7])[H:8]>>[N+:1]1([H:7])([H:8])[C:2]([O:6][C:5](=[C:4]([H:9])[H:10])[H:11])=[C-:3]1"
N        2.12230507      -0.22301723       0.02791541
C        0.75853749      -0.10131601       0.22265956
C        0.39729968       1.09811661      -0.22741392
C       -1.58155460       0.54971383      -0.07270498
C       -1.36827608      -0.75388733       0.12951383
O       -0.06516729      -1.16553868       0.23301654
H        2.44467746      -0.76504474      -0.75598611
H        2.73214114       0.43031225       0.48631025
H       -0.84452523       1.61427205       0.38762084
H       -2.54143583       0.89364329      -0.43337884
H       -2.05400181      -1.57725403       0.00244743
11
Frame=13 idx=002178 GeodesicLength=0.9097886218475559 rxn_smarts="[N:1]([c:2]1[c:3]([H:9])[c:4]([H:10])[c:5]([H:11])[o:6]1)([H:7])[H:8]>>[N+:1]1([H:7])([H:8])[C:2]([O:6][C:5](=[C:4]([H:9])[H:10])[H:11])=[C-:3]1"
N        2.11669007      -0.20699331       0.01584799
C        0.75425915      -0.10748712       0.22751561
C        0.38792433       1.08564175      -0.23326567
C       -1.57418228       0.54690663      -0.07407447
C       -1.37105643      -0.75877375       0.13275879
O       -0.06658452      -1.17255481       0.23604404
H        2.44186601      -0.75997014      -0.75893741
H        2.72882709       0.42865855       0.49518742
H       -0.82944424       1.63323824       0.39749580
H       -2.53097928       0.89234776      -0.44147533
H       -2.05731990      -1.58101379       0.00290321
11
Frame=14 idx=002178 GeodesicLength=0.9797467727892917 rxn_smarts="[N:1]([c:2]1[c:3]([H:9])[c:4]([H:10])[c:5]([H:11])[o:6]1)([H:7])[H:8]>>[N+:1]1([H:7])([H:8])[C:2]([O:6][C:5](=[C:4]([H:9])[H:10])[H:11])=[C-:3]1"
N        2.11081757      -0.19060810       0.00383272
C        0.75003301      -0.11351254       0.23165560
C        0.37840721       1.07339932      -0.23901375
C       -1.56708822       0.54389414      -0.07535819
C       -1.37378410      -0.76377362       0.13563772
O       -0.06788832      -1.17941466       0.23885743
H        2.43933568      -0.75493785      -0.76089606
H        2.72525631       0.42628426       0.50408114
H       -0.81345695       1.65279804       0.40631960
H       -2.52120774       0.89091175      -0.44818195
H       -2.06042445      -1.58504075       0.00306574
11
Frame=15 idx=002178 GeodesicLength=1.0496882584830853 rxn_smarts="[N:1]([c:2]1[c:3]([H:9])[c:4]([H:10])[c:5]([H:11])[o:6]1)([H:7])[H:8]>>[N+:1]1([H:7])([H:8])[C:2]([O:6][C:5](=[C:4]([H:9])[H:10])[H:11])=[C-:3]1"
N        2.10467552      -0.17377520      -0.00789090
C        0.74582029      -0.11949203       0.23486839
C        0.36875272       1.06129719      -0.24497109
C       -1.56027594       0.54062862      -0.07653478
C       -1.37648570      -0.76892622       0.13816389
O       -0.06909418      -1.18630232       0.24086730
H        2.43738628      -0.74967755      -0.76187611
H        2.72123682       0.42314473       0.51334939
H       -0.79633133       1.67292182       0.41390430
H       -2.51219101       0.88944123      -0.45327173
H       -2.06349347      -1.58926027       0.00339133
11
Frame=16 idx=002178 GeodesicLength=1.1196303754740762 rxn_smarts="[N:1]([c:2]1[c:3]([H:9])[c:4]([H:10])[c:5]([H:11])[o:6]1)([H:7])[H:8]>>[N+:1]1([H:7])([H:8])[C:2]([O:6][C:5](=[C:4]([H:9])[H:10])[H:11])=[C-:3]1"
N        2.09829341      -0.15669752      -0.01928829
C        0.74161838      -0.12540967       0.23743688
C        0.35896482       1.04935402      -0.25094903
C       -1.55374323       0.53714428      -0.07763390
C       -1.37916777      -0.77425449       0.14035949
O       -0.07021913      -1.19317488       0.24248780
H        2.43580068      -0.74415926      -0.76195849
H        2.71685689       0.41935063       0.52260584
H       -0.77806626       1.69371247       0.42033995
H       -2.50389826       0.88791722      -0.45692617
H       -2.06643952      -1.59378281       0.00352591
