11
Frame=0 idx=000919 GeodesicLength=0.0 rxn_smarts="[N:1]([c:2]1[n:3][n:4]([H:9])[c:5]([H:10])[c:6]1[H:11])([H:7])[H:8]>>[N:1]([C:2]1=[C+:6][C:5]([H:10])([H:11])[N:4]([H:9])[N-:3]1)([H:7])[H:8]"
N       -2.05971732      -0.47207287       0.21618893
C       -0.71884526      -0.18646023       0.03689516
N        0.19533837      -1.13100031       0.16648048
N        1.37452529      -0.56395457      -0.05470818
C        1.21119064       0.82418039      -0.20933811
C       -0.20761409       1.11786835      -0.30067482
H       -2.66738661       0.21012869      -0.20375956
H       -2.32636118      -1.42458134       0.03093658
H        2.20141896      -1.06726092       0.21256400
H        1.99496052       1.38407622      -0.70535650
H        1.00249073       1.30907654       0.81077203
11
Frame=1 idx=000919 GeodesicLength=0.06337149138694559 rxn_smarts="[N:1]([c:2]1[n:3][n:4]([H:9])[c:5]([H:10])[c:6]1[H:11])([H:7])[H:8]>>[N:1]([C:2]1=[C+:6][C:5]([H:10])([H:11])[N:4]([H:9])[N-:3]1)([H:7])[H:8]"
N       -2.05706736      -0.47366755       0.21937800
C       -0.71733890      -0.19059123       0.02417022
N        0.19627100      -1.13688159       0.15149426
N        1.37672931      -0.56534575      -0.04667237
C        1.21521902       0.82128122      -0.20725403
C       -0.20141623       1.11381066      -0.29670414
H       -2.66794048       0.21533144      -0.18467756
H       -2.32711354      -1.42293618       0.02228669
H        2.20267280      -1.07170770       0.21737475
H        1.99687711       1.37670757      -0.71154555
H        0.98310726       1.33399912       0.81214973
11
Frame=2 idx=000919 GeodesicLength=0.1267480116175891 rxn_smarts="[N:1]([c:2]1[n:3][n:4]([H:9])[c:5]([H:10])[c:6]1[H:11])([H:7])[H:8]>>[N:1]([C:2]1=[C+:6][C:5]([H:10])([H:11])[N:4]([H:9])[N-:3]1)([H:7])[H:8]"
N       -2.05424920      -0.47524256       0.22259309
C       -0.71581781      -0.19441626       0.01194383
N        0.19719397      -1.14263027       0.13604753
N        1.37867667      -0.56680934      -0.03847814
C        1.21929963       0.81840126      -0.20461599
C       -0.19517007       1.10970224      -0.29292169
H       -2.66806118       0.22012253      -0.16599630
H       -2.32773908      -1.42118091       0.01407635
H        2.20372589      -1.07652737       0.22151394
H        1.99886007       1.36910597      -0.71728421
H        0.96328110       1.35947471       0.81312159
11
Frame=3 idx=000919 GeodesicLength=0.19004818493623227 rxn_smarts="[N:1]([c:2]1[n:3][n:4]([H:9])[c:5]([H:10])[c:6]1[H:11])([H:7])[H:8]>>[N:1]([C:2]1=[C+:6][C:5]([H:10])([H:11])[N:4]([H:9])[N-:3]1)([H:7])[H:8]"
N       -2.05132887      -0.47675308       0.22575655
C       -0.71429954      -0.19785796       0.00053047
N        0.19806634      -1.14817113       0.12041545
N        1.38032470      -0.56836093      -0.03019020
C        1.22342931       0.81553862      -0.20139402
C       -0.18887936       1.10561583      -0.28904775
H       -2.66773889       0.22436901      -0.14824686
H       -2.32817824      -1.41937278       0.00644218
H        2.20457252      -1.08177371       0.22465515
H        2.00083467       1.36125614      -0.72261790
H        0.94319735       1.38550997       0.81369694
11
Frame=4 idx=000919 GeodesicLength=0.25338034134435067 rxn_smarts="[N:1]([c:2]1[n:3][n:4]([H:9])[c:5]([H:10])[c:6]1[H:11])([H:7])[H:8]>>[N:1]([C:2]1=[C+:6][C:5]([H:10])([H:11])[N:4]([H:9])[N-:3]1)([H:7])[H:8]"
N       -2.04830914      -0.47825401       0.22891071
C       -0.71275910      -0.20097735      -0.01015416
N        0.19895922      -1.15351149       0.10456065
N        1.38169931      -0.57003072      -0.02168732
C        1.22760302       0.81265764      -0.19759719
C       -0.18253485       1.10151640      -0.28519499
H       -2.66706052       0.22821691      -0.13106014
H       -2.32843174      -1.41749900      -0.00087812
H        2.20527899      -1.08743964       0.22686290
H        2.00285243       1.35311474      -0.72750980
H        0.92270238       1.41220652       0.81374747
11
Frame=5 idx=000919 GeodesicLength=0.3166879797581403 rxn_smarts="[N:1]([c:2]1[n:3][n:4]([H:9])[c:5]([H:10])[c:6]1[H:11])([H:7])[H:8]>>[N:1]([C:2]1=[C+:6][C:5]([H:10])([H:11])[N:4]([H:9])[N-:3]1)([H:7])[H:8]"
N       -2.04524309      -0.47973460       0.23202382
C       -0.71121032      -0.20376289      -0.02002765
N        0.19984553      -1.15861610       0.08866479
N        1.38281043      -0.57186769      -0.01299995
C        1.23183724       0.80975601      -0.19322087
C       -0.17613176       1.09745220      -0.28121891
H       -2.66607591       0.23163312      -0.11463666
H       -2.32850512      -1.41561097      -0.00784716
H        2.20587312      -1.09351810       0.22798791
H        2.00491112       1.34470910      -0.73196411
H        0.90188875       1.43955991       0.81323881
11
Frame=6 idx=000919 GeodesicLength=0.3800703399166244 rxn_smarts="[N:1]([c:2]1[n:3][n:4]([H:9])[c:5]([H:10])[c:6]1[H:11])([H:7])[H:8]>>[N:1]([C:2]1=[C+:6][C:5]([H:10])([H:11])[N:4]([H:9])[N-:3]1)([H:7])[H:8]"
N       -2.04214508      -0.48115960       0.23506593
C       -0.70964133      -0.20623092      -0.02904227
N        0.20073355      -1.16347625       0.07292779
N        1.38363198      -0.57381150      -0.00416257
C        1.23612995       0.80681656      -0.18825411
C       -0.16965778       1.09341713      -0.27697242
H       -2.66480510       0.23461701      -0.09921066
H       -2.32834459      -1.41372602      -0.01438460
H        2.20635536      -1.10004456       0.22781871
H        2.00695987       1.33600224      -0.73594281
H        0.88078316       1.46759591       0.81215702
11
Frame=7 idx=000919 GeodesicLength=0.4435269197161119 rxn_smarts="[N:1]([c:2]1[n:3][n:4]([H:9])[c:5]([H:10])[c:6]1[H:11])([H:7])[H:8]>>[N:1]([C:2]1=[C+:6][C:5]([H:10])([H:11])[N:4]([H:9])[N-:3]1)([H:7])[H:8]"
N       -2.03908987      -0.48250084       0.23800184
C       -0.70806560      -0.20836391      -0.03715957
N        0.20160584      -1.16803293       0.05757544
N        1.38420241      -0.57600734       0.00467415
C        1.24049500       0.80381478      -0.18272904
C       -0.16310823       1.08948597      -0.27225276
H       -2.66333433       0.23713895      -0.08502234
H       -2.32796280      -1.41189469      -0.02041105
H        2.20677403      -1.10694647       0.22629826
H        2.00899627       1.32708289      -0.73948458
H        0.85948727       1.49622359       0.81050965
11
Frame=8 idx=000919 GeodesicLength=0.507017491616909 rxn_smarts="[N:1]([c:2]1[n:3][n:4]([H:9])[c:5]([H:10])[c:6]1[H:11])([H:7])[H:8]>>[N:1]([C:2]1=[C+:6][C:5]([H:10])([H:11])[N:4]([H:9])[N-:3]1)([H:7])[H:8]"
N       -2.03611017      -0.48375004       0.24083447
C       -0.70650485      -0.21019191      -0.04443049
N        0.20245158      -1.17233580       0.04269002
N        1.38463692      -0.57852295       0.01339964
C        1.24496531       0.80074954      -0.17671466
C       -0.15648827       1.08568212      -0.26696278
H       -2.66174641       0.23927554      -0.07205422
H       -2.32739571      -1.41014781      -0.02595680
H        2.20716507      -1.11418135       0.22354086
H        2.01099173       1.31805412      -0.74257809
H        0.83803480       1.52536855       0.80823204
11
Frame=9 idx=000919 GeodesicLength=0.5699443326147371 rxn_smarts="[N:1]([c:2]1[n:3][n:4]([H:9])[c:5]([H:10])[c:6]1[H:11])([H:7])[H:8]>>[N:1]([C:2]1=[C+:6][C:5]([H:10])([H:11])[N:4]([H:9])[N-:3]1)([H:7])[H:8]"
N       -2.03316492      -0.48477366       0.24358265
C       -0.70484902      -0.21174755      -0.05075209
N        0.20331339      -1.17630288       0.02856301
N        1.38469324      -0.58119040       0.02152895
C        1.24947272       0.79755465      -0.16975822
C       -0.14972743       1.08182369      -0.26143489
H       -2.65997237       0.24090375      -0.06087125
H       -2.32646842      -1.40848257      -0.03046492
H        2.20725549      -1.12157183       0.21895142
H        2.01301605       1.30868244      -0.74470367
H        0.81643127       1.55510436       0.80535902
11
Frame=10 idx=000919 GeodesicLength=0.6328902784521492 rxn_smarts="[N:1]([c:2]1[n:3][n:4]([H:9])[c:5]([H:10])[c:6]1[H:11])([H:7])[H:8]>>[N:1]([C:2]1=[C+:6][C:5]([H:10])([H:11])[N:4]([H:9])[N-:3]1)([H:7])[H:8]"
N       -2.03030578      -0.48569412       0.24626150
C       -0.70318544      -0.21306855      -0.05633874
N        0.20414181      -1.18007340       0.01493255
N        1.38470328      -0.58424758       0.02920938
C        1.25410242       0.79425085      -0.16235191
C       -0.14286314       1.07805371      -0.25528709
H       -2.65815593       0.24224848      -0.05079010
H       -2.32538610      -1.40690926      -0.03451494
H        2.20726487      -1.12913088       0.21341078
H        2.01500687       1.29931579      -0.74630778
H        0.79467715       1.58525496       0.80177635
11
Frame=11 idx=000919 GeodesicLength=0.6960949211964126 rxn_smarts="[N:1]([c:2]1[n:3][n:4]([H:9])[c:5]([H:10])[c:6]1[H:11])([H:7])[H:8]>>[N:1]([C:2]1=[C+:6][C:5]([H:10])([H:11])[N:4]([H:9])[N-:3]1)([H:7])[H:8]"
N       -2.02748090      -0.48658662       0.24889897
C       -0.70149637      -0.21421853      -0.06133175
N        0.20492879      -1.18368970       0.00155814
N        1.38467640      -0.58764644       0.03633798
C        1.25881779       0.79080164      -0.15460660
C       -0.13590950       1.07430268      -0.24844488
H       -2.65627412       0.24339776      -0.04133246
H       -2.32416234      -1.40536386      -0.03841358
H        2.20721108      -1.13688448       0.20740931
H        2.01693428       1.28995777      -0.74745514
H        0.77275489       1.61592978       0.79737999
11
Frame=12 idx=000919 GeodesicLength=0.759051861360389 rxn_smarts="[N:1]([c:2]1[n:3][n:4]([H:9])[c:5]([H:10])[c:6]1[H:11])([H:7])[H:8]>>[N:1]([C:2]1=[C+:6][C:5]([H:10])([H:11])[N:4]([H:9])[N-:3]1)([H:7])[H:8]"
N       -2.02461569      -0.48738918       0.25158936
C       -0.69973719      -0.21519259      -0.06589350
N        0.20571566      -1.18714323      -0.01177702
N        1.38456187      -0.59148306       0.04215116
C        1.26366056       0.78717969      -0.14637489
C       -0.12881582       1.07059317      -0.24113112
H       -2.65429866       0.24435294      -0.03248103
H       -2.32276932      -1.40386054      -0.04180847
H        2.20683528      -1.14453485       0.20146840
H        2.01886822       1.28067450      -0.74789977
H        0.75059510       1.64680315       0.79215689
11
Frame=13 idx=000919 GeodesicLength=0.8220219559910029 rxn_smarts="[N:1]([c:2]1[n:3][n:4]([H:9])[c:5]([H:10])[c:6]1[H:11])([H:7])[H:8]>>[N:1]([C:2]1=[C+:6][C:5]([H:10])([H:11])[N:4]([H:9])[N-:3]1)([H:7])[H:8]"
N       -2.02174487      -0.48814730       0.25431435
C       -0.69793291      -0.21602688      -0.07000074
N        0.20645601      -1.19047596      -0.02506855
N        1.38445960      -0.59570494       0.04699673
C        1.26861816       0.78338321      -0.13773468
C       -0.12160174       1.06687886      -0.23322092
H       -2.65226482       0.24515965      -0.02408505
H       -2.32125280      -1.40237951      -0.04492715
H        2.20630281      -1.15231404       0.19543220
H        2.02079467       1.27151481      -0.74767304
H        0.72816589       1.67811211       0.78596685
11
Frame=14 idx=000919 GeodesicLength=0.8850296622169845 rxn_smarts="[N:1]([c:2]1[n:3][n:4]([H:9])[c:5]([H:10])[c:6]1[H:11])([H:7])[H:8]>>[N:1]([C:2]1=[C+:6][C:5]([H:10])([H:11])[N:4]([H:9])[N-:3]1)([H:7])[H:8]"
N       -2.01883787      -0.48888901       0.25710947
C       -0.69607478      -0.21674430      -0.07373959
N        0.20715335      -1.19370994      -0.03846651
N        1.38435998      -0.60030336       0.05098162
C        1.27369478       0.77940322      -0.12863488
C       -0.11425790       1.06313598      -0.22476252
H       -2.65015522       0.24587045      -0.01589273
H       -2.31963794      -1.40089751      -0.04785957
H        2.20567028      -1.16030358       0.18932255
H        2.02277546       1.26249115      -0.74667950
H        0.70530986       1.70994690       0.77862166
11
Frame=15 idx=000919 GeodesicLength=0.9480326914264898 rxn_smarts="[N:1]([c:2]1[n:3][n:4]([H:9])[c:5]([H:10])[c:6]1[H:11])([H:7])[H:8]>>[N:1]([C:2]1=[C+:6][C:5]([H:10])([H:11])[N:4]([H:9])[N-:3]1)([H:7])[H:8]"
N       -2.01585428      -0.48963644       0.26001932
C       -0.69415714      -0.21735953      -0.07721535
N        0.20781405      -1.19684246      -0.05214697
N        1.38426237      -0.60529068       0.05413320
C        1.27889473       0.77521534      -0.11900635
C       -0.10676787       1.05934177      -0.21582485
H       -2.64795153       0.24651743      -0.00766892
H       -2.31793518      -1.39939478      -0.05063764
H        2.20491652      -1.16851752       0.18319529
H        2.02487887       1.25361540      -0.74476460
H        0.68189947       1.74235146       0.76991687
11
Frame=16 idx=000919 GeodesicLength=1.0110255973996232 rxn_smarts="[N:1]([c:2]1[n:3][n:4]([H:9])[c:5]([H:10])[c:6]1[H:11])([H:7])[H:8]>>[N:1]([C:2]1=[C+:6][C:5]([H:10])([H:11])[N:4]([H:9])[N-:3]1)([H:7])[H:8]"
N       -2.01277634      -0.49043886       0.26306415
C       -0.69217522      -0.21789059      -0.08043833
N        0.20843931      -1.19987863      -0.06616708
N        1.38417304      -0.61064631       0.05659307
C        1.28422406       0.77079931      -0.10876344
C       -0.09912489       1.05546887      -0.20640761
H       -2.64563489       0.24712756       0.00081669
H       -2.31616324      -1.39784540      -0.05342143
H        2.20404735      -1.17701195       0.17694347
H        2.02715610       1.24486894      -0.74180189
H        0.65783472       1.77544706       0.75958241
