8
Frame=0 idx=005205 GeodesicLength=0.0 rxn_smarts="[O:1]=[C:2]([C:3](=[O:4])[C:5](=[O:6])[H:8])[H:7]>>[O:1]=[C:2]([O:6][C:5](=[C:3]=[O:4])[H:8])[H:7]"
O       -1.80010586      -0.05126405       0.96936078
C       -0.64241989       0.18908297       0.89900394
C       -0.05724568       0.46210276      -0.90241884
O       -0.58420428       1.00579497      -1.80223472
C        0.81296114      -0.59566148      -0.51208479
O        0.41454848      -1.04781593       0.62455468
H        0.00866087       0.77846996       1.55161732
H        1.84780525      -0.74070921      -0.82779840
8
Frame=1 idx=005205 GeodesicLength=0.05259373127785024 rxn_smarts="[O:1]=[C:2]([C:3](=[O:4])[C:5](=[O:6])[H:8])[H:7]>>[O:1]=[C:2]([O:6][C:5](=[C:3]=[O:4])[H:8])[H:7]"
O       -1.80216940      -0.07253336       0.99371687
C       -0.65020726       0.18960362       0.90438274
C       -0.05972647       0.45334107      -0.90634163
O       -0.55418441       1.02549883      -1.80640799
C        0.81034326      -0.60345603      -0.51459535
O        0.42421173      -1.05053108       0.62849629
H       -0.00932065       0.80397264       1.54516249
H        1.84105320      -0.74589569      -0.84441343
8
Frame=2 idx=005205 GeodesicLength=0.10506800023530957 rxn_smarts="[O:1]=[C:2]([C:3](=[O:4])[C:5](=[O:6])[H:8])[H:7]>>[O:1]=[C:2]([O:6][C:5](=[C:3]=[O:4])[H:8])[H:7]"
O       -1.80351194      -0.09498583       1.01969965
C       -0.65838457       0.18990812       0.90962083
C       -0.06355571       0.44300813      -0.91106369
O       -0.52142629       1.04695282      -1.80910837
C        0.80751831      -0.61144391      -0.51715374
O        0.43456535      -1.05267581       0.63281646
H       -0.02885055       0.83072920       1.53686324
H        1.83364540      -0.75149272      -0.86167437
8
Frame=3 idx=005205 GeodesicLength=0.15723582451356335 rxn_smarts="[O:1]=[C:2]([C:3](=[O:4])[C:5](=[O:6])[H:8])[H:7]>>[O:1]=[C:2]([O:6][C:5](=[C:3]=[O:4])[H:8])[H:7]"
O       -1.80388143      -0.11813816       1.04729064
C       -0.66686357       0.18996166       0.91458560
C       -0.06924584       0.43082375      -0.91682027
O       -0.48603515       1.07024150      -1.80981323
C        0.80447851      -0.61975357      -0.51978476
O        0.44558902      -1.05457491       0.63724518
H       -0.04984781       0.85857863       1.52626393
H        1.82580627      -0.75713890      -0.87896709
8
Frame=4 idx=005205 GeodesicLength=0.21004376414207193 rxn_smarts="[O:1]=[C:2]([C:3](=[O:4])[C:5](=[O:6])[H:8])[H:7]>>[O:1]=[C:2]([O:6][C:5](=[C:3]=[O:4])[H:8])[H:7]"
O       -1.80350005      -0.14203546       1.07692457
C       -0.67586503       0.18982582       0.91936184
C       -0.07699953       0.41647477      -0.92387518
O       -0.44742546       1.09538902      -1.80782018
C        0.80135497      -0.62841418      -0.52266841
O        0.45733219      -1.05614666       0.64171916
H       -0.07267750       0.88784544       1.51312077
H        1.81778041      -0.76293874      -0.89676257
8
Frame=5 idx=005205 GeodesicLength=0.26192354728758044 rxn_smarts="[O:1]=[C:2]([C:3](=[O:4])[C:5](=[O:6])[H:8])[H:7]>>[O:1]=[C:2]([O:6][C:5](=[C:3]=[O:4])[H:8])[H:7]"
O       -1.80159325      -0.16666564       1.10750127
C       -0.68508570       0.18942926       0.92375735
C       -0.08587508       0.40041882      -0.93244438
O       -0.40623470       1.12178502      -1.80197819
C        0.79805865      -0.63703905      -0.52564744
O        0.46994074      -1.05667117       0.64658161
H       -0.09787785       0.91829084       1.49754919
H        1.80866719      -0.76954809      -0.91531942
8
Frame=6 idx=005205 GeodesicLength=0.31290609595208885 rxn_smarts="[O:1]=[C:2]([C:3](=[O:4])[C:5](=[O:6])[H:8])[H:7]>>[O:1]=[C:2]([O:6][C:5](=[C:3]=[O:4])[H:8])[H:7]"
O       -1.79895811      -0.18941845       1.13790766
C       -0.69416691       0.18918483       0.92796649
C       -0.09373776       0.38629256      -0.94060543
O       -0.36629421       1.14514430      -1.79441313
C        0.79510999      -0.64492446      -0.52883376
O        0.48172930      -1.05801544       0.64981057
H       -0.12377109       0.94756029       1.48139143
H        1.80008879      -0.77582362      -0.93322382
8
Frame=7 idx=005205 GeodesicLength=0.36286284045636347 rxn_smarts="[O:1]=[C:2]([C:3](=[O:4])[C:5](=[O:6])[H:8])[H:7]>>[O:1]=[C:2]([O:6][C:5](=[C:3]=[O:4])[H:8])[H:7]"
O       -1.79568247      -0.20948732       1.16645862
C       -0.70264344       0.18933773       0.93230666
C       -0.09762173       0.37664056      -0.94749427
O       -0.33105199       1.16349553      -1.78744892
C        0.79290706      -0.65161300      -0.53208333
O        0.49189336      -1.06072379       0.65130352
H       -0.14986025       0.97451390       1.46724522
H        1.79205945      -0.78216361      -0.95028749
8
Frame=8 idx=005205 GeodesicLength=0.41267326593719567 rxn_smarts="[O:1]=[C:2]([C:3](=[O:4])[C:5](=[O:6])[H:8])[H:7]>>[O:1]=[C:2]([O:6][C:5](=[C:3]=[O:4])[H:8])[H:7]"
O       -1.79195165      -0.22765106       1.19465049
C       -0.71082833       0.18975151       0.93685226
C       -0.09948347       0.36943376      -0.95363984
O       -0.29825526       1.17887834      -1.78110908
C        0.79114788      -0.65771671      -0.53556789
O        0.50071525      -1.06481611       0.65134054
H       -0.17617107       1.00004579       1.45400486
H        1.78482665      -0.78792552      -0.96653133
8
Frame=9 idx=005205 GeodesicLength=0.4621475453181419 rxn_smarts="[O:1]=[C:2]([C:3](=[O:4])[C:5](=[O:6])[H:8])[H:7]>>[O:1]=[C:2]([O:6][C:5](=[C:3]=[O:4])[H:8])[H:7]"
O       -1.78762174      -0.24421231       1.22261795
C       -0.71871717       0.19038387       0.94154172
C       -0.09972964       0.36407692      -0.95924149
O       -0.26744935       1.19202155      -1.77526687
C        0.78975456      -0.66335270      -0.53920159
O        0.50837468      -1.07018893       0.65017385
H       -0.20281123       1.02441582       1.44136044
H        1.77819988      -0.79314423      -0.98198401
8
Frame=10 idx=005205 GeodesicLength=0.5113318322320376 rxn_smarts="[O:1]=[C:2]([C:3](=[O:4])[C:5](=[O:6])[H:8])[H:7]>>[O:1]=[C:2]([O:6][C:5](=[C:3]=[O:4])[H:8])[H:7]"
O       -1.78264858      -0.25941046       1.25066501
C       -0.72634168       0.19116778       0.94638132
C       -0.09882902       0.35999593      -0.96445831
O       -0.23811310       1.20361479      -1.76983976
C        0.78865319      -0.66867190      -0.54296342
O        0.51497877      -1.07684351       0.64795490
H       -0.22986195       1.04789923       1.42891808
H        1.77216237      -0.79775186      -0.99665783
8
Frame=11 idx=005205 GeodesicLength=0.560517791870597 rxn_smarts="[O:1]=[C:2]([C:3](=[O:4])[C:5](=[O:6])[H:8])[H:7]>>[O:1]=[C:2]([O:6][C:5](=[C:3]=[O:4])[H:8])[H:7]"
O       -1.77698324      -0.27362765       1.27913064
C       -0.73381212       0.19206983       0.95139512
C       -0.09711279       0.35679025      -0.96945722
O       -0.20957397       1.21423323      -1.76455168
C        0.78780651      -0.67377396      -0.54686868
O        0.52079303      -1.08457704       0.64490324
H       -0.25769569       1.07088335       1.41633673
H        1.76657827      -0.80199801      -1.01088815
8
Frame=12 idx=005205 GeodesicLength=0.6093155901642641 rxn_smarts="[O:1]=[C:2]([C:3](=[O:4])[C:5](=[O:6])[H:8])[H:7]>>[O:1]=[C:2]([O:6][C:5](=[C:3]=[O:4])[H:8])[H:7]"
O       -1.77041265      -0.28706225       1.30793265
C       -0.74110140       0.19306865       0.95649365
C       -0.09465762       0.35432522      -0.97423436
O       -0.18161521       1.22418061      -1.75907519
C        0.78717472      -0.67864306      -0.55081010
O        0.52606400      -1.09312744       0.64119035
H       -0.28659982       1.09347199       1.40334587
H        1.76114797      -0.80621372      -1.02484286
8
Frame=13 idx=005205 GeodesicLength=0.6577944324065985 rxn_smarts="[O:1]=[C:2]([C:3](=[O:4])[C:5](=[O:6])[H:8])[H:7]>>[O:1]=[C:2]([O:6][C:5](=[C:3]=[O:4])[H:8])[H:7]"
O       -1.76299586      -0.29930160       1.33722912
C       -0.74810102       0.19417704       0.96176913
C       -0.09165438       0.35245253      -0.97883023
O       -0.15445068       1.23324475      -1.75382868
C        0.78671145      -0.68334776      -0.55489130
O        0.53020788      -1.10310143       0.63644716
H       -0.31606454       1.11541961       1.39002799
H        1.75634716      -0.80954314      -1.03792319
8
Frame=14 idx=005205 GeodesicLength=0.706281361514786 rxn_smarts="[O:1]=[C:2]([C:3](=[O:4])[C:5](=[O:6])[H:8])[H:7]>>[O:1]=[C:2]([O:6][C:5](=[C:3]=[O:4])[H:8])[H:7]"
O       -1.75470788      -0.31061125       1.36716179
C       -0.75489068       0.19541972       0.96726617
C       -0.08808352       0.35110178      -0.98328945
O       -0.12779893       1.24173354      -1.74862692
C        0.78646849      -0.68792635      -0.55910877
O        0.53346054      -1.11430676       0.63083146
H       -0.34650395       1.13699740       1.37627759
H        1.75205592      -0.81240809      -1.05051187
8
Frame=15 idx=005205 GeodesicLength=0.7546619145172306 rxn_smarts="[O:1]=[C:2]([C:3](=[O:4])[C:5](=[O:6])[H:8])[H:7]>>[O:1]=[C:2]([O:6][C:5](=[C:3]=[O:4])[H:8])[H:7]"
O       -1.74536280      -0.32106120       1.39785775
C       -0.76143821       0.19676855       0.97298480
C       -0.08407607       0.35014918      -0.98763936
O       -0.10139819       1.24984868      -1.74326715
C        0.78639544      -0.69239892      -0.56344451
O        0.53585710      -1.12670322       0.62436148
H       -0.37815667       1.15826872       1.36180115
H        1.74817942      -0.81487179      -1.06265417
8
Frame=16 idx=005205 GeodesicLength=0.8029075070622268 rxn_smarts="[O:1]=[C:2]([C:3](=[O:4])[C:5](=[O:6])[H:8])[H:7]>>[O:1]=[C:2]([O:6][C:5](=[C:3]=[O:4])[H:8])[H:7]"
O       -1.73480475      -0.33073806       1.42937164
C       -0.76773473       0.19824307       0.97893230
C       -0.07960454       0.34960309      -0.99185763
O       -0.07508757       1.25772344      -1.73764182
C        0.78648184      -0.69676576      -0.56787272
O        0.53748094      -1.14018278       0.61708652
H       -0.41131843       1.17925993       1.34647420
H        1.74458724      -0.81714293      -1.07449250
