15
Frame=0 idx=008443 GeodesicLength=0.0 rxn_smarts="[C:1]1([H:8])([H:9])[C@@:2]2([H:10])[C@@:3]3([H:11])[O:4][C:5]([H:12])([H:13])[C@:6]1([H:14])[C@@:7]23[H:15]>>[C:1]([C@@:2]1([H:10])[C@@:3]2([H:11])[O:4][C:5]([H:13])=[C:6]([H:14])[C@@:7]12[H:15])([H:8])([H:9])[H:12]"
C        0.83322060       1.24202404       0.49845800
C        1.28091971      -0.09037439      -0.02149931
C        0.38723613      -1.28431461       0.21221849
O       -0.77565429      -1.18295650       1.02418747
C       -1.62803486      -0.27381526       0.42112790
C       -0.92819474       0.38074458      -0.62021136
C        0.23931716      -0.48464518      -1.03336154
H        0.88902826       1.38515974       1.58137682
H        1.28242771       2.08084215      -0.03302924
H        2.32377914      -0.33627065      -0.21296157
H        0.81371080      -2.27691890       0.22464305
H       -0.97986537       0.86308066       0.61178340
H       -2.68100702      -0.30566809       0.64856345
H       -1.40459727       1.11826245      -1.25012509
H        0.34771399      -0.83515000      -2.05117044
15
Frame=1 idx=008443 GeodesicLength=0.09148771022254822 rxn_smarts="[C:1]1([H:8])([H:9])[C@@:2]2([H:10])[C@@:3]3([H:11])[O:4][C:5]([H:12])([H:13])[C@:6]1([H:14])[C@@:7]23[H:15]>>[C:1]([C@@:2]1([H:10])[C@@:3]2([H:11])[O:4][C:5]([H:13])=[C:6]([H:14])[C@@:7]12[H:15])([H:8])([H:9])[H:12]"
C        0.82485597       1.23925786       0.49813509
C        1.27919856      -0.09186150      -0.02293288
C        0.38633228      -1.28549419       0.21184402
O       -0.77502160      -1.18173385       1.02414028
C       -1.62292658      -0.26464570       0.42581538
C       -0.92582798       0.38406507      -0.62157262
C        0.23664591      -0.48776919      -1.03515845
H        0.89673922       1.38016019       1.58035099
H        1.27353249       2.07877209      -0.03292261
H        2.32264141      -0.33312212      -0.21446222
H        0.81288597      -2.27808804       0.22596935
H       -0.97224511       0.88161894       0.63891324
H       -2.67984128      -0.31514795       0.63212519
H       -1.40650583       1.11312565      -1.25822687
H        0.34953658      -0.83913725      -2.05201789
15
Frame=2 idx=008443 GeodesicLength=0.18276164294065914 rxn_smarts="[C:1]1([H:8])([H:9])[C@@:2]2([H:10])[C@@:3]3([H:11])[O:4][C:5]([H:12])([H:13])[C@:6]1([H:14])[C@@:7]23[H:15]>>[C:1]([C@@:2]1([H:10])[C@@:3]2([H:11])[O:4][C:5]([H:13])=[C:6]([H:14])[C@@:7]12[H:15])([H:8])([H:9])[H:12]"
C        0.81632325       1.23649875       0.49778686
C        1.27735863      -0.09333030      -0.02430193
C        0.38535990      -1.28671111       0.21141442
O       -0.77466075      -1.18069557       1.02377189
C       -1.61791241      -0.25550665       0.43021945
C       -0.92352869       0.38717948      -0.62328023
C        0.23402704      -0.49095660      -1.03703540
H        0.90442133       1.37540223       1.57903027
H        1.26436934       2.07668882      -0.03297182
H        2.32140687      -0.32989786      -0.21577172
H        0.81205932      -2.27926376       0.22729711
H       -0.96448586       0.89977237       0.66722551
H       -2.67802019      -0.32399281       0.61585441
H       -1.40834355       1.10799560      -1.26633154
H        0.35162576      -0.84318258      -2.05290727
15
Frame=3 idx=008443 GeodesicLength=0.2739254160150899 rxn_smarts="[C:1]1([H:8])([H:9])[C@@:2]2([H:10])[C@@:3]3([H:11])[O:4][C:5]([H:12])([H:13])[C@:6]1([H:14])[C@@:7]23[H:15]>>[C:1]([C@@:2]1([H:10])[C@@:3]2([H:11])[O:4][C:5]([H:13])=[C:6]([H:14])[C@@:7]12[H:15])([H:8])([H:9])[H:12]"
C        0.80757271       1.23374310       0.49740816
C        1.27539362      -0.09477257      -0.02560575
C        0.38432413      -1.28796994       0.21091768
O       -0.77460002      -1.17987251       1.02302238
C       -1.61297537      -0.24637445       0.43431861
C       -0.92129676       0.39005808      -0.62539398
C        0.23148573      -0.49422355      -1.03901429
H        0.91208737       1.37089738       1.57739913
H        1.25487587       2.07459569      -0.03318149
H        2.32007589      -0.32657340      -0.21686661
H        0.81125140      -2.28044350       0.22862960
H       -0.95653879       0.91744278       0.69687442
H       -2.67558584      -0.33205779       0.59985166
H       -1.41010255       1.10285728      -1.27450710
H        0.35403261      -0.84730661      -2.05385244
15
Frame=4 idx=008443 GeodesicLength=0.3650734874450261 rxn_smarts="[C:1]1([H:8])([H:9])[C@@:2]2([H:10])[C@@:3]3([H:11])[O:4][C:5]([H:12])([H:13])[C@:6]1([H:14])[C@@:7]23[H:15]>>[C:1]([C@@:2]1([H:10])[C@@:3]2([H:11])[O:4][C:5]([H:13])=[C:6]([H:14])[C@@:7]12[H:15])([H:8])([H:9])[H:12]"
C        0.79855155       1.23098742       0.49699589
C        1.27329617      -0.09617839      -0.02684323
C        0.38322841      -1.28927347       0.21034275
O       -0.77487225      -1.17929662       1.02182870
C       -1.60809399      -0.23721188       0.43809920
C       -0.91913264       0.39267223      -0.62797570
C        0.22904701      -0.49758567      -1.04111678
H        0.91975987       1.36666355       1.57543475
H        1.24498423       2.07249574      -0.03355812
H        2.31864674      -0.32312128      -0.21772195
H        0.81048127      -2.28162248       0.22997212
H       -0.94833374       0.93451328       0.72803791
H       -2.67259331      -0.33920049       0.58420326
H       -1.41177831       1.09768773      -1.28283344
H        0.35680898      -0.85152966      -2.05486535
15
Frame=5 idx=008443 GeodesicLength=0.4562970634764752 rxn_smarts="[C:1]1([H:8])([H:9])[C@@:2]2([H:10])[C@@:3]3([H:11])[O:4][C:5]([H:12])([H:13])[C@:6]1([H:14])[C@@:7]23[H:15]>>[C:1]([C@@:2]1([H:10])[C@@:3]2([H:11])[O:4][C:5]([H:13])=[C:6]([H:14])[C@@:7]12[H:15])([H:8])([H:9])[H:12]"
C        0.78920844       1.22823169       0.49654450
C        1.27105797      -0.09753794      -0.02801418
C        0.38207312      -1.29062132       0.20968256
O       -0.77551596      -1.17898725       1.02013268
C       -1.60324864      -0.22797392       0.44154774
C       -0.91703952       0.39499432      -0.63109213
C        0.22673364      -0.50106043      -1.04336459
H        0.92746967       1.36272593       1.57310859
H        1.23462301       2.07039567      -0.03411721
H        2.31711708      -0.31951858      -0.21831355
H        0.80976292      -2.28279391       0.23133846
H       -0.93978560       0.95085568       0.76091401
H       -2.66909827      -0.34531049       0.56896722
H       -1.41336148       1.09247908      -1.29137578
H        0.36000362      -0.85587855      -2.05595832
15
Frame=6 idx=008443 GeodesicLength=0.5476338140602531 rxn_smarts="[C:1]1([H:8])([H:9])[C@@:2]2([H:10])[C@@:3]3([H:11])[O:4][C:5]([H:12])([H:13])[C@:6]1([H:14])[C@@:7]23[H:15]>>[C:1]([C@@:2]1([H:10])[C@@:3]2([H:11])[O:4][C:5]([H:13])=[C:6]([H:14])[C@@:7]12[H:15])([H:8])([H:9])[H:12]"
C        0.77948348       1.22547332       0.49605768
C        1.26866626      -0.09883707      -0.02911471
C        0.38085649      -1.29201212       0.20892908
O       -0.77657862      -1.17897636       1.01785738
C       -1.59840866      -0.21860269       0.44466313
C       -0.91502192       0.39699536      -0.63480776
C        0.22456991      -0.50466021      -1.04577680
H        0.93525865       1.35912027       1.57038279
H        1.22371049       2.06829632      -0.03486495
H        2.31547970      -0.31573301      -0.21861282
H        0.80910846      -2.28394867       0.23273976
H       -0.93078102       0.96630851       0.79570800
H       -2.66515952      -0.35024287       0.55421077
H       -1.41485495       1.08718917      -1.30023417
H        0.36367125      -0.86036997      -2.05713735
15
Frame=7 idx=008443 GeodesicLength=0.6391161810094075 rxn_smarts="[C:1]1([H:8])([H:9])[C@@:2]2([H:10])[C@@:3]3([H:11])[O:4][C:5]([H:12])([H:13])[C@:6]1([H:14])[C@@:7]23[H:15]>>[C:1]([C@@:2]1([H:10])[C@@:3]2([H:11])[O:4][C:5]([H:13])=[C:6]([H:14])[C@@:7]12[H:15])([H:8])([H:9])[H:12]"
C        0.76931376       1.22271480       0.49553648
C        1.26610779      -0.10006169      -0.03014124
C        0.37957328      -1.29344146       0.20807790
O       -0.77811620      -1.17928408       1.01492416
C       -1.59354212      -0.20902681       0.44744448
C       -0.91308740       0.39864454      -0.63919681
C        0.22257948      -0.50840000      -1.04837401
H        0.94316676       1.35588800       1.56721391
H        1.21215241       2.06620488      -0.03582068
H        2.31372495      -0.31173545      -0.21858852
H        0.80852534      -2.28507525       0.23419736
H       -0.92118144       0.98067528       0.83264953
H       -2.66082918      -0.35386546       0.53998402
H       -1.41625523       1.08179085      -1.30949719
H        0.36786781      -0.86502814      -2.05840941
15
Frame=8 idx=008443 GeodesicLength=0.7307118650566117 rxn_smarts="[C:1]1([H:8])([H:9])[C@@:2]2([H:10])[C@@:3]3([H:11])[O:4][C:5]([H:12])([H:13])[C@:6]1([H:14])[C@@:7]23[H:15]>>[C:1]([C@@:2]1([H:10])[C@@:3]2([H:11])[O:4][C:5]([H:13])=[C:6]([H:14])[C@@:7]12[H:15])([H:8])([H:9])[H:12]"
C        0.75862313       1.21995468       0.49499290
C        1.26336343      -0.10119484      -0.03108510
C        0.37821426      -1.29490375       0.20712455
O       -0.78019920      -1.17993216       1.01123796
C       -1.58861099      -0.19915705       0.44990114
C       -0.91124807       0.39991106      -0.64433838
C        0.22078723      -0.51229124      -1.05117782
H        0.95124176       1.35308902       1.56355159
H        1.19983782       2.06412685      -0.03699344
H        2.31184013      -0.30749244      -0.21819961
H        0.80801725      -2.28616033       0.23573572
H       -0.91080064       0.99370714       0.87195745
H       -2.65614989      -0.35602287       0.52635263
H       -1.41757206       1.07623684      -1.31927851
H        0.37265584      -0.86987091      -2.05978109
15
Frame=9 idx=008443 GeodesicLength=0.8223077792006757 rxn_smarts="[C:1]1([H:8])([H:9])[C@@:2]2([H:10])[C@@:3]3([H:11])[O:4][C:5]([H:12])([H:13])[C@:6]1([H:14])[C@@:7]23[H:15]>>[C:1]([C@@:2]1([H:10])[C@@:3]2([H:11])[O:4][C:5]([H:13])=[C:6]([H:14])[C@@:7]12[H:15])([H:8])([H:9])[H:12]"
C        0.74725797       1.21718590       0.49446680
C        1.26037973      -0.10220144      -0.03191948
C        0.37675220      -1.29640233       0.20605259
O       -0.78299163      -1.18104632       1.00658284
C       -1.58347911      -0.18874451       0.45213031
C       -0.90953210       0.40068792      -0.65033415
C        0.21922697      -0.51634052      -1.05419477
H        0.95951172       1.35078965       1.55930747
H        1.18652082       2.06205545      -0.03841235
H        2.30977694      -0.30291802      -0.21737039
H        0.80757169      -2.28718768       0.23736448
H       -0.89935714       1.00497968       0.91390743
H       -2.65095184      -0.35633410       0.51339966
H       -1.41881922       1.07037348      -1.32975336
H        0.37813297      -0.87489716      -2.06122706
15
Frame=10 idx=008443 GeodesicLength=0.9139184199424855 rxn_smarts="[C:1]1([H:8])([H:9])[C@@:2]2([H:10])[C@@:3]3([H:11])[O:4][C:5]([H:12])([H:13])[C@:6]1([H:14])[C@@:7]23[H:15]>>[C:1]([C@@:2]1([H:10])[C@@:3]2([H:11])[O:4][C:5]([H:13])=[C:6]([H:14])[C@@:7]12[H:15])([H:8])([H:9])[H:12]"
C        0.73518812       1.21441013       0.49395260
C        1.25716316      -0.10307075      -0.03265256
C        0.37519034      -1.29791942       0.20487142
O       -0.78649828      -1.18254581       1.00093592
C       -1.57816703      -0.17782740       0.45405777
C       -0.90794291       0.40098065      -0.65725537
C        0.21792706      -0.52056986      -1.05746178
H        0.96799352       1.34906301       1.55443250
H        1.17216782       2.06000151      -0.04007009
H        2.30754620      -0.29800754      -0.21608074
H        0.80720308      -2.28813903       0.23914216
H       -0.88666574       1.01428127       0.95865543
H       -2.64546309      -0.35475332       0.50120680
H       -1.41999709       1.06424659      -1.34095773
H        0.38435485      -0.88015002      -2.06277634
15
Frame=11 idx=008443 GeodesicLength=1.005519253971154 rxn_smarts="[C:1]1([H:8])([H:9])[C@@:2]2([H:10])[C@@:3]3([H:11])[O:4][C:5]([H:12])([H:13])[C@:6]1([H:14])[C@@:7]23[H:15]>>[C:1]([C@@:2]1([H:10])[C@@:3]2([H:11])[O:4][C:5]([H:13])=[C:6]([H:14])[C@@:7]12[H:15])([H:8])([H:9])[H:12]"
C        0.72233290       1.21162570       0.49347042
C        1.25368971      -0.10377634      -0.03327521
C        0.37351232      -1.29944274       0.20358220
O       -0.79080300      -1.18444270       0.99419068
C       -1.57261916      -0.16630700       0.45568990
C       -0.90649558       0.40073980      -0.66517517
C        0.21691525      -0.52499096      -1.06099352
H        0.97671159       1.34797933       1.54884843
H        1.15664541       2.05796839      -0.04198580
H        2.30512771      -0.29271331      -0.21428572
H        0.80690225      -2.28899194       0.24111071
H       -0.87248516       1.02129099       1.00640803
H       -2.63971093      -0.35108876       0.48982433
H       -1.42111386       1.05779755      -1.35298976
H        0.39139054      -0.88564800      -2.06441953
15
Frame=12 idx=008443 GeodesicLength=1.0970825317837 rxn_smarts="[C:1]1([H:8])([H:9])[C@@:2]2([H:10])[C@@:3]3([H:11])[O:4][C:5]([H:12])([H:13])[C@:6]1([H:14])[C@@:7]23[H:15]>>[C:1]([C@@:2]1([H:10])[C@@:3]2([H:11])[O:4][C:5]([H:13])=[C:6]([H:14])[C@@:7]12[H:15])([H:8])([H:9])[H:12]"
C        0.70859635       1.20882957       0.49305093
C        1.24993005      -0.10428744      -0.03377538
C        0.37169827      -1.30095628       0.20218918
O       -0.79599847      -1.18673634       0.98622884
C       -1.56677563      -0.15407295       0.45703258
C       -0.90521048       0.39991088      -0.67417694
C        0.21622409      -0.52961441      -1.06480695
H        0.98568045       1.34762799       1.54246975
H        1.13979566       2.05595758      -0.04416845
H        2.30249468      -0.28698295      -0.21193294
H        0.80665680      -2.28972019       0.24332271
H       -0.85650540       1.02560801       1.05734730
H       -2.63372602      -0.34511400       0.47932697
H       -1.42218229       1.05095975      -1.36595988
H        0.39932193      -0.89140921      -2.06614773
15
Frame=13 idx=008443 GeodesicLength=1.1885603634666313 rxn_smarts="[C:1]1([H:8])([H:9])[C@@:2]2([H:10])[C@@:3]3([H:11])[O:4][C:5]([H:12])([H:13])[C@:6]1([H:14])[C@@:7]23[H:15]>>[C:1]([C@@:2]1([H:10])[C@@:3]2([H:11])[O:4][C:5]([H:13])=[C:6]([H:14])[C@@:7]12[H:15])([H:8])([H:9])[H:12]"
C        0.69389271       1.20602097       0.49272895
C        1.24585556      -0.10457367      -0.03413889
C        0.36972128      -1.30243880       0.20070387
O       -0.80217500      -1.18940308       0.97693976
C       -1.56057359      -0.14101560       0.45809597
C       -0.90411068       0.39844318      -0.68432923
C        0.21587971      -0.53444392      -1.06891128
H        0.99490258       1.34810339       1.53521432
H        1.12146750       2.05397317      -0.04663158
H        2.29961829      -0.28077056      -0.20896940
H        0.80643860      -2.29029479       0.24584153
H       -0.83839658       1.02681230       1.11158934
H       -2.62752114      -0.33664167       0.46976652
H       -1.42321733       1.04367391      -1.37995650
H        0.40821809      -0.89744484      -2.06794339
15
Frame=14 idx=008443 GeodesicLength=1.2798663457331023 rxn_smarts="[C:1]1([H:8])([H:9])[C@@:2]2([H:10])[C@@:3]3([H:11])[O:4][C:5]([H:12])([H:13])[C@:6]1([H:14])[C@@:7]23[H:15]>>[C:1]([C@@:2]1([H:10])[C@@:3]2([H:11])[O:4][C:5]([H:13])=[C:6]([H:14])[C@@:7]12[H:15])([H:8])([H:9])[H:12]"
C        0.67814609       1.20319598       0.49255834
C        1.24144244      -0.10460363      -0.03435190
C        0.36756004      -1.30386853       0.19913799
O       -0.80940600      -1.19240104       0.96624309
C       -1.55395168      -0.12704261       0.45889194
C       -0.90321895       0.39629227      -0.69567690
C        0.21590636      -0.53947622      -1.07330872
H        1.00434893       1.34949300       1.52700633
H        1.10152090       2.05201259      -0.04935742
H        2.29647306      -0.27403192      -0.20535150
H        0.80621750      -2.29068701       0.24872965
H       -0.81780853       1.02448549       1.16910930
H       -2.62112506      -0.32548540       0.46120766
H       -1.42424336       1.03587160      -1.39505613
H        0.41813827      -0.90375457      -2.06978171
15
Frame=15 idx=008443 GeodesicLength=1.371003333243813 rxn_smarts="[C:1]1([H:8])([H:9])[C@@:2]2([H:10])[C@@:3]3([H:11])[O:4][C:5]([H:12])([H:13])[C@:6]1([H:14])[C@@:7]23[H:15]>>[C:1]([C@@:2]1([H:10])[C@@:3]2([H:11])[O:4][C:5]([H:13])=[C:6]([H:14])[C@@:7]12[H:15])([H:8])([H:9])[H:12]"
C        0.66129401       1.20035090       0.49259691
C        1.23666645      -0.10434572      -0.03440108
C        0.36518675      -1.30521848       0.19751142
O       -0.81775147      -1.19566082       0.95408440
C       -1.54685423      -0.11207221       0.45942966
C       -0.90255946       0.39341788      -0.70824580
C        0.21632062      -0.54470333      -1.07799278
H        1.01396738       1.35187743       1.51778144
H        1.07983053       2.05007342      -0.05233089
H        2.29302971      -0.26672827      -0.20104089
H        0.80595160      -2.29086606       0.25205702
H       -0.79437378       1.01822212       1.22980343
H       -2.61455143      -0.31151214       0.45368044
H       -1.42528155       1.02749986      -1.41130405
H        0.42912488      -0.91033458      -2.07162924
15
Frame=16 idx=008443 GeodesicLength=1.4620141423980946 rxn_smarts="[C:1]1([H:8])([H:9])[C@@:2]2([H:10])[C@@:3]3([H:11])[O:4][C:5]([H:12])([H:13])[C@:6]1([H:14])[C@@:7]23[H:15]>>[C:1]([C@@:2]1([H:10])[C@@:3]2([H:11])[O:4][C:5]([H:13])=[C:6]([H:14])[C@@:7]12[H:15])([H:8])([H:9])[H:12]"
C        0.64329498       1.19747971       0.49292027
C        1.23151225      -0.10377110      -0.03427193
C        0.36257375      -1.30645914       0.19585034
O       -0.82725253      -1.19908140       0.94045915
C       -1.53923649      -0.09604954       0.45971808
C       -0.90216137       0.38979321      -0.72202583
C        0.21712887      -0.55010798      -1.08294805
H        1.02366842       1.35532202       1.50749300
H        1.05629738       2.04815030      -0.05550773
H        2.28926855      -0.25883171      -0.19600896
H        0.80559029      -2.29080248       0.25589380
H       -0.76770732       1.00766017       1.29339384
H       -2.60781131      -0.29464897       0.44719483
H       -1.42636179       1.01851581      -1.42871071
H        0.44119631      -0.91716890      -2.07345009
