12
Frame=0 idx=001069 GeodesicLength=0.0 rxn_smarts="[N:1]([c:2]1[c:3]([H:9])[c:4]([H:10])[c:5]([H:11])[n:6]1[H:12])([H:7])[H:8]>>[N:1](=[C:2]1\[C:3]([H:8])([H:9])[C:4]([H:10])=[C:5]([H:11])[N:6]1[H:12])\[H:7]"
N        2.12771514      -0.39898981       0.00768617
C        0.77974390      -0.19937350      -0.18023424
C        0.03244258       1.01830076      -0.23750212
C       -1.34672451       0.67128940      -0.03926404
C       -1.41024326      -0.66906165       0.13472532
N       -0.13065361      -1.18851894       0.04262039
H        2.63948890       0.32665262      -0.48683892
H        1.14625801       0.55757795       0.75578412
H        0.44622118       1.97136532      -0.52743621
H       -2.18478567       1.34894347      -0.05188058
H       -2.25486766      -1.31177063       0.32149983
H        0.15540500      -2.12641502       0.26084032
12
Frame=1 idx=001069 GeodesicLength=0.07776276040620142 rxn_smarts="[N:1]([c:2]1[c:3]([H:9])[c:4]([H:10])[c:5]([H:11])[n:6]1[H:12])([H:7])[H:8]>>[N:1](=[C:2]1\[C:3]([H:8])([H:9])[C:4]([H:10])=[C:5]([H:11])[N:6]1[H:12])\[H:7]"
N        2.12374824      -0.39364688       0.02184858
C        0.77910234      -0.20105085      -0.18078582
C        0.03391244       1.01991817      -0.22601190
C       -1.34693159       0.67101181      -0.03231573
C       -1.41152415      -0.67089871       0.12753193
N       -0.13194200      -1.19039510       0.04085809
H        2.64145124       0.31562062      -0.48936654
H        1.16050910       0.58045198       0.76641225
H        0.43987394       1.96333173      -0.55649590
H       -2.18420357       1.34979500      -0.03300928
H       -2.25706538      -1.31430669       0.30814422
H        0.15306941      -2.12983108       0.25319009
12
Frame=2 idx=001069 GeodesicLength=0.15530944602217678 rxn_smarts="[N:1]([c:2]1[c:3]([H:9])[c:4]([H:10])[c:5]([H:11])[n:6]1[H:12])([H:7])[H:8]>>[N:1](=[C:2]1\[C:3]([H:8])([H:9])[C:4]([H:10])=[C:5]([H:11])[N:6]1[H:12])\[H:7]"
N        2.11949197      -0.38812815       0.03629430
C        0.77841905      -0.20285320      -0.18215181
C        0.03548841       1.02146587      -0.21514941
C       -1.34696402       0.67081646      -0.02464587
C       -1.41273086      -0.67257952       0.12045234
N       -0.13327707      -1.19229756       0.03875915
H        2.64365729       0.30401278      -0.49110900
H        1.17517093       0.60450541       0.77624373
H        0.43272217       1.95433811      -0.58485790
H       -2.18346347       1.35049428      -0.01393409
H       -2.25925142      -1.31664710       0.29446166
H        0.15073703      -2.13312738       0.24563690
12
Frame=3 idx=001069 GeodesicLength=0.23274781878794604 rxn_smarts="[N:1]([c:2]1[c:3]([H:9])[c:4]([H:10])[c:5]([H:11])[n:6]1[H:12])([H:7])[H:8]>>[N:1](=[C:2]1\[C:3]([H:8])([H:9])[C:4]([H:10])=[C:5]([H:11])[N:6]1[H:12])\[H:7]"
N        2.11488958      -0.38240209       0.05104064
C        0.77768972      -0.20483065      -0.18443989
C        0.03716892       1.02289033      -0.20501252
C       -1.34680930       0.67065965      -0.01623932
C       -1.41386061      -0.67411500       0.11360168
N       -0.13466345      -1.19425611       0.03633278
H        2.64613044       0.29175156      -0.49202583
H        1.19026701       0.62987196       0.78513386
H        0.42479263       1.94452712      -0.61236955
H       -2.18254606       1.35104170       0.00540420
H       -2.26146461      -1.31882074       0.28029002
H        0.14840574      -2.13631773       0.23828392
12
Frame=4 idx=001069 GeodesicLength=0.3102170986152636 rxn_smarts="[N:1]([c:2]1[c:3]([H:9])[c:4]([H:10])[c:5]([H:11])[n:6]1[H:12])([H:7])[H:8]>>[N:1](=[C:2]1\[C:3]([H:8])([H:9])[C:4]([H:10])=[C:5]([H:11])[N:6]1[H:12])\[H:7]"
N        2.10987240      -0.37647115       0.06611128
C        0.77690817      -0.20701218      -0.18774381
C        0.03896010       1.02415423      -0.19566937
C       -1.34648107       0.67050540      -0.00708115
C       -1.41491810      -0.67551990       0.10710321
N       -0.13611257      -1.19629027       0.03356635
H        2.64889248       0.27875839      -0.49207715
H        1.20582000       0.65666684       0.79301463
H        0.41615478       1.93408592      -0.63893369
H       -2.18146542       1.35143212       0.02499432
H       -2.26369633      -1.32088081       0.26557118
H        0.14606556      -2.13942859       0.23114418
12
Frame=5 idx=001069 GeodesicLength=0.3876624742450164 rxn_smarts="[N:1]([c:2]1[c:3]([H:9])[c:4]([H:10])[c:5]([H:11])[n:6]1[H:12])([H:7])[H:8]>>[N:1](=[C:2]1\[C:3]([H:8])([H:9])[C:4]([H:10])=[C:5]([H:11])[N:6]1[H:12])\[H:7]"
N        2.10429977      -0.37024442       0.08156844
C        0.77607727      -0.20945112      -0.19238209
C        0.04087998       1.02524278      -0.18689333
C       -1.34591574       0.67026870       0.00238164
C       -1.41593442      -0.67685329       0.10036053
N       -0.13767156      -1.19851092       0.02950638
H        2.65204567       0.26516851      -0.49054093
H        1.22167765       0.68466167       0.79987162
H        0.40682547       1.92322345      -0.66361482
H       -2.18027297       1.35151962       0.04325985
H       -2.26565323      -1.32239348       0.25344832
H        0.14364212      -2.14263150       0.22303438
12
Frame=6 idx=001069 GeodesicLength=0.46529233125419667 rxn_smarts="[N:1]([c:2]1[c:3]([H:9])[c:4]([H:10])[c:5]([H:11])[n:6]1[H:12])([H:7])[H:8]>>[N:1](=[C:2]1\[C:3]([H:8])([H:9])[C:4]([H:10])=[C:5]([H:11])[N:6]1[H:12])\[H:7]"
N        2.09809641      -0.36378544       0.09744982
C        0.77519406      -0.21214507      -0.19829662
C        0.04293462       1.02611435      -0.17876570
C       -1.34516290       0.66992922       0.01241513
C       -1.41690707      -0.67811672       0.09380927
N       -0.13933211      -1.20088969       0.02456723
H        2.65555028       0.25080992      -0.48772509
H        1.23799631       0.71414330       0.80568404
H        0.39694383       1.91214033      -0.68692203
H       -2.17897810       1.35138439       0.06096087
H       -2.26749358      -1.32370766       0.24233341
H        0.14115825      -2.14587691       0.21448966
12
Frame=7 idx=001069 GeodesicLength=0.5430548071534493 rxn_smarts="[N:1]([c:2]1[c:3]([H:9])[c:4]([H:10])[c:5]([H:11])[n:6]1[H:12])([H:7])[H:8]>>[N:1](=[C:2]1\[C:3]([H:8])([H:9])[C:4]([H:10])=[C:5]([H:11])[N:6]1[H:12])\[H:7]"
N        2.09109132      -0.35697317       0.11380062
C        0.77425555      -0.21515050      -0.20563867
C        0.04512555       1.02672646      -0.17115992
C       -1.34415205       0.66941927       0.02280237
C       -1.41784628      -0.67933778       0.08732822
N       -0.14111938      -1.20350303       0.01833849
H        2.65943997       0.23565065      -0.48323265
H        1.25479222       0.74518193       0.81026809
H        0.38648878       1.90093108      -0.70862656
H       -2.17749979       1.35099880       0.07782334
H       -2.26916841      -1.32472101       0.23307809
H        0.13859252      -2.14922270       0.20521858
12
Frame=8 idx=001069 GeodesicLength=0.6208753343382245 rxn_smarts="[N:1]([c:2]1[c:3]([H:9])[c:4]([H:10])[c:5]([H:11])[n:6]1[H:12])([H:7])[H:8]>>[N:1](=[C:2]1\[C:3]([H:8])([H:9])[C:4]([H:10])=[C:5]([H:11])[N:6]1[H:12])\[H:7]"
N        2.08316563      -0.34975088       0.13071141
C        0.77325404      -0.21849563      -0.21441593
C        0.04746810       1.02704491      -0.16406896
C       -1.34285306       0.66873014       0.03374145
C       -1.41875826      -0.68055234       0.08098282
N       -0.14304970      -1.20637196       0.01088448
H        2.66370397       0.21955574      -0.47695369
H        1.27220933       0.77801962       0.81335017
H        0.37543845       1.88964685      -0.72895565
H       -2.17578077       1.35040295       0.09422384
H       -2.27074061      -1.32555846       0.22511951
H        0.13594288      -2.15267095       0.19538054
12
Frame=9 idx=001069 GeodesicLength=0.6984872442468055 rxn_smarts="[N:1]([c:2]1[c:3]([H:9])[c:4]([H:10])[c:5]([H:11])[n:6]1[H:12])([H:7])[H:8]>>[N:1](=[C:2]1\[C:3]([H:8])([H:9])[C:4]([H:10])=[C:5]([H:11])[N:6]1[H:12])\[H:7]"
N        2.07405620      -0.34209294       0.14877969
C        0.77230302      -0.22202010      -0.22437545
C        0.04998667       1.02710979      -0.15769633
C       -1.34124616       0.66778902       0.04563573
C       -1.41959750      -0.68173034       0.07479092
N       -0.14506490      -1.20934691       0.00223401
H        2.66813644       0.20205913      -0.46843374
H        1.29041786       0.81319753       0.81456612
H        0.36369061       1.87797875      -0.74907871
H       -2.17374083       1.34958204       0.11135509
H       -2.27218338      -1.32635572       0.21766320
H        0.13324198      -2.15617025       0.18455948
12
Frame=10 idx=001069 GeodesicLength=0.7760762927241358 rxn_smarts="[N:1]([c:2]1[c:3]([H:9])[c:4]([H:10])[c:5]([H:11])[n:6]1[H:12])([H:7])[H:8]>>[N:1](=[C:2]1\[C:3]([H:8])([H:9])[C:4]([H:10])=[C:5]([H:11])[N:6]1[H:12])\[H:7]"
N        2.06363338      -0.33381284       0.16766544
C        0.77132510      -0.22590710      -0.23581693
C        0.05268426       1.02683543      -0.15180990
C       -1.33926701       0.66656544       0.05812762
C       -1.42040787      -0.68294436       0.06861036
N       -0.14723779      -1.21258783      -0.00783731
H        2.67286312       0.18322518      -0.45749983
H        1.30953773       0.85069779       0.81356612
H        0.35123144       1.86622043      -0.76810476
H       -2.17128421       1.34852387       0.12877248
H       -2.27353758      -1.32705733       0.21117762
H        0.13045943      -2.15975868       0.17314909
12
Frame=11 idx=001069 GeodesicLength=0.8536950512185798 rxn_smarts="[N:1]([c:2]1[c:3]([H:9])[c:4]([H:10])[c:5]([H:11])[n:6]1[H:12])([H:7])[H:8]>>[N:1](=[C:2]1\[C:3]([H:8])([H:9])[C:4]([H:10])=[C:5]([H:11])[N:6]1[H:12])\[H:7]"
N        2.05166760      -0.32475563       0.18755605
C        0.77035433      -0.23016534      -0.24869616
C        0.05558481       1.02619707      -0.14641047
C       -1.33686547       0.66499156       0.07125787
C       -1.42118531      -0.68419575       0.06241749
N       -0.14956414      -1.21609284      -0.01934319
H        2.67779436       0.16277297      -0.44380224
H        1.32976842       0.89088960       0.80990007
H        0.33796410       1.85430827      -0.78625678
H       -2.16829297       1.34719851       0.14699894
H       -2.27482418      -1.32770184       0.20532211
H        0.12759846      -2.16344658       0.16105631
12
Frame=12 idx=001069 GeodesicLength=0.9313059790741391 rxn_smarts="[N:1]([c:2]1[c:3]([H:9])[c:4]([H:10])[c:5]([H:11])[n:6]1[H:12])([H:7])[H:8]>>[N:1](=[C:2]1\[C:3]([H:8])([H:9])[C:4]([H:10])=[C:5]([H:11])[N:6]1[H:12])\[H:7]"
N        2.03806743      -0.31485838       0.20853460
C        0.76939016      -0.23476845      -0.26289209
C        0.05871711       1.02518531      -0.14149349
C       -1.33401579       0.66302156       0.08517858
C       -1.42193637      -0.68549453       0.05613460
N       -0.15205379      -1.21982416      -0.03217023
H        2.68284175       0.14052372      -0.42729389
H        1.35126322       0.93401413       0.80327107
H        0.32386302       1.84218698      -0.80373813
H       -2.16470564       1.34557492       0.16654001
H       -2.27609038      -1.32837491       0.19944868
H        0.12465928      -2.16718619       0.14848029
12
Frame=13 idx=001069 GeodesicLength=1.0088939974253486 rxn_smarts="[N:1]([c:2]1[c:3]([H:9])[c:4]([H:10])[c:5]([H:11])[n:6]1[H:12])([H:7])[H:8]>>[N:1](=[C:2]1\[C:3]([H:8])([H:9])[C:4]([H:10])=[C:5]([H:11])[N:6]1[H:12])\[H:7]"
N        2.02253500      -0.30388045       0.23068250
C        0.76847662      -0.23974483      -0.27835484
C        0.06211879       1.02378509      -0.13695977
C       -1.33063989       0.66059709       0.09998855
C       -1.42265475      -0.68686866       0.04952468
N       -0.15470926      -1.22380273      -0.04641582
H        2.68784772       0.11622285      -0.40746637
H        1.37429204       0.98031211       0.79291811
H        0.30881256       1.82982903      -0.82054427
H       -2.16038681       1.34358766       0.18781586
H       -2.27734888      -1.32907311       0.19332895
H        0.12165687      -2.17096405       0.13548242
12
Frame=14 idx=001069 GeodesicLength=1.0862389111213253 rxn_smarts="[N:1]([c:2]1[c:3]([H:9])[c:4]([H:10])[c:5]([H:11])[n:6]1[H:12])([H:7])[H:8]>>[N:1](=[C:2]1\[C:3]([H:8])([H:9])[C:4]([H:10])=[C:5]([H:11])[N:6]1[H:12])\[H:7]"
N        2.00494520      -0.29163030       0.25397581
C        0.76764691      -0.24507240      -0.29494774
C        0.06579042       1.02202462      -0.13270600
C       -1.32669215       0.65764460       0.11563876
C       -1.42334589      -0.68829377       0.04246079
N       -0.15752314      -1.22800753      -0.06205718
H        2.69261871       0.08976173      -0.38391693
H        1.39903613       1.02970910       0.77817999
H        0.29275294       1.81724932      -0.83662726
H       -2.15522243       1.34112898       0.21113549
H       -2.27861643      -1.32976874       0.18674783
H        0.11860974      -2.17474562       0.12211643
12
Frame=15 idx=001069 GeodesicLength=1.163321975038238 rxn_smarts="[N:1]([c:2]1[c:3]([H:9])[c:4]([H:10])[c:5]([H:11])[n:6]1[H:12])([H:7])[H:8]>>[N:1](=[C:2]1\[C:3]([H:8])([H:9])[C:4]([H:10])=[C:5]([H:11])[N:6]1[H:12])\[H:7]"
N        1.98519348      -0.27791434       0.27830910
C        0.76693891      -0.25074447      -0.31248226
C        0.06977010       1.01992115      -0.12864035
C       -1.32214285       0.65411728       0.13214797
C       -1.42400697      -0.68975959       0.03475824
N       -0.16047647      -1.23241017      -0.07891499
H        2.69690583       0.06114062      -0.35638414
H        1.42566789       1.08203195       0.75839545
H        0.27567448       1.80442659      -0.85196730
H       -2.14912169       1.33812893       0.23697651
H       -2.27994606      -1.33046760       0.17911677
H        0.11554335      -2.17847035       0.10868500
12
Frame=16 idx=001069 GeodesicLength=1.2401761185602287 rxn_smarts="[N:1]([c:2]1[c:3]([H:9])[c:4]([H:10])[c:5]([H:11])[n:6]1[H:12])([H:7])[H:8]>>[N:1](=[C:2]1\[C:3]([H:8])([H:9])[C:4]([H:10])=[C:5]([H:11])[N:6]1[H:12])\[H:7]"
N        1.96332035      -0.26256757       0.30330549
C        0.76637661      -0.25674294      -0.33074501
C        0.07409553       1.01750437      -0.12458556
C       -1.31700751       0.64999343       0.14939470
C       -1.42463301      -0.69122975       0.02636734
N       -0.16353590      -1.23697372      -0.09670947
H        2.70038123       0.03063354      -0.32480204
H        1.45428139       1.13665168       0.73316319
H        0.25769097       1.79143137      -0.86631128
H       -2.14208719       1.33453326       0.26534724
H       -2.28137503      -1.33115949       0.17006420
H        0.11249256      -2.18207419       0.09551120
