8
Frame=0 idx=005825 GeodesicLength=0.0 rxn_smarts="[N:1]([C:2](=[O:3])[N:4]([H:7])[H:8])([H:5])[H:6]>>[N:1](=[C:2]=[O:3])[H:5].[N:4]([H:6])([H:7])[H:8]"
N        1.16016317      -0.47251021       0.04512846
C        0.27004472       0.40785770       0.46004216
O        0.16275703       1.33050349       1.21907710
N       -0.89068930      -0.10872410      -0.44429841
H        2.09036898      -0.44523752       0.43591500
H        0.09063648      -0.83915069      -0.69054910
H       -1.67891555      -0.45632537       0.08838596
H       -1.20436550       0.58358670      -1.11370116
8
Frame=1 idx=005825 GeodesicLength=0.08678876393388327 rxn_smarts="[N:1]([C:2](=[O:3])[N:4]([H:7])[H:8])([H:5])[H:6]>>[N:1](=[C:2]=[O:3])[H:5].[N:4]([H:6])([H:7])[H:8]"
N        1.17570057      -0.44098413       0.02541097
C        0.27836343       0.41619828       0.46773373
O        0.17976316       1.36100299       1.19839998
N       -0.90020645      -0.10932759      -0.44547106
H        2.07253994      -0.50079027       0.48335346
H        0.11054276      -0.82154430      -0.72107454
H       -1.67221539      -0.49079238       0.08754672
H       -1.24448802       0.58623739      -1.09589927
8
Frame=2 idx=005825 GeodesicLength=0.173570964386492 rxn_smarts="[N:1]([C:2](=[O:3])[N:4]([H:7])[H:8])([H:5])[H:6]>>[N:1](=[C:2]=[O:3])[H:5].[N:4]([H:6])([H:7])[H:8]"
N        1.19049083      -0.41091844       0.01297269
C        0.28679086       0.42551109       0.47756623
O        0.19585198       1.39266569       1.17758142
N       -0.90844987      -0.11015563      -0.44625146
H        2.04907869      -0.55680210       0.52114296
H        0.13253870      -0.80204774      -0.75001487
H       -1.66397192      -0.52550907       0.08479488
H       -1.28232926       0.58725621      -1.07779185
8
Frame=3 idx=005825 GeodesicLength=0.26066292266108215 rxn_smarts="[N:1]([C:2](=[O:3])[N:4]([H:7])[H:8])([H:5])[H:6]>>[N:1](=[C:2]=[O:3])[H:5].[N:4]([H:6])([H:7])[H:8]"
N        1.20380644      -0.38446147       0.00796018
C        0.29529476       0.43531758       0.48927742
O        0.21161159       1.42500215       1.15622157
N       -0.91594482      -0.11109274      -0.44678105
H        2.02246235      -0.61104462       0.55057338
H        0.15592316      -0.78067853      -0.77801690
H       -1.65475117      -0.56000444       0.08020105
H       -1.31840230       0.58696207      -1.05943565
8
Frame=4 idx=005825 GeodesicLength=0.34777231483044246 rxn_smarts="[N:1]([C:2](=[O:3])[N:4]([H:7])[H:8])([H:5])[H:6]>>[N:1](=[C:2]=[O:3])[H:5].[N:4]([H:6])([H:7])[H:8]"
N        1.21532716      -0.36240443       0.00916671
C        0.30396739       0.44529543       0.50240264
O        0.22746528       1.45712928       1.13433944
N       -0.92310932      -0.11198081      -0.44718185
H        1.99459305      -0.66185715       0.57340286
H        0.17977794      -0.75809954      -0.80493006
H       -1.64507201      -0.59383691       0.07376065
H       -1.35294949       0.58575413      -1.04096039
8
Frame=5 idx=005825 GeodesicLength=0.43501510057637494 rxn_smarts="[N:1]([C:2](=[O:3])[N:4]([H:7])[H:8])([H:5])[H:6]>>[N:1](=[C:2]=[O:3])[H:5].[N:4]([H:6])([H:7])[H:8]"
N        1.22547389      -0.34369762       0.01471062
C        0.31274990       0.45529138       0.51688253
O        0.24351418       1.48866518       1.11203969
N       -0.93019650      -0.11282724      -0.44749888
H        1.96617925      -0.70943668       0.59110427
H        0.20375602      -0.73501822      -0.83031643
H       -1.63531198      -0.62671098       0.06559624
H       -1.38616476       0.58373418      -1.02251804
8
Frame=6 idx=005825 GeodesicLength=0.5223182094354217 rxn_smarts="[N:1]([C:2](=[O:3])[N:4]([H:7])[H:8])([H:5])[H:6]>>[N:1](=[C:2]=[O:3])[H:5].[N:4]([H:6])([H:7])[H:8]"
N        1.23447765      -0.32766548       0.02340637
C        0.32175319       0.46545456       0.53239262
O        0.25983205       1.51938760       1.08938819
N       -0.93732174      -0.11361980      -0.44775211
H        1.93734268      -0.75415223       0.60486709
H        0.22775547      -0.71171235      -0.85413069
H       -1.62547267      -0.65865526       0.05590167
H       -1.41836663       0.58096295      -1.00407313
8
Frame=7 idx=005825 GeodesicLength=0.6096197400035561 rxn_smarts="[N:1]([C:2](=[O:3])[N:4]([H:7])[H:8])([H:5])[H:6]>>[N:1](=[C:2]=[O:3])[H:5].[N:4]([H:6])([H:7])[H:8]"
N        1.24249330      -0.31378895       0.03445893
C        0.33098631       0.47578933       0.54883143
O        0.27640794       1.54913090       1.06644149
N       -0.94456698      -0.11433068      -0.44799546
H        1.90828204      -0.79617761       0.61534941
H        0.25171975      -0.68858792      -0.87623334
H       -1.61559672      -0.68959055       0.04477084
H       -1.44972565       0.57755548      -0.98562330
8
Frame=8 idx=005825 GeodesicLength=0.6970588982248207 rxn_smarts="[N:1]([C:2](=[O:3])[N:4]([H:7])[H:8])([H:5])[H:6]>>[N:1](=[C:2]=[O:3])[H:5].[N:4]([H:6])([H:7])[H:8]"
N        1.25007593      -0.30096642       0.04729189
C        0.34077636       0.48711344       0.56571491
O        0.29330293       1.57855602       1.04281911
N       -0.95171075      -0.11518619      -0.44801848
H        1.87681014      -0.83767365       0.62345384
H        0.27638687      -0.66446206      -0.89737370
H       -1.60474723      -0.72037366       0.03267801
H       -1.48089426       0.57299253      -0.96656558
8
Frame=9 idx=005825 GeodesicLength=0.7846443636631077 rxn_smarts="[N:1]([C:2](=[O:3])[N:4]([H:7])[H:8])([H:5])[H:6]>>[N:1](=[C:2]=[O:3])[H:5].[N:4]([H:6])([H:7])[H:8]"
N        1.25706565      -0.28947178       0.06179201
C        0.35111193       0.49921992       0.58310487
O        0.31064529       1.60742730       1.01854099
N       -0.95888205      -0.11608307      -0.44789887
H        1.84350474      -0.87791423       0.62929720
H        0.30154736      -0.63981716      -0.91732623
H       -1.59310183      -0.75087297       0.01936958
H       -1.51189109       0.56751201      -0.94687955
8
Frame=10 idx=005825 GeodesicLength=0.872338192942854 rxn_smarts="[N:1]([C:2](=[O:3])[N:4]([H:7])[H:8])([H:5])[H:6]>>[N:1](=[C:2]=[O:3])[H:5].[N:4]([H:6])([H:7])[H:8]"
N        1.26339956      -0.27930552       0.07769725
C        0.36195184       0.51190505       0.60106733
O        0.32842764       1.63543982       0.99378431
N       -0.96620333      -0.11698520      -0.44769062
H        1.80897760      -0.91628681       0.63293485
H        0.32703066      -0.61527367      -0.93585445
H       -1.58100340      -0.78076628       0.00476046
H       -1.54258056       0.56127261      -0.92669914
8
Frame=11 idx=005825 GeodesicLength=0.9601376582353223 rxn_smarts="[N:1]([C:2](=[O:3])[N:4]([H:7])[H:8])([H:5])[H:6]>>[N:1](=[C:2]=[O:3])[H:5].[N:4]([H:6])([H:7])[H:8]"
N        1.26909513      -0.27033711       0.09478133
C        0.37330249       0.52510491       0.61959759
O        0.34665252       1.66244492       0.96862163
N       -0.97374537      -0.11790535      -0.44742461
H        1.77343139      -0.95259302       0.63452867
H        0.35284045      -0.59113771      -0.95293561
H       -1.56860742      -0.80991002      -0.01114628
H       -1.57296919       0.55433339      -0.90602272
8
Frame=12 idx=005825 GeodesicLength=1.047977634568499 rxn_smarts="[N:1]([C:2](=[O:3])[N:4]([H:7])[H:8])([H:5])[H:6]>>[N:1](=[C:2]=[O:3])[H:5].[N:4]([H:6])([H:7])[H:8]"
N        1.27411438      -0.26257449       0.11276634
C        0.38523063       0.53873468       0.63860478
O        0.36530299       1.68822019       0.94324467
N       -0.98164584      -0.11877042      -0.44708168
H        1.73735827      -0.98642891       0.63437895
H        0.37883981      -0.56784356      -0.96856337
H       -1.55613894      -0.83817097      -0.02843662
H       -1.60306130       0.54683347      -0.88491307
8
Frame=13 idx=005825 GeodesicLength=1.135858207892207 rxn_smarts="[N:1]([C:2](=[O:3])[N:4]([H:7])[H:8])([H:5])[H:6]>>[N:1](=[C:2]=[O:3])[H:5].[N:4]([H:6])([H:7])[H:8]"
N        1.27846860      -0.25585293       0.13148662
C        0.39769002       0.55270525       0.65810227
O        0.38431702       1.71263088       0.91776566
N       -0.98997894      -0.11960496      -0.44678176
H        1.70114542      -1.01765335       0.63262274
H        0.40507560      -0.54575955      -0.98276414
H       -1.54381813      -0.86532533      -0.04704841
H       -1.63289960       0.53885999      -0.86338298
8
Frame=14 idx=005825 GeodesicLength=1.2237681324843228 rxn_smarts="[N:1]([C:2](=[O:3])[N:4]([H:7])[H:8])([H:5])[H:6]>>[N:1](=[C:2]=[O:3])[H:5].[N:4]([H:6])([H:7])[H:8]"
N        1.28217259      -0.25010116       0.15077005
C        0.41078307       0.56706383       0.67797687
O        0.40370843       1.73567226       0.89221293
N       -0.99881133      -0.12038766      -0.44649666
H        1.66480958      -1.04630259       0.62961132
H        0.43160912      -0.52492791      -0.99573324
H       -1.53163670      -0.89144317      -0.06705430
H       -1.66263475       0.53042641      -0.84128696
8
Frame=15 idx=005825 GeodesicLength=1.3117011120588464 rxn_smarts="[N:1]([C:2](=[O:3])[N:4]([H:7])[H:8])([H:5])[H:6]>>[N:1](=[C:2]=[O:3])[H:5].[N:4]([H:6])([H:7])[H:8]"
N        1.28523179      -0.24523325       0.17048341
C        0.42457872       0.58182796       0.69816481
O        0.42347992       1.75733991       0.86658980
N       -1.00819865      -0.12112193      -0.44623580
H        1.62837787      -1.07242172       0.62563299
H        0.45853455      -0.50537757      -1.00765072
H       -1.51960665      -0.91653843      -0.08851368
H       -1.69239755       0.52152502      -0.81847081
8
Frame=16 idx=005825 GeodesicLength=1.3996510573313556 rxn_smarts="[N:1]([C:2](=[O:3])[N:4]([H:7])[H:8])([H:5])[H:6]>>[N:1](=[C:2]=[O:3])[H:5].[N:4]([H:6])([H:7])[H:8]"
N        1.28764434      -0.24116799       0.19051253
C        0.43914838       0.59701496       0.71860943
O        0.44361752       1.77763410       0.84089960
N       -1.01819591      -0.12180096      -0.44601931
H        1.59189107      -1.09605580       0.62094996
H        0.48595043      -0.48715883      -1.01867070
H       -1.50773796      -0.94060290      -0.11152109
H       -1.72231786       0.51213742      -0.79476043
