14
Frame=0 idx=011403 GeodesicLength=0.0 rxn_smarts="[O:1]=[C:2]1[C:3]([H:8])([H:9])[C:4]([H:10])=[C:5]([H:11])[C:6]([H:12])([H:13])[N:7]1[H:14]>>[O:1]1/[C:2](=[N:7]\[H:14])[C:3]([H:8])([H:9])[C:4]([H:10])=[C:5]([H:11])[C:6]1([H:12])[H:13]"
O        0.16771137       1.51721547      -1.03440375
C        0.48963063       1.02733212       0.10905668
C        1.42041262      -0.16939254       0.09835984
C        0.55229583      -1.36175774      -0.18842491
C       -0.74662475      -1.16541414      -0.32910649
C       -1.37084261       0.15501348      -0.22104156
N        0.04520979       1.40629328       1.29373127
H        1.92113196      -0.28423046       1.06059225
H        2.16853951      -0.04715469      -0.68743030
H        0.98559485      -2.35104951      -0.27749129
H       -1.45218985      -1.96310948      -0.55454377
H       -1.90762445       0.37899939       0.69083495
H       -1.76790858       0.60009196      -1.12317579
H       -0.50533632       2.25716282       1.16304290
14
Frame=1 idx=011403 GeodesicLength=0.04854716556514238 rxn_smarts="[O:1]=[C:2]1[C:3]([H:8])([H:9])[C:4]([H:10])=[C:5]([H:11])[C:6]([H:12])([H:13])[N:7]1[H:14]>>[O:1]1/[C:2](=[N:7]\[H:14])[C:3]([H:8])([H:9])[C:4]([H:10])=[C:5]([H:11])[C:6]1([H:12])[H:13]"
O        0.16900333       1.53257540      -1.02111630
C        0.50663773       1.03566893       0.11427586
C        1.42393175      -0.17026236       0.09248538
C        0.55157260      -1.36031304      -0.18925921
C       -0.74732911      -1.16311158      -0.32989729
C       -1.36702164       0.16181554      -0.22487871
N        0.03552999       1.39572184       1.29321764
H        1.93487069      -0.28471395       1.04924436
H        2.16751352      -0.05062551      -0.69819812
H        0.98165868      -2.35257664      -0.25851546
H       -1.45321019      -1.96340244      -0.54324765
H       -1.93115220       0.37101832       0.67467557
H       -1.77246142       0.59099449      -1.13212374
H       -0.49954375       2.25721100       1.17333768
14
Frame=2 idx=011403 GeodesicLength=0.0970386863268469 rxn_smarts="[O:1]=[C:2]1[C:3]([H:8])([H:9])[C:4]([H:10])=[C:5]([H:11])[C:6]([H:12])([H:13])[N:7]1[H:14]>>[O:1]1/[C:2](=[N:7]\[H:14])[C:3]([H:8])([H:9])[C:4]([H:10])=[C:5]([H:11])[C:6]1([H:12])[H:13]"
O        0.17038291       1.54760107      -1.00753193
C        0.52376329       1.04405899       0.11972901
C        1.42730600      -0.17105539       0.08666811
C        0.55075111      -1.35885014      -0.18983537
C       -0.74814933      -1.16082232      -0.33039641
C       -1.36337566       0.16862182      -0.22853959
N        0.02620741       1.38546099       1.29213602
H        1.94863582      -0.28521785       1.03771476
H        2.16620781      -0.05404905      -0.70897704
H        0.97765443      -2.35364777      -0.23965518
H       -1.45418128      -1.96355485      -0.53211771
H       -1.95465086       0.36289069       0.65765602
H       -1.77692308       0.58155022      -1.14084383
H       -0.49362858       2.25701358       1.18399315
14
Frame=3 idx=011403 GeodesicLength=0.14545719300416857 rxn_smarts="[O:1]=[C:2]1[C:3]([H:8])([H:9])[C:4]([H:10])=[C:5]([H:11])[C:6]([H:12])([H:13])[N:7]1[H:14]>>[O:1]1/[C:2](=[N:7]\[H:14])[C:3]([H:8])([H:9])[C:4]([H:10])=[C:5]([H:11])[C:6]1([H:12])[H:13]"
O        0.17186172       1.56223303      -0.99369930
C        0.54098762       1.05249101       0.12540450
C        1.43051714      -0.17177371       0.08096040
C        0.54982062      -1.35737373      -0.19010718
C       -0.74909817      -1.15855891      -0.33054452
C       -1.35992923       0.17541765      -0.23198671
N        0.01726903       1.37559117       1.29048223
H        1.96237547      -0.28574729       1.02606440
H        2.16462953      -0.05743357      -0.71968829
H        0.97362666      -2.35425982      -0.22114177
H       -1.45510537      -1.96358398      -0.52120436
H       -1.97805298       0.35462920       0.63982776
H       -1.78130597       0.57174781      -1.14929269
H       -0.48759607       2.25662114       1.19492554
14
Frame=4 idx=011403 GeodesicLength=0.19378802429242464 rxn_smarts="[O:1]=[C:2]1[C:3]([H:8])([H:9])[C:4]([H:10])=[C:5]([H:11])[C:6]([H:12])([H:13])[N:7]1[H:14]>>[O:1]1/[C:2](=[N:7]\[H:14])[C:3]([H:8])([H:9])[C:4]([H:10])=[C:5]([H:11])[C:6]1([H:12])[H:13]"
O        0.17344949       1.57641643      -0.97967234
C        0.55829125       1.06095621       0.13128764
C        1.43354945      -0.17241752       0.07541158
C        0.54877150      -1.35588501      -0.19003746
C       -0.75018781      -1.15633110      -0.33028731
C       -1.35670836       0.18219022      -0.23517928
N        0.00873993       1.36618924       1.28825544
H        1.97603711      -0.28630658       1.01435432
H        2.16279138      -0.06078522      -0.73025539
H        0.96961959      -2.35442762      -0.20318331
H       -1.45598521      -1.96350747      -0.51057225
H       -2.00129172       0.34624039       0.62124981
H       -1.78562741       0.56157890      -1.15742363
H       -0.48144918       2.25608912       1.20605218
14
Frame=5 idx=011403 GeodesicLength=0.24200746892766664 rxn_smarts="[O:1]=[C:2]1[C:3]([H:8])([H:9])[C:4]([H:10])=[C:5]([H:11])[C:6]([H:12])([H:13])[N:7]1[H:14]>>[O:1]1/[C:2](=[N:7]\[H:14])[C:3]([H:8])([H:9])[C:4]([H:10])=[C:5]([H:11])[C:6]1([H:12])[H:13]"
O        0.17515352       1.59011927      -0.96551795
C        0.57565372       1.06944359       0.13733142
C        1.43638816      -0.17299139       0.07006624
C        0.54760083      -1.35437940      -0.18961160
C       -0.75142140      -1.15414343      -0.32961269
C       -1.35371810       0.18892956      -0.23813812
N        0.00061783       1.35732456       1.28546370
H        1.98955540      -0.28689254       1.00265028
H        2.16071893      -0.06412147      -0.74059057
H        0.96567216      -2.35417479      -0.18594068
H       -1.45681517      -1.96333693      -0.50026340
H       -2.02430162       0.33772351       0.60207520
H       -1.78991825       0.55106603      -1.16520098
H       -0.47518600       2.25543341       1.21728915
14
Frame=6 idx=011403 GeodesicLength=0.2901384669811021 rxn_smarts="[O:1]=[C:2]1[C:3]([H:8])([H:9])[C:4]([H:10])=[C:5]([H:11])[C:6]([H:12])([H:13])[N:7]1[H:14]>>[O:1]1/[C:2](=[N:7]\[H:14])[C:3]([H:8])([H:9])[C:4]([H:10])=[C:5]([H:11])[C:6]1([H:12])[H:13]"
O        0.17698907       1.60338591      -0.95119201
C        0.59305477       1.07795414       0.14359406
C        1.43903420      -0.17347039       0.06487861
C        0.54630299      -1.35284005      -0.18887342
C       -0.75280651      -1.15197842      -0.32853194
C       -1.35099115       0.19565448      -0.24085386
N       -0.00706300       1.34892670       1.28216716
H        2.00298463      -0.28752202       0.99086517
H        2.15836922      -0.06738017      -0.75078263
H        0.96177091      -2.35354901      -0.16926137
H       -1.45763496      -1.96310367      -0.49015080
H       -2.04705998       0.32909397       0.58212694
H       -1.79410239       0.54020122      -1.17270165
H       -0.46884780       2.25462732       1.22871574
14
Frame=7 idx=011403 GeodesicLength=0.3381822424598148 rxn_smarts="[O:1]=[C:2]1[C:3]([H:8])([H:9])[C:4]([H:10])=[C:5]([H:11])[C:6]([H:12])([H:13])[N:7]1[H:14]>>[O:1]1/[C:2](=[N:7]\[H:14])[C:3]([H:8])([H:9])[C:4]([H:10])=[C:5]([H:11])[C:6]1([H:12])[H:13]"
O        0.17896601       1.61619033      -0.93677805
C        0.61048315       1.08647749       0.15001118
C        1.44147802      -0.17386167       0.05989520
C        0.54488071      -1.35126488      -0.18780996
C       -0.75434119      -1.14984428      -0.32703319
C       -1.34852451       0.20234299      -0.24335229
N       -0.01432607       1.34107566       1.27836182
H        2.01625209      -0.28818397       0.97907966
H        2.15578174      -0.07059133      -0.76073695
H        0.95794514      -2.35257573      -0.15328726
H       -1.45842614      -1.96281213      -0.48033805
H       -2.06952045       0.32034298       0.56161892
H       -1.79823483       0.52901392      -1.17986984
H       -0.46241366       2.25369062       1.24023880
14
Frame=8 idx=011403 GeodesicLength=0.3861800770931748 rxn_smarts="[O:1]=[C:2]1[C:3]([H:8])([H:9])[C:4]([H:10])=[C:5]([H:11])[C:6]([H:12])([H:13])[N:7]1[H:14]>>[O:1]1/[C:2](=[N:7]\[H:14])[C:3]([H:8])([H:9])[C:4]([H:10])=[C:5]([H:11])[C:6]1([H:12])[H:13]"
O        0.18111684       1.62859490      -0.92225113
C        0.62793862       1.09501905       0.15661569
C        1.44373668      -0.17413928       0.05507209
C        0.54332750      -1.34964710      -0.18645912
C       -0.75605413      -1.14775088      -0.32514200
C       -1.34635417       0.20899946      -0.24566806
N       -0.02115603       1.33372266       1.27416015
H        2.02943332      -0.28885929       0.96721748
H        2.15293730      -0.07369886      -0.77055245
H        0.95417670      -2.35129496      -0.13785443
H       -1.45925888      -1.96252221      -0.47072687
H       -2.09169915       0.31149006       0.54043874
H       -1.80225163       0.51748569      -1.18680621
H       -0.45589295       2.25260076       1.25195613
14
Frame=9 idx=011403 GeodesicLength=0.4340414101080299 rxn_smarts="[O:1]=[C:2]1[C:3]([H:8])([H:9])[C:4]([H:10])=[C:5]([H:11])[C:6]([H:12])([H:13])[N:7]1[H:14]>>[O:1]1/[C:2](=[N:7]\[H:14])[C:3]([H:8])([H:9])[C:4]([H:10])=[C:5]([H:11])[C:6]1([H:12])[H:13]"
O        0.18337226       1.64063430      -0.90753572
C        0.64533455       1.10353037       0.16344355
C        1.44575869      -0.17431685       0.05035831
C        0.54165918      -1.34795508      -0.18488309
C       -0.75786933      -1.14561998      -0.32287910
C       -1.34443805       0.21567750      -0.24782923
N       -0.02758366       1.32672709       1.26950993
H        2.04248758      -0.28962249       0.95515646
H        2.14971155      -0.07668558      -0.78025865
H        0.95045646      -2.34970952      -0.12280578
H       -1.46003002      -1.96214209      -0.46106011
H       -2.11345774       0.30258615       0.51846407
H       -1.80603091       0.50569923      -1.19355684
H       -0.44937056       2.25119695       1.26387620
14
Frame=10 idx=011403 GeodesicLength=0.48191003614589 rxn_smarts="[O:1]=[C:2]1[C:3]([H:8])([H:9])[C:4]([H:10])=[C:5]([H:11])[C:6]([H:12])([H:13])[N:7]1[H:14]>>[O:1]1/[C:2](=[N:7]\[H:14])[C:3]([H:8])([H:9])[C:4]([H:10])=[C:5]([H:11])[C:6]1([H:12])[H:13]"
O        0.18583882       1.65234544      -0.89271808
C        0.66273746       1.11206170       0.17047123
C        1.44760595      -0.17435530       0.04575698
C        0.53985977      -1.34621473      -0.18310982
C       -0.75987421      -1.14352676      -0.32028201
C       -1.34283887       0.22232945      -0.24988250
N       -0.03358884       1.32017608       1.26455591
H        2.05547418      -0.29038803       0.94295511
H        2.14623223      -0.07950715      -0.78989953
H        0.94675575      -2.34787656      -0.10810851
H       -1.46089206      -1.96180331      -0.45144854
H       -2.13488560       0.29358528       0.49583289
H       -1.80962265       0.49360324      -1.20018895
H       -0.44280193       2.24957066       1.27606584
14
Frame=11 idx=011403 GeodesicLength=0.5296406403687348 rxn_smarts="[O:1]=[C:2]1[C:3]([H:8])([H:9])[C:4]([H:10])=[C:5]([H:11])[C:6]([H:12])([H:13])[N:7]1[H:14]>>[O:1]1/[C:2](=[N:7]\[H:14])[C:3]([H:8])([H:9])[C:4]([H:10])=[C:5]([H:11])[C:6]1([H:12])[H:13]"
O        0.18842860       1.66368042      -0.87778768
C        0.68006754       1.12053224       0.17765629
C        1.44921700      -0.17428979       0.04128862
C        0.53795031      -1.34438346      -0.18111087
C       -0.76200779      -1.14140952      -0.31730452
C       -1.34152149       0.22897828      -0.25182802
N       -0.03919485       1.31400752       1.25923994
H        2.06831849      -0.29121965       0.93058073
H        2.14238837      -0.08219784      -0.79938638
H        0.94313562      -2.34574372      -0.09379316
H       -1.46172702      -1.96140398      -0.44190424
H       -2.15584729       0.28454959       0.47258362
H       -1.81299344       0.48127379      -1.20661933
H       -0.43621404       2.24762612       1.28838501
14
Frame=12 idx=011403 GeodesicLength=0.577365320805437 rxn_smarts="[O:1]=[C:2]1[C:3]([H:8])([H:9])[C:4]([H:10])=[C:5]([H:11])[C:6]([H:12])([H:13])[N:7]1[H:14]>>[O:1]1/[C:2](=[N:7]\[H:14])[C:3]([H:8])([H:9])[C:4]([H:10])=[C:5]([H:11])[C:6]1([H:12])[H:13]"
O        0.19121746       1.67473287      -0.86274156
C        0.69735569       1.12899293       0.18504575
C        1.45063535      -0.17407949       0.03688968
C        0.53591605      -1.34249085      -0.17897036
C       -0.76430687      -1.13930193      -0.31402918
C       -1.34051444       0.23561796      -0.25371254
N       -0.04440172       1.30819588       1.25366092
H        2.08108406      -0.29206436       0.91797343
H        2.13822982      -0.08468616      -0.80885441
H        0.93951173      -2.34338403      -0.07964281
H       -1.46263714      -1.96102990      -0.43229350
H       -2.17637798       0.27544666       0.44867694
H       -1.81608102       0.46869807      -1.21299212
H       -0.42963098       2.24535236       1.30098976
14
Frame=13 idx=011403 GeodesicLength=0.6250457136580486 rxn_smarts="[O:1]=[C:2]1[C:3]([H:8])([H:9])[C:4]([H:10])=[C:5]([H:11])[C:6]([H:12])([H:13])[N:7]1[H:14]>>[O:1]1/[C:2](=[N:7]\[H:14])[C:3]([H:8])([H:9])[C:4]([H:10])=[C:5]([H:11])[C:6]1([H:12])[H:13]"
O        0.19417218       1.68552314      -0.84754664
C        0.71456016       1.13739879       0.19265089
C        1.45184259      -0.17373391       0.03253285
C        0.53376861      -1.34051378      -0.17671643
C       -0.76674688      -1.13716815      -0.31046769
C       -1.33980166       0.24227035      -0.25558498
N       -0.04923310       1.30265072       1.24783151
H        2.09377749      -0.29295221       0.90506128
H        2.13368893      -0.08695479      -0.81832841
H        0.93589024      -2.34076570      -0.06557012
H       -1.46359455      -1.96063264      -0.42243924
H       -2.19641877       0.26632430       0.42405736
H       -1.81880881       0.45592323      -1.21936465
H       -0.42309644       2.24263065       1.31388427
14
Frame=14 idx=011403 GeodesicLength=0.672699746474636 rxn_smarts="[O:1]=[C:2]1[C:3]([H:8])([H:9])[C:4]([H:10])=[C:5]([H:11])[C:6]([H:12])([H:13])[N:7]1[H:14]>>[O:1]1/[C:2](=[N:7]\[H:14])[C:3]([H:8])([H:9])[C:4]([H:10])=[C:5]([H:11])[C:6]1([H:12])[H:13]"
O        0.19731564       1.69602493      -0.83227824
C        0.73168423       1.14576183       0.20043808
C        1.45284406      -0.17325046       0.02825608
C        0.53150127      -1.33846807      -0.17433161
C       -0.76934524      -1.13503353      -0.30658030
C       -1.33940015       0.24891575      -0.25741077
N       -0.05369048       1.29744299       1.24176677
H        2.10634738      -0.29386312       0.89191483
H        2.12881195      -0.08901436      -0.82775561
H        0.93228914      -2.33792577      -0.05170492
H       -1.46461609      -1.96024751      -0.41248992
H       -2.21594195       0.25716803       0.39887109
H       -1.82119740       0.44294765      -1.22569204
H       -0.41660235       2.23954164       1.32699654
14
Frame=15 idx=011403 GeodesicLength=0.7202824264286024 rxn_smarts="[O:1]=[C:2]1[C:3]([H:8])([H:9])[C:4]([H:10])=[C:5]([H:11])[C:6]([H:12])([H:13])[N:7]1[H:14]>>[O:1]1/[C:2](=[N:7]\[H:14])[C:3]([H:8])([H:9])[C:4]([H:10])=[C:5]([H:11])[C:6]1([H:12])[H:13]"
O        0.20062436       1.70617790      -0.81699828
C        0.74869849       1.15404962       0.20836787
C        1.45362543      -0.17264647       0.02411255
C        0.52911733      -1.33633999      -0.17179324
C       -0.77209443      -1.13288641      -0.30232729
C       -1.33931162       0.25554749      -0.25916739
N       -0.05778548       1.29259809       1.23543996
H        2.11872439      -0.29480146       0.87861058
H        2.12361547      -0.09089176      -0.83703059
H        0.92876083      -2.33485949      -0.03824533
H       -1.46567442      -1.95984237      -0.40250047
H       -2.23487834       0.24799762       0.37323580
H       -1.82327157       0.42979558      -1.23190717
H       -0.41015042       2.23610166       1.34020302
14
Frame=16 idx=011403 GeodesicLength=0.7678342213024781 rxn_smarts="[O:1]=[C:2]1[C:3]([H:8])([H:9])[C:4]([H:10])=[C:5]([H:11])[C:6]([H:12])([H:13])[N:7]1[H:14]>>[O:1]1/[C:2](=[N:7]\[H:14])[C:3]([H:8])([H:9])[C:4]([H:10])=[C:5]([H:11])[C:6]1([H:12])[H:13]"
O        0.20411983       1.71604077      -0.80169416
C        0.76560225       1.16227083       0.21645884
C        1.45419913      -0.17190704       0.02005650
C        0.52661631      -1.33413806      -0.16915165
C       -0.77499624      -1.13072761      -0.29775802
C       -1.33953329       0.26217105      -0.26089159
N       -0.06152974       1.28806749       1.22890015
H        2.13093144      -0.29575815       0.86508700
H        2.11809063      -0.09254937      -0.84623234
H        0.92525931      -2.33158952      -0.02501727
H       -1.46679846      -1.95943841      -0.39237652
H       -2.25321782       0.23880622       0.34714228
H       -1.82496973       0.41649217      -1.23808846
H       -0.40377363       2.23225963       1.35356523
