17
Frame=0 idx=007104 GeodesicLength=0.0 rxn_smarts="[C:1]([C@@:2]1([H:11])[C:3]([H:12])([H:13])[O:4][C@:5]([C:6]([H:15])([H:16])[H:17])([H:14])[O:7]1)([H:8])([H:9])[H:10]>>[C:1]([C@@:2]([C:3]([O:4][C:6]([H:15])([H:16])[H:17])([H:12])[H:13])([O+:7]=[C-:5][H:14])[H:11])([H:8])([H:9])[H:10]"
C        2.14862351       0.40082362      -0.67457772
C        0.99563767      -0.46602502      -0.23349554
C        0.29760400      -0.02035991       1.05108070
O       -1.04907432      -0.46746995       0.87183764
C       -1.18837816      -0.96451988      -0.60565058
C       -2.27724488       0.58841301       0.18552019
O       -0.06268224      -0.38904756      -1.17804826
H        2.55690119       0.03360601      -1.61607107
H        2.94608614       0.39583174       0.07075011
H        1.81121506       1.42826420      -0.82182815
H        1.31341587      -1.51408442      -0.12784869
H        0.30907192       1.06938561       1.16028820
H        0.70114483      -0.48238277       1.95328953
H       -1.03591650      -2.05509528      -0.51461559
H       -2.20660317       1.23406442       1.06971557
H       -2.02799364       1.12264297      -0.72243680
H       -3.23180731       0.08595313       0.13209047
17
Frame=1 idx=007104 GeodesicLength=0.056762098545698504 rxn_smarts="[C:1]([C@@:2]1([H:11])[C:3]([H:12])([H:13])[O:4][C@:5]([C:6]([H:15])([H:16])[H:17])([H:14])[O:7]1)([H:8])([H:9])[H:10]>>[C:1]([C@@:2]([C:3]([O:4][C:6]([H:15])([H:16])[H:17])([H:12])[H:13])([O+:7]=[C-:5][H:14])[H:11])([H:8])([H:9])[H:10]"
C        2.15487454       0.39632625      -0.67054204
C        0.99600781      -0.46409475      -0.23286140
C        0.29942222      -0.01620950       1.05173854
O       -1.04681307      -0.46367736       0.87849777
C       -1.18591310      -0.96050734      -0.62039315
C       -2.28321491       0.58135739       0.18725095
O       -0.06041757      -0.38002400      -1.18084858
H        2.56198880       0.02929720      -1.61262236
H        2.95098789       0.38327511       0.07613562
H        1.82501497       1.42657412      -0.81509727
H        1.30659313      -1.51436963      -0.12944672
H        0.31333700       1.07364665       1.15908072
H        0.70944840      -0.47637418       1.95216653
H       -1.03283780      -2.05115418      -0.53033624
H       -2.20937386       1.24847640       1.05491744
H       -2.06302340       1.11514318      -0.72917196
H       -3.23608103       0.07231464       0.16153215
17
Frame=2 idx=007104 GeodesicLength=0.11345845987208024 rxn_smarts="[C:1]([C@@:2]1([H:11])[C:3]([H:12])([H:13])[O:4][C@:5]([C:6]([H:15])([H:16])[H:17])([H:14])[O:7]1)([H:8])([H:9])[H:10]>>[C:1]([C@@:2]([C:3]([O:4][C:6]([H:15])([H:16])[H:17])([H:12])[H:13])([O+:7]=[C-:5][H:14])[H:11])([H:8])([H:9])[H:10]"
C        2.16110064       0.39174057      -0.66649543
C        0.99632574      -0.46211957      -0.23221021
C        0.30129988      -0.01199501       1.05245732
O       -1.04451371      -0.45971673       0.88539839
C       -1.18345657      -0.95624932      -0.63537077
C       -2.28903324       0.57431282       0.18894971
O       -0.05814688      -0.37079877      -1.18360654
H        2.56700589       0.02490574      -1.60918256
H        2.95582117       0.37055060       0.08148409
H        1.83889904       1.42476850      -0.80829387
H        1.29962234      -1.51458234      -0.13107262
H        0.31768528       1.07796647       1.15791980
H        0.71782853      -0.47030222       1.95104541
H       -1.02978883      -2.04695633      -0.54613869
H       -2.21261541       1.26248720       1.03961833
H       -2.09849137       1.10696116      -0.73548648
H       -3.23954251       0.05902722       0.19098414
17
Frame=3 idx=007104 GeodesicLength=0.17006091357539013 rxn_smarts="[C:1]([C@@:2]1([H:11])[C:3]([H:12])([H:13])[O:4][C@:5]([C:6]([H:15])([H:16])[H:17])([H:14])[O:7]1)([H:8])([H:9])[H:10]>>[C:1]([C@@:2]([C:3]([O:4][C:6]([H:15])([H:16])[H:17])([H:12])[H:13])([O+:7]=[C-:5][H:14])[H:11])([H:8])([H:9])[H:10]"
C        2.16727524       0.38707926      -0.66245132
C        0.99659037      -0.46010973      -0.23153567
C        0.30323977      -0.00773146       1.05324605
O       -1.04217842      -0.45558489       0.89255459
C       -1.18100951      -0.95176015      -0.65057430
C       -2.29467358       0.56729531       0.19059725
O       -0.05586822      -0.36141397      -1.18631680
H        2.57193224       0.02044245      -1.60576155
H        2.96056102       0.35771205       0.08677872
H        1.85280990       1.42284601      -0.80144987
H        1.29251734      -1.51472589      -0.13271463
H        0.32212305       1.08232968       1.15682068
H        0.72628318      -0.46419195       1.94993157
H       -1.02677972      -2.04251646      -0.56198294
H       -2.21634860       1.27604733       1.02386958
H       -2.13427793       1.09811846      -0.74132844
H       -3.24219613       0.04616393       0.22031710
17
Frame=4 idx=007104 GeodesicLength=0.226536768400501 rxn_smarts="[C:1]([C@@:2]1([H:11])[C:3]([H:12])([H:13])[O:4][C@:5]([C:6]([H:15])([H:16])[H:17])([H:14])[O:7]1)([H:8])([H:9])[H:10]>>[C:1]([C@@:2]([C:3]([O:4][C:6]([H:15])([H:16])[H:17])([H:12])[H:13])([O+:7]=[C-:5][H:14])[H:11])([H:8])([H:9])[H:10]"
C        2.17337290       0.38235656      -0.65842389
C        0.99680116      -0.45807657      -0.23083146
C        0.30524324      -0.00343502       1.05411373
O       -1.03980983      -0.45127989       0.89998098
C       -1.17857424      -0.94705551      -0.66599412
C       -2.30011073       0.56032206       0.19217311
O       -0.05357958      -0.35191338      -1.18897489
H        2.57675071       0.01591916      -1.60236967
H        2.96518437       0.34481654       0.09200313
H        1.86668917       1.42080839      -0.79460029
H        1.28529370      -1.51480589      -0.13436022
H        0.32665466       1.08672032       1.15579941
H        0.73480782      -0.45807024       1.94883077
H       -1.02382047      -2.03785186      -0.57782776
H       -2.22058716       1.28910937       1.00772967
H       -2.17025763       1.08863921      -0.74665080
H       -3.24405810       0.03379674       0.24940232
17
Frame=5 idx=007104 GeodesicLength=0.2828685963336174 rxn_smarts="[C:1]([C@@:2]1([H:11])[C:3]([H:12])([H:13])[O:4][C@:5]([C:6]([H:15])([H:16])[H:17])([H:14])[O:7]1)([H:8])([H:9])[H:10]>>[C:1]([C@@:2]([C:3]([O:4][C:6]([H:15])([H:16])[H:17])([H:12])[H:13])([O+:7]=[C-:5][H:14])[H:11])([H:8])([H:9])[H:10]"
C        2.17937151       0.37758496      -0.65442362
C        0.99695945      -0.45603118      -0.23009251
C        0.30731469       0.00087656       1.05506674
O       -1.03741236      -0.44679916       0.90768883
C       -1.17614670      -0.94215639      -0.68162456
C       -2.30532091       0.55340783       0.19365615
O       -0.05127684      -0.34234012      -1.19157950
H        2.58144689       0.01134654      -1.59901237
H        2.96967279       0.33191841       0.09714626
H        1.88048302       1.41865401      -0.78777531
H        1.27796755      -1.51482535      -0.13599925
H        0.33129016       1.09111852       1.15486822
H        0.74340294      -0.45196535       1.94774660
H       -1.02091797      -2.03298127      -0.59363584
H       -2.22535568       1.30164379       0.99124641
H       -2.20633452       1.07855715      -0.75140788
H       -3.24514402       0.02199105       0.27813163
17
Frame=6 idx=007104 GeodesicLength=0.33901058601189915 rxn_smarts="[C:1]([C@@:2]1([H:11])[C:3]([H:12])([H:13])[O:4][C@:5]([C:6]([H:15])([H:16])[H:17])([H:14])[O:7]1)([H:8])([H:9])[H:10]>>[C:1]([C@@:2]([C:3]([O:4][C:6]([H:15])([H:16])[H:17])([H:12])[H:13])([O+:7]=[C-:5][H:14])[H:11])([H:8])([H:9])[H:10]"
C        2.18524794       0.37278290      -0.65047088
C        0.99706555      -0.45398762      -0.22931113
C        0.30945152       0.00518539       1.05611902
O       -1.03498555      -0.44215089       0.91569741
C       -1.17373538      -0.93707487      -0.69745291
C       -2.31027927       0.54657407       0.19502345
O       -0.04895825      -0.33273972      -1.19412592
H        2.58600844       0.00673956      -1.59570921
H        2.97400737       0.31907945       0.10218706
H        1.89413234       1.41639596      -0.78102072
H        1.27055777      -1.51479907      -0.13761494
H        0.33602565       1.09551248       1.15405017
H        0.75205791      -0.44590672       1.94669241
H       -1.01808315      -2.02792686      -0.60936157
H       -2.23065934       1.31359282       0.97449775
H       -2.24235729       1.06789582      -0.75556535
H       -3.24549625       0.01082728       0.30636537
17
Frame=7 idx=007104 GeodesicLength=0.39516909666437944 rxn_smarts="[C:1]([C@@:2]1([H:11])[C:3]([H:12])([H:13])[O:4][C@:5]([C:6]([H:15])([H:16])[H:17])([H:14])[O:7]1)([H:8])([H:9])[H:10]>>[C:1]([C@@:2]([C:3]([O:4][C:6]([H:15])([H:16])[H:17])([H:12])[H:13])([O+:7]=[C-:5][H:14])[H:11])([H:8])([H:9])[H:10]"
C        2.19095725       0.36794054      -0.64654672
C        0.99708315      -0.45193485      -0.22848594
C        0.31164376       0.00952090       1.05724154
O       -1.03254844      -0.43722347       0.92402661
C       -1.17134552      -0.93186919      -0.71354347
C       -2.31502856       0.53975365       0.19632393
O       -0.04664515      -0.32312179      -1.19663584
H        2.59038334       0.00206650      -1.59241583
H        2.97814570       0.30632331       0.10715534
H        1.90758813       1.41400279      -0.77434592
H        1.26302031      -1.51469652      -0.13919249
H        0.34087192       1.09990376       1.15329237
H        0.76077828      -0.43985187       1.94562493
H       -1.01534557      -2.02269189      -0.62497137
H       -2.23636165       1.32494723       0.95753609
H       -2.27800380       1.05696378      -0.75913551
H       -3.24519313      -0.00003288       0.33407226
17
Frame=8 idx=007104 GeodesicLength=0.4509227180117458 rxn_smarts="[C:1]([C@@:2]1([H:11])[C:3]([H:12])([H:13])[O:4][C@:5]([C:6]([H:15])([H:16])[H:17])([H:14])[O:7]1)([H:8])([H:9])[H:10]>>[C:1]([C@@:2]([C:3]([O:4][C:6]([H:15])([H:16])[H:17])([H:12])[H:13])([O+:7]=[C-:5][H:14])[H:11])([H:8])([H:9])[H:10]"
C        2.19656851       0.36307281      -0.64269248
C        0.99706617      -0.44989403      -0.22761832
C        0.31390607       0.01383612       1.05847978
O       -1.03008965      -0.43217835       0.93265548
C       -1.16895104      -0.92642012      -0.72979105
C       -2.31951492       0.53305169       0.19746012
O       -0.04429888      -0.31348993      -1.19906446
H        2.59466540      -0.00263812      -1.58920049
H        2.98215665       0.29364647       0.11199106
H        1.92091933       1.41151610      -0.76777177
H        1.25541849      -1.51456260      -0.14075072
H        0.34582698       1.10428697       1.15267246
H        0.76954477      -0.43387548       1.94460982
H       -1.01266555      -2.01726098      -0.64048526
H       -2.24269312       1.33565557       0.94037459
H       -2.31364714       1.04530306      -0.76205850
H       -3.24421209      -0.01004917       0.36118974
17
Frame=9 idx=007104 GeodesicLength=0.5067816495556884 rxn_smarts="[C:1]([C@@:2]1([H:11])[C:3]([H:12])([H:13])[O:4][C@:5]([C:6]([H:15])([H:16])[H:17])([H:14])[O:7]1)([H:8])([H:9])[H:10]>>[C:1]([C@@:2]([C:3]([O:4][C:6]([H:15])([H:16])[H:17])([H:12])[H:13])([O+:7]=[C-:5][H:14])[H:11])([H:8])([H:9])[H:10]"
C        2.20203002       0.35813810      -0.63886110
C        0.99695811      -0.44783110      -0.22670718
C        0.31623262       0.01820392       1.05978697
O       -1.02759546      -0.42683761       0.94163887
C       -1.16655512      -0.92081345      -0.74635255
C       -2.32378784       0.52632862       0.19853570
O       -0.04194307      -0.30379572      -1.20146695
H        2.59877344      -0.00744434      -1.58598811
H        2.98597885       0.28100416       0.11677323
H        1.93409601       1.40887251      -0.76128521
H        1.24765354      -1.51434330      -0.14226511
H        0.35090040       1.10869984       1.15210438
H        0.77839259      -0.42787046       1.94358807
H       -1.01008595      -2.01159916      -0.65592231
H       -2.24946929       1.34574255       0.92303165
H       -2.34895777       1.03333444      -0.76439887
H       -3.24262108      -0.01978899       0.38778854
17
Frame=10 idx=007104 GeodesicLength=0.5624687929552591 rxn_smarts="[C:1]([C@@:2]1([H:11])[C:3]([H:12])([H:13])[O:4][C@:5]([C:6]([H:15])([H:16])[H:17])([H:14])[O:7]1)([H:8])([H:9])[H:10]>>[C:1]([C@@:2]([C:3]([O:4][C:6]([H:15])([H:16])[H:17])([H:12])[H:13])([O+:7]=[C-:5][H:14])[H:11])([H:8])([H:9])[H:10]"
C        2.20739529       0.35314258      -0.63507315
C        0.99678386      -0.44575678      -0.22575666
C        0.31861630       0.02262384       1.06117421
O       -1.02507838      -0.42126009       0.95094255
C       -1.16415671      -0.91498994      -0.76317628
C       -2.32785006       0.51963113       0.19950523
O       -0.03956688      -0.29404234      -1.20382932
H        2.60277017      -0.01234868      -1.58281293
H        2.98967168       0.26837863       0.12147225
H        1.94719165       1.40610744      -0.75489127
H        1.23975311      -1.51406955      -0.14373895
H        0.35607544       1.11316158       1.15159220
H        0.78729481      -0.42183298       1.94258371
H       -1.00759403      -2.00572191      -0.67130410
H       -2.25679101       1.35515296       0.90560107
H       -2.38406193       1.02083465      -0.76609803
H       -3.24045332      -0.02901053       0.41380946
17
Frame=11 idx=007104 GeodesicLength=0.6179958327489282 rxn_smarts="[C:1]([C@@:2]1([H:11])[C:3]([H:12])([H:13])[O:4][C@:5]([C:6]([H:15])([H:16])[H:17])([H:14])[O:7]1)([H:8])([H:9])[H:10]>>[C:1]([C@@:2]([C:3]([O:4][C:6]([H:15])([H:16])[H:17])([H:12])[H:13])([O+:7]=[C-:5][H:14])[H:11])([H:8])([H:9])[H:10]"
C        2.21269388       0.34805067      -0.63131851
C        0.99654415      -0.44365148      -0.22477075
C        0.32106203       0.02712992       1.06262839
O       -1.02252345      -0.41542683       0.96056170
C       -1.16173037      -0.90889311      -0.78029249
C       -2.33173652       0.51292946       0.20036724
O       -0.03715098      -0.28417166      -1.20615260
H        2.60667123      -0.01738666      -1.57966807
H        2.99325441       0.25568045       0.12609691
H        1.96028856       1.40319034      -0.74855992
H        1.23168662      -1.51371908      -0.14517176
H        0.36135832       1.11770639       1.15110308
H        0.79625499      -0.41571532       1.94159205
H       -1.00517603      -1.99956960      -0.68667818
H       -2.26470421       1.36389889       0.88808295
H       -2.41905348       1.00773853      -0.76713472
H       -3.23773913      -0.03779090       0.43931468
17
Frame=12 idx=007104 GeodesicLength=0.6734240295384456 rxn_smarts="[C:1]([C@@:2]1([H:11])[C:3]([H:12])([H:13])[O:4][C@:5]([C:6]([H:15])([H:16])[H:17])([H:14])[O:7]1)([H:8])([H:9])[H:10]>>[C:1]([C@@:2]([C:3]([O:4][C:6]([H:15])([H:16])[H:17])([H:12])[H:13])([O+:7]=[C-:5][H:14])[H:11])([H:8])([H:9])[H:10]"
C        2.21795617       0.34283044      -0.62758240
C        0.99623328      -0.44149834      -0.22375548
C        0.32356625       0.03177084       1.06413043
O       -1.01992671      -0.40928936       0.97048850
C       -1.15927000      -0.90249523      -0.79775319
C       -2.33548232       0.50618155       0.20114065
O       -0.03469423      -0.27412765      -1.20845617
H        2.61050306      -0.02261171      -1.57653088
H        2.99674782       0.24283955       0.13067674
H        1.97346464       1.40010357      -0.74227459
H        1.22341602      -1.51328295      -0.14655912
H        0.36674572       1.12238205       1.15058914
H        0.80527252      -0.40945010       1.94060191
H       -1.00283647      -1.99310768      -0.70210616
H       -2.27321762       1.37197384       0.87051797
H       -2.45397355       0.99402813      -0.76749369
H       -3.23450459      -0.04624694       0.46436633
17
Frame=13 idx=007104 GeodesicLength=0.7288722698472865 rxn_smarts="[C:1]([C@@:2]1([H:11])[C:3]([H:12])([H:13])[O:4][C@:5]([C:6]([H:15])([H:16])[H:17])([H:14])[O:7]1)([H:8])([H:9])[H:10]>>[C:1]([C@@:2]([C:3]([O:4][C:6]([H:15])([H:16])[H:17])([H:12])[H:13])([O+:7]=[C-:5][H:14])[H:11])([H:8])([H:9])[H:10]"
C        2.22322186       0.33746022      -0.62385699
C        0.99584371      -0.43928111      -0.22271255
C        0.32613976       0.03659100       1.06569355
O       -1.01728002      -0.40282581       0.98074507
C       -1.15678273      -0.89575584      -0.81561576
C       -2.33912029       0.49934573       0.20183424
O       -0.03220024      -0.26384518      -1.21076438
H        2.61427690      -0.02804980      -1.57341656
H        3.00019004       0.22977169       0.13523514
H        1.98682740       1.39685634      -0.73600824
H        1.21488470      -1.51276851      -0.14789521
H        0.37226420       1.12725426       1.15003829
H        0.81436737      -0.40298242       1.93965216
H       -1.00061039      -1.98631795      -0.71765844
H       -2.28234117       1.37938690       0.85290721
H       -2.48890275       0.97964424      -0.76720568
H       -3.23077835      -0.05448377       0.48902815
17
Frame=14 idx=007104 GeodesicLength=0.7841025735292344 rxn_smarts="[C:1]([C@@:2]1([H:11])[C:3]([H:12])([H:13])[O:4][C@:5]([C:6]([H:15])([H:16])[H:17])([H:14])[O:7]1)([H:8])([H:9])[H:10]>>[C:1]([C@@:2]([C:3]([O:4][C:6]([H:15])([H:16])[H:17])([H:12])[H:13])([O+:7]=[C-:5][H:14])[H:11])([H:8])([H:9])[H:10]"
C        2.22848750       0.33187482      -0.62010737
C        0.99537547      -0.43696466      -0.22164914
C        0.32875312       0.04160953       1.06724518
O       -1.01457630      -0.39596825       0.99128012
C       -1.15419053      -0.88855060      -0.83385891
C       -2.34266501       0.49238810       0.20247345
O       -0.02962875      -0.25324527      -1.21300659
H        2.61800749      -0.03374351      -1.57024803
H        3.00354227       0.21636227       0.13975203
H        2.00038947       1.39333148      -0.72968506
H        1.20609295      -1.51208142      -0.14921370
H        0.37785640       1.13227777       1.14938584
H        0.82349740      -0.39627702       1.93860316
H       -0.99840165      -1.97901489      -0.73336057
H       -2.29208556       1.38609983       0.83512093
H       -2.52394210       0.96435356      -0.76616915
H       -3.22651216      -0.06245173       0.51343781
17
Frame=15 idx=007104 GeodesicLength=0.8394544019018355 rxn_smarts="[C:1]([C@@:2]1([H:11])[C:3]([H:12])([H:13])[O:4][C@:5]([C:6]([H:15])([H:16])[H:17])([H:14])[O:7]1)([H:8])([H:9])[H:10]>>[C:1]([C@@:2]([C:3]([O:4][C:6]([H:15])([H:16])[H:17])([H:12])[H:13])([O+:7]=[C-:5][H:14])[H:11])([H:8])([H:9])[H:10]"
C        2.23379343       0.32610878      -0.61636175
C        0.99481501      -0.43456083      -0.22055996
C        0.33144800       0.04686295       1.06887162
O       -1.01181535      -0.38873421       1.00217905
C       -1.15157636      -0.88093296      -0.85257807
C       -2.34613997       0.48528766       0.20304137
O       -0.02702317      -0.24232938      -1.21527996
H        2.62169737      -0.03970463      -1.56710806
H        3.00686844       0.20264692       0.14427999
H        2.01424987       1.38963929      -0.72337696
H        1.19696691      -1.51131313      -0.15047206
H        0.38361432       1.13757276       1.14868244
H        0.83272416      -0.38931131       1.93763234
H       -0.99635362      -1.97133472      -0.74927053
H       -2.30246821       1.39212313       0.81730767
H       -2.55900550       0.94828534      -0.76448423
H       -3.22179532      -0.07030566       0.53749709
17
Frame=16 idx=007104 GeodesicLength=0.8946064668225248 rxn_smarts="[C:1]([C@@:2]1([H:11])[C:3]([H:12])([H:13])[O:4][C@:5]([C:6]([H:15])([H:16])[H:17])([H:14])[O:7]1)([H:8])([H:9])[H:10]>>[C:1]([C@@:2]([C:3]([O:4][C:6]([H:15])([H:16])[H:17])([H:12])[H:13])([O+:7]=[C-:5][H:14])[H:11])([H:8])([H:9])[H:10]"
C        2.23909462       0.32008317      -0.61260743
C        0.99416007      -0.43204470      -0.21944567
C        0.33418028       0.05238695       1.07047692
O       -1.00898210      -0.38103853       1.01338307
C       -1.14884031      -0.87280341      -0.87171916
C       -2.34952724       0.47801272       0.20357058
O       -0.02432979      -0.23108131      -1.21749506
H        2.62533822      -0.04602719      -1.56390918
H        3.01007963       0.18855752       0.14876457
H        2.02833890       1.38562046      -0.71706862
H        1.18753069      -1.51035888      -0.15167757
H        0.38943852       1.14309723       1.14781032
H        0.84198933      -0.38199724       1.93656833
H       -0.99434026      -1.96310122      -0.76534580
H       -2.31360557       1.39730515       0.79956929
H       -2.59392680       0.93145789      -0.76198544
H       -3.21659819      -0.07806860       0.56111086
