17
Frame=0 idx=008507 GeodesicLength=0.0 rxn_smarts="[C:1]([C@@:2]1([H:11])[C:3]([H:12])([H:13])[C@@:4]2([H:14])[O:5][C:6]([H:15])([H:16])[C@@:7]12[H:17])([H:8])([H:9])[H:10]>>[C:1]([C@@:2]1([H:11])[C:3]([H:12])([H:13])[C:4][C@:7]1([C:6]([O:5][H:14])([H:15])[H:16])[H:17])([H:8])([H:9])[H:10]"
C        1.64645760      -0.57686233      -0.41225380
C        0.83339506       0.35290565       0.46703267
C        0.16161147       1.56579993      -0.22572935
C       -1.21219979       1.07090507       0.13518895
O       -1.58490800      -0.40255518      -1.08723398
C       -1.26543940      -1.17042007       0.08951874
C       -0.58973910      -0.10216564       0.92015385
H        1.94018948      -1.48084783       0.12686665
H        2.56052121      -0.08010752      -0.74484364
H        1.08874205      -0.87400685      -1.30253023
H        1.43618444       0.65686583       1.32515559
H        0.33636314       2.52283280       0.27769338
H        0.33450618       1.71828774      -1.29226511
H       -2.11294600       0.52658311      -0.64604643
H       -0.64406646      -2.02314301      -0.19206156
H       -2.17684195      -1.54890322       0.56413270
H       -0.75182990      -0.15516849       1.99722155
17
Frame=1 idx=008507 GeodesicLength=0.05097979462335838 rxn_smarts="[C:1]([C@@:2]1([H:11])[C:3]([H:12])([H:13])[C@@:4]2([H:14])[O:5][C:6]([H:15])([H:16])[C@@:7]12[H:17])([H:8])([H:9])[H:10]>>[C:1]([C@@:2]1([H:11])[C:3]([H:12])([H:13])[C:4][C@:7]1([C:6]([O:5][H:14])([H:15])[H:16])[H:17])([H:8])([H:9])[H:10]"
C        1.65367087      -0.57592827      -0.40887979
C        0.83518965       0.35182249       0.46745300
C        0.16262297       1.56459727      -0.22398839
C       -1.21060032       1.07116760       0.14064064
O       -1.59516558      -0.39538130      -1.08360369
C       -1.26762912      -1.16955781       0.08585787
C       -0.58718792      -0.10472087       0.91872120
H        1.94857145      -1.47861280       0.13176983
H        2.56731819      -0.07693861      -0.73928624
H        1.09813121      -0.87497451      -1.29993610
H        1.43386570       0.65744958       1.32790558
H        0.34552228       2.52705470       0.26510626
H        0.32258806       1.69987533      -1.29533544
H       -2.13361156       0.53951696      -0.64358645
H       -0.64707283      -2.02041625      -0.20270925
H       -2.17548074      -1.55122089       0.56458564
H       -0.75073230      -0.16373261       1.99528533
17
Frame=2 idx=008507 GeodesicLength=0.10194215865713732 rxn_smarts="[C:1]([C@@:2]1([H:11])[C:3]([H:12])([H:13])[C@@:4]2([H:14])[O:5][C:6]([H:15])([H:16])[C@@:7]12[H:17])([H:8])([H:9])[H:10]>>[C:1]([C@@:2]1([H:11])[C:3]([H:12])([H:13])[C:4][C@:7]1([C:6]([O:5][H:14])([H:15])[H:16])[H:17])([H:8])([H:9])[H:10]"
C        1.66090920      -0.57498085      -0.40547402
C        0.83698118       0.35072728       0.46785947
C        0.16361651       1.56335525      -0.22233145
C       -1.20900007       1.07137663       0.14607364
O       -1.60558106      -0.38820243      -1.07981353
C       -1.26982745      -1.16869772       0.08217741
C       -0.58463771      -0.10730551       0.91725824
H        1.95699195      -1.47633627       0.13673488
H        2.57411226      -0.07373050      -0.73370703
H        1.10758520      -0.87597329      -1.29730972
H        1.43151751       0.65805818       1.33061910
H        0.35464656       2.53107957       0.25215322
H        0.31076836       1.68147797      -1.29802870
H       -2.15430952       0.55266741      -0.64102694
H       -0.65008406      -2.01758941      -0.21348204
H       -2.17405382      -1.55362488       0.56501157
H       -0.74963505      -0.17230145       1.99328588
17
Frame=3 idx=008507 GeodesicLength=0.15286794146249316 rxn_smarts="[C:1]([C@@:2]1([H:11])[C:3]([H:12])([H:13])[C@@:4]2([H:14])[O:5][C:6]([H:15])([H:16])[C@@:7]12[H:17])([H:8])([H:9])[H:10]>>[C:1]([C@@:2]1([H:11])[C:3]([H:12])([H:13])[C:4][C@:7]1([C:6]([O:5][H:14])([H:15])[H:16])[H:17])([H:8])([H:9])[H:10]"
C        1.66816349      -0.57401881      -0.40204501
C        0.83876868       0.34961796       0.46825192
C        0.16459149       1.56207756      -0.22074637
C       -1.20739955       1.07152688       0.15147792
O       -1.61612330      -0.38103811      -1.07586371
C       -1.27203005      -1.16784169       0.07848778
C       -0.58208936      -0.10991550       0.91576639
H        1.96543831      -1.47402243       0.14174318
H        2.58089256      -0.07048580      -0.72811890
H        1.11709351      -0.87699450      -1.29465815
H        1.42914326       0.65868144       1.33329290
H        0.36371906       2.53489715       0.23886137
H        0.29905746       1.66311692      -1.30033922
H       -2.17502313       0.56602881      -0.63839948
H       -0.65309435      -2.01466857      -0.22434292
H       -2.17256510      -1.55610349       0.56540918
H       -0.74854297      -0.18085780       1.99122313
17
Frame=4 idx=008507 GeodesicLength=0.20376282569586313 rxn_smarts="[C:1]([C@@:2]1([H:11])[C:3]([H:12])([H:13])[C@@:4]2([H:14])[O:5][C:6]([H:15])([H:16])[C@@:7]12[H:17])([H:8])([H:9])[H:10]>>[C:1]([C@@:2]1([H:11])[C:3]([H:12])([H:13])[C:4][C@:7]1([C:6]([O:5][H:14])([H:15])[H:16])[H:17])([H:8])([H:9])[H:10]"
C        1.67543327      -0.57304075      -0.39859316
C        0.84055319       0.34849521       0.46863310
C        0.16554891       1.56076597      -0.21923114
C       -1.20579796       1.07161938       0.15685780
O       -1.62678687      -0.37389077      -1.07175222
C       -1.27423877      -1.16699288       0.07479015
C       -0.57954302      -0.11255256       0.91424949
H        1.97390954      -1.47167126       0.14679456
H        2.58765951      -0.06720170      -0.72252323
H        1.12665499      -0.87803647      -1.29198356
H        1.42674533       0.65932031       1.33593099
H        0.37273901       2.53850271       0.22523098
H        0.28745888       1.64479930      -1.30227967
H       -2.19575537       0.57960674      -0.63571480
H       -0.65610721      -2.01165654      -0.23529018
H       -2.17101785      -1.55866153       0.56577726
H       -0.74745559      -0.18940516       1.98910364
17
Frame=5 idx=008507 GeodesicLength=0.25462551000735556 rxn_smarts="[C:1]([C@@:2]1([H:11])[C:3]([H:12])([H:13])[C@@:4]2([H:14])[O:5][C:6]([H:15])([H:16])[C@@:7]12[H:17])([H:8])([H:9])[H:10]>>[C:1]([C@@:2]1([H:11])[C:3]([H:12])([H:13])[C:4][C@:7]1([C:6]([O:5][H:14])([H:15])[H:16])[H:17])([H:8])([H:9])[H:10]"
C        1.68271801      -0.57204591      -0.39511764
C        0.84233461       0.34735826       0.46900449
C        0.16648785       1.55941932      -0.21778299
C       -1.20419500       1.07165430       0.16221782
O       -1.63756619      -0.36676052      -1.06747413
C       -1.27645242      -1.16615056       0.07108473
C       -0.57699824      -0.11521775       0.91270860
H        1.98240499      -1.46928216       0.15188842
H        2.59441230      -0.06387795      -0.71691852
H        1.13626957      -0.87909669      -1.28928463
H        1.42432361       0.65997331       1.33853396
H        0.38170242       2.54188836       0.21126033
H        0.27597040       1.62652414      -1.30385854
H       -2.21650782       0.59340930      -0.63297936
H       -0.65912189      -2.00855004      -0.24632324
H       -2.16941058      -1.56129876       0.56611241
H       -0.74637164      -0.19794664       1.98692829
17
Frame=6 idx=008507 GeodesicLength=0.3054616092712884 rxn_smarts="[C:1]([C@@:2]1([H:11])[C:3]([H:12])([H:13])[C@@:4]2([H:14])[O:5][C:6]([H:15])([H:16])[C@@:7]12[H:17])([H:8])([H:9])[H:10]>>[C:1]([C@@:2]1([H:11])[C:3]([H:12])([H:13])[C:4][C@:7]1([C:6]([O:5][H:14])([H:15])[H:16])[H:17])([H:8])([H:9])[H:10]"
C        1.69001822      -0.57103281      -0.39161914
C        0.84411400       0.34620797       0.46936869
C        0.16740984       1.55803926      -0.21639934
C       -1.20259025       1.07163226       0.16756310
O       -1.64845724      -0.35965080      -1.06302702
C       -1.27867291      -1.16531738       0.06737211
C       -0.57445577      -0.11791249       0.91114726
H        1.99092384      -1.46685492       0.15702369
H        2.60115302      -0.06051191      -0.71130567
H        1.14593752      -0.88017320      -1.28656376
H        1.42187992       0.66064188       1.34110568
H        0.39060968       2.54505070       0.19694907
H        0.26459248       1.60829332      -1.30508666
H       -2.23728263       0.60744309      -0.63020245
H       -0.66214125      -2.00535026      -0.25744176
H       -2.16774653      -1.56401932       0.56641313
H       -0.74529194      -0.20648543       1.98470307
17
Frame=7 idx=008507 GeodesicLength=0.35625877584568105 rxn_smarts="[C:1]([C@@:2]1([H:11])[C:3]([H:12])([H:13])[C@@:4]2([H:14])[O:5][C:6]([H:15])([H:16])[C@@:7]12[H:17])([H:8])([H:9])[H:10]>>[C:1]([C@@:2]1([H:11])[C:3]([H:12])([H:13])[C:4][C@:7]1([C:6]([O:5][H:14])([H:15])[H:16])[H:17])([H:8])([H:9])[H:10]"
C        1.69733074      -0.57000160      -0.38809621
C        0.84589022       0.34504138       0.46972524
C        0.16831037       1.55662109      -0.21507727
C       -1.20098337       1.07155200       0.17289564
O       -1.65944933      -0.35255775      -1.05840216
C       -1.28089521      -1.16448822       0.06365439
C       -0.57191269      -0.12063669       0.90956417
H        1.99946570      -1.46438830       0.16219905
H        2.60787517      -0.05710652      -0.70568311
H        1.15565541      -0.88126297      -1.28381539
H        1.41941331       0.66131951       1.34364156
H        0.39944524       2.54797114       0.18230112
H        0.25332290       1.59010830      -1.30596868
H       -2.25807797       0.62171711      -0.62739785
H       -0.66516047      -2.00204945      -0.26863997
H       -2.16601899      -1.56681666       0.56667659
H       -0.74421103      -0.21502237       1.98242286
17
Frame=8 idx=008507 GeodesicLength=0.40703477279510286 rxn_smarts="[C:1]([C@@:2]1([H:11])[C:3]([H:12])([H:13])[C@@:4]2([H:14])[O:5][C:6]([H:15])([H:16])[C@@:7]12[H:17])([H:8])([H:9])[H:10]>>[C:1]([C@@:2]1([H:11])[C:3]([H:12])([H:13])[C:4][C@:7]1([C:6]([O:5][H:14])([H:15])[H:16])[H:17])([H:8])([H:9])[H:10]"
C        1.70466548      -0.56895251      -0.38453429
C        0.84766289       0.34385739       0.47007816
C        0.16918795       1.55515695      -0.21382525
C       -1.19937169       1.07141997       0.17823643
O       -1.67056862      -0.34545991      -1.05358644
C       -1.28312090      -1.16365855       0.05991779
C       -0.56936736      -0.12339836       0.90795788
H        2.00804734      -1.46187537       0.16743740
H        2.61458576      -0.05365540      -0.70003245
H        1.16543853      -0.88237231      -1.28102532
H        1.41691774       0.66201531       1.34614595
H        0.40822464       2.55064398       0.16727121
H        0.24213657       1.57193565      -1.30652297
H       -2.27891387       0.63625955      -0.62453214
H       -0.66818405      -1.99862890      -0.27996317
H       -2.16421759      -1.56970118       0.56689164
H       -0.74312283      -0.22358631       1.98008557
17
Frame=9 idx=008507 GeodesicLength=0.45779978465286747 rxn_smarts="[C:1]([C@@:2]1([H:11])[C:3]([H:12])([H:13])[C@@:4]2([H:14])[O:5][C:6]([H:15])([H:16])[C@@:7]12[H:17])([H:8])([H:9])[H:10]>>[C:1]([C@@:2]1([H:11])[C:3]([H:12])([H:13])[C:4][C@:7]1([C:6]([O:5][H:14])([H:15])[H:16])[H:17])([H:8])([H:9])[H:10]"
C        1.71202400      -0.56788333      -0.38093671
C        0.84943496       0.34265887       0.47043019
C        0.17004622       1.55365017      -0.21264110
C       -1.19775504       1.07123621       0.18359048
O       -1.68181197      -0.33836318      -1.04857722
C       -1.28535474      -1.16283266       0.05616415
C       -0.56682158      -0.12619806       0.90633424
H        2.01666650      -1.45931592       0.17273576
H        2.62129126      -0.05015577      -0.69435740
H        1.17528681      -0.88349938      -1.27820003
H        1.41439751       0.66273250       1.34862454
H        0.41694504       2.55306527       0.15186399
H        0.23104220       1.55378099      -1.30676142
H       -2.29979417       0.65107439      -0.62162043
H       -0.67121723      -1.99509110      -0.29140985
H       -2.16235014      -1.57268188       0.56705933
H       -0.74202962      -0.23217711       1.97770150
17
Frame=10 idx=008507 GeodesicLength=0.5085491402699801 rxn_smarts="[C:1]([C@@:2]1([H:11])[C:3]([H:12])([H:13])[C@@:4]2([H:14])[O:5][C:6]([H:15])([H:16])[C@@:7]12[H:17])([H:8])([H:9])[H:10]>>[C:1]([C@@:2]1([H:11])[C:3]([H:12])([H:13])[C:4][C@:7]1([C:6]([O:5][H:14])([H:15])[H:16])[H:17])([H:8])([H:9])[H:10]"
C        1.71940395      -0.56679337      -0.37730218
C        0.85120580       0.34144475       0.47078200
C        0.17088261       1.55209895      -0.21152290
C       -1.19613229       1.07100035       0.18896090
O       -1.69317353      -0.33126644      -1.04336641
C       -1.28759268      -1.16200809       0.05239398
C       -0.56427333      -0.12903645       0.90469333
H        2.02531901      -1.45671029       0.17809318
H        2.62798923      -0.04660991      -0.68865348
H        1.18519831      -0.88463939      -1.27533701
H        1.41185180       0.66346763       1.35107627
H        0.42559738       2.55522260       0.13607611
H        0.22003501       1.53564209      -1.30668754
H       -2.32071768       0.66617289      -0.61867236
H       -0.67425728      -1.99142977      -0.30297903
H       -2.16040912      -1.57575860       0.56717619
H       -0.74092719      -0.24079695       1.97526892
17
Frame=11 idx=008507 GeodesicLength=0.5592867119669318 rxn_smarts="[C:1]([C@@:2]1([H:11])[C:3]([H:12])([H:13])[C@@:4]2([H:14])[O:5][C:6]([H:15])([H:16])[C@@:7]12[H:17])([H:8])([H:9])[H:10]>>[C:1]([C@@:2]1([H:11])[C:3]([H:12])([H:13])[C:4][C@:7]1([C:6]([O:5][H:14])([H:15])[H:16])[H:17])([H:8])([H:9])[H:10]"
C        1.72680528      -0.56568129      -0.37363155
C        0.85297655       0.34021586       0.47113605
C        0.17169837       1.55050499      -0.21046870
C       -1.19450224       1.07071269       0.19435248
O       -1.70464918      -0.32417302      -1.03794950
C       -1.28983597      -1.16118706       0.04860848
C       -0.56172266      -0.13191489       0.90303900
H        2.03400368      -1.45405855       0.18350854
H        2.63468069      -0.04301529      -0.68292187
H        1.19517241      -0.88579027      -1.27243859
H        1.40928266       0.66422184       1.35350472
H        0.43417871       2.55710944       0.11990709
H        0.20911379       1.51752066      -1.30630883
H       -2.34168375       0.68156422      -0.61570193
H       -0.67730702      -1.98764451      -0.31467045
H       -2.15839589      -1.57893609       0.56724137
H       -0.73981541      -0.24944871       1.97279369
17
Frame=12 idx=008507 GeodesicLength=0.6100010677812755 rxn_smarts="[C:1]([C@@:2]1([H:11])[C:3]([H:12])([H:13])[C@@:4]2([H:14])[O:5][C:6]([H:15])([H:16])[C@@:7]12[H:17])([H:8])([H:9])[H:10]>>[C:1]([C@@:2]1([H:11])[C:3]([H:12])([H:13])[C:4][C@:7]1([C:6]([O:5][H:14])([H:15])[H:16])[H:17])([H:8])([H:9])[H:10]"
C        1.73422480      -0.56454716      -0.36992328
C        0.85474566       0.33896827       0.47149094
C        0.17248761       1.54886152      -0.20947512
C       -1.19286514       1.07037022       0.19976646
O       -1.71622824      -0.31708026      -1.03231499
C       -1.29207788      -1.16036207       0.04481015
C       -0.55916623      -0.13483265       0.90136847
H        2.04272045      -1.45135870       0.18897898
H        2.64135849      -0.03937623      -0.67715993
H        1.20520590      -0.88694734      -1.26949761
H        1.40668874       0.66498667       1.35590270
H        0.44267155       2.55870237       0.10336063
H        0.19827119       1.49941438      -1.30562255
H       -2.36268857       0.69725935      -0.61272564
H       -0.68035955      -1.98372270      -0.32647695
H       -2.15630040      -1.58220429       0.56725076
H       -0.73868837      -0.25813137       1.97026697
17
Frame=13 idx=008507 GeodesicLength=0.6607198284952248 rxn_smarts="[C:1]([C@@:2]1([H:11])[C:3]([H:12])([H:13])[C@@:4]2([H:14])[O:5][C:6]([H:15])([H:16])[C@@:7]12[H:17])([H:8])([H:9])[H:10]>>[C:1]([C@@:2]1([H:11])[C:3]([H:12])([H:13])[C:4][C@:7]1([C:6]([O:5][H:14])([H:15])[H:16])[H:17])([H:8])([H:9])[H:10]"
C        1.74167412      -0.56338895      -0.36616652
C        0.85651579       0.33770581       0.47185259
C        0.17325361       1.54716643      -0.20855347
C       -1.19121700       1.06998045       0.20522467
O       -1.72794242      -0.30997206      -1.02644967
C       -1.29432563      -1.15953480       0.04098552
C       -0.55660459      -0.13779766       0.89968567
H        2.05148105      -1.44860508       0.19452600
H        2.64803861      -0.03568491      -0.67135308
H        1.21531383      -0.88811746      -1.26650837
H        1.40406702       0.66577811       1.35828191
H        0.45109192       2.55999920       0.08639384
H        0.18749511       1.48129525      -1.30465192
H       -2.38375442       0.71328541      -0.60971537
H       -0.68342430      -1.97965039      -0.33844536
H       -2.15411989      -1.58558809       0.56719568
H       -0.73754280      -0.26687127       1.96769787
17
Frame=14 idx=008507 GeodesicLength=0.7114262841991219 rxn_smarts="[C:1]([C@@:2]1([H:11])[C:3]([H:12])([H:13])[C@@:4]2([H:14])[O:5][C:6]([H:15])([H:16])[C@@:7]12[H:17])([H:8])([H:9])[H:10]>>[C:1]([C@@:2]1([H:11])[C:3]([H:12])([H:13])[C:4][C@:7]1([C:6]([O:5][H:14])([H:15])[H:16])[H:17])([H:8])([H:9])[H:10]"
C        1.74914057      -0.56220533      -0.36237576
C        0.85828725       0.33642768       0.47222084
C        0.17399751       1.54542832      -0.20768867
C       -1.18955822       1.06953664       0.21071568
O       -1.73975125      -0.30287493      -1.02035812
C       -1.29657601      -1.15871128       0.03715210
C       -0.55403741      -0.14080534       0.89799710
H        2.06026918      -1.44580472       0.20012421
H        2.65470708      -0.03194169      -0.66552080
H        1.22547792      -0.88928933      -1.26348491
H        1.40142627       0.66658442       1.36064022
H        0.45941924       2.56099204       0.06905130
H        0.17679634       1.46319773      -1.30338824
H       -2.40485402       0.72963485      -0.60673726
H       -0.68650032      -1.97544420      -0.35052682
H       -2.15186197      -1.58907684       0.56708535
H       -0.73638218      -0.27564802       1.96509378
17
Frame=15 idx=008507 GeodesicLength=0.7621290464303003 rxn_smarts="[C:1]([C@@:2]1([H:11])[C:3]([H:12])([H:13])[C@@:4]2([H:14])[O:5][C:6]([H:15])([H:16])[C@@:7]12[H:17])([H:8])([H:9])[H:10]>>[C:1]([C@@:2]1([H:11])[C:3]([H:12])([H:13])[C:4][C@:7]1([C:6]([O:5][H:14])([H:15])[H:16])[H:17])([H:8])([H:9])[H:10]"
C        1.75663380      -0.56099603      -0.35853481
C        0.86005890       0.33513082       0.47259619
C        0.17471198       1.54363087      -0.20688874
C       -1.18788794       1.06904111       0.21625639
O       -1.75168194      -0.29576243      -1.01401364
C       -1.29882472      -1.15787678       0.03329638
C       -0.55146161      -0.14385971       0.89629615
H        2.06909751      -1.44294800       0.20579398
H        2.66137180      -0.02815003      -0.65964079
H        1.23571371      -0.89046412      -1.26040629
H        1.39875927       0.66740762       1.36297244
H        0.46764755       2.56165222       0.05128765
H        0.16615451       1.44508223      -1.30183610
H       -2.42600843       0.74633930      -0.60376097
H       -0.68958480      -1.97106802      -0.36276573
H       -2.14950228      -1.59267638       0.56690763
H       -0.73519732      -0.28448268       1.96244026
17
Frame=16 idx=008507 GeodesicLength=0.8128378747337449 rxn_smarts="[C:1]([C@@:2]1([H:11])[C:3]([H:12])([H:13])[C@@:4]2([H:14])[O:5][C:6]([H:15])([H:16])[C@@:7]12[H:17])([H:8])([H:9])[H:10]>>[C:1]([C@@:2]1([H:11])[C:3]([H:12])([H:13])[C:4][C@:7]1([C:6]([O:5][H:14])([H:15])[H:16])[H:17])([H:8])([H:9])[H:10]"
C        1.76415318      -0.55976000      -0.35464670
C        0.86183330       0.33381827       0.47298260
C        0.17540128       1.54178104      -0.20615411
C       -1.18620287       1.06849584       0.22185358
O       -1.76373172      -0.28864163      -1.00741315
C       -1.30107622      -1.15703893       0.02942088
C       -0.54887707      -0.14696375       0.89459108
H        2.07796475      -1.44003727       0.21153530
H        2.66803385      -0.02430316      -0.65371736
H        1.24601868      -0.89164299      -1.25728029
H        1.39607033       0.66825337       1.36528737
H        0.47577636       2.56197941       0.03310544
H        0.15557030       1.42695661      -1.30000705
H       -2.44721440       0.76340992      -0.60081026
H       -0.69268522      -1.96652673      -0.37516260
H       -2.14704681      -1.59639979       0.56666343
H       -0.73398773      -0.29338018       1.95975184
