14
Frame=0 idx=009259 GeodesicLength=0.0 rxn_smarts="[C:1]([C@@:2]([C:3](=[O:4])[H:12])([C:5](=[O:6])[N:7]([H:13])[H:14])[H:11])([H:8])([H:9])[H:10]>>[C-:5]#[O+:6].[C:1](/[C:2](=[C:3](\[O:4][N:7]([H:13])[H:14])[H:12])[H:11])([H:8])([H:9])[H:10]"
C       -1.27039002      -1.25573999      -0.21939057
C       -1.11552828       0.19186803      -0.52027100
C       -0.59341139       1.11192023       0.36602693
O        0.07699718       0.75168929       1.37722688
C        1.21818430       0.04764001      -1.09335515
O        1.87003684       0.32266364      -1.97860027
N        2.07849765       0.37408039       0.86044027
H       -0.61105571      -1.55664748       0.59172596
H       -2.30354441      -1.44771082       0.08819369
H       -1.07740027      -1.87140467      -1.09862085
H       -1.61468611       0.58186357      -1.40379276
H       -0.63141605       2.17495300       0.09694225
H        1.98024300      -0.51096058       1.35465768
H        1.99347322       1.08578533       1.57881700
14
Frame=1 idx=009259 GeodesicLength=0.08955063752301098 rxn_smarts="[C:1]([C@@:2]([C:3](=[O:4])[H:12])([C:5](=[O:6])[N:7]([H:13])[H:14])[H:11])([H:8])([H:9])[H:10]>>[C-:5]#[O+:6].[C:1](/[C:2](=[C:3](\[O:4][N:7]([H:13])[H:14])[H:12])[H:11])([H:8])([H:9])[H:10]"
C       -1.25640989      -1.25640228      -0.20480785
C       -1.08918919       0.18499955      -0.53227069
C       -0.60743317       1.12636639       0.35815086
O        0.05620910       0.78904082       1.38261772
C        1.22432031       0.07633124      -1.10119358
O        1.85936879       0.40789526      -1.98211076
N        2.05077358       0.30871681       0.85449235
H       -0.61379567      -1.54957730       0.62209061
H       -2.29367144      -1.43829563       0.09442079
H       -1.05538615      -1.89019505      -1.06921623
H       -1.60501663       0.56063493      -1.41264526
H       -0.64447014       2.18445233       0.07080636
H        1.94422615      -0.55743006       1.37723794
H        2.03047435       1.05346300       1.54242775
14
Frame=2 idx=009259 GeodesicLength=0.17880686195540563 rxn_smarts="[C:1]([C@@:2]([C:3](=[O:4])[H:12])([C:5](=[O:6])[N:7]([H:13])[H:14])[H:11])([H:8])([H:9])[H:10]>>[C-:5]#[O+:6].[C:1](/[C:2](=[C:3](\[O:4][N:7]([H:13])[H:14])[H:12])[H:11])([H:8])([H:9])[H:10]"
C       -1.24323023      -1.25660702      -0.19036012
C       -1.06243098       0.17817808      -0.54332946
C       -0.62146311       1.13985644       0.35032066
O        0.03679380       0.82576664       1.38661267
C        1.23125433       0.10336004      -1.10796184
O        1.84991548       0.49091261      -1.98050019
N        2.02120579       0.24701007       0.84717750
H       -0.61879055      -1.54230781       0.65261223
H       -2.28490699      -1.42833573       0.09882096
H       -1.03363433      -1.90803432      -1.03946215
H       -1.59293804       0.53932606      -1.42132250
H       -0.66112141       2.19328925       0.04735908
H        1.91145278      -0.60051098       1.39695536
H        2.06789347       1.01809668       1.50307781
14
Frame=3 idx=009259 GeodesicLength=0.2678469341463057 rxn_smarts="[C:1]([C@@:2]([C:3](=[O:4])[H:12])([C:5](=[O:6])[N:7]([H:13])[H:14])[H:11])([H:8])([H:9])[H:10]>>[C-:5]#[O+:6].[C:1](/[C:2](=[C:3](\[O:4][N:7]([H:13])[H:14])[H:12])[H:11])([H:8])([H:9])[H:10]"
C       -1.23082070      -1.25641077      -0.17604996
C       -1.03544771       0.17141620      -0.55336266
C       -0.63563145       1.15243783       0.34257347
O        0.01837102       0.86189558       1.38944506
C        1.23887791       0.12896339      -1.11355124
O        1.84117932       0.57168316      -1.97408107
N        1.99015116       0.18921114       0.83886872
H       -0.62576591      -1.53484800       0.68303483
H       -2.27707398      -1.41804707       0.10163820
H       -1.01229069      -1.92490575      -1.00945871
H       -1.57866251       0.51797615      -1.42980908
H       -0.68040041       2.20137161       0.02571201
H        1.88206247      -0.64048444       1.41367819
H        2.10545148       0.97974096       1.46136223
14
Frame=4 idx=009259 GeodesicLength=0.3567349023838441 rxn_smarts="[C:1]([C@@:2]([C:3](=[O:4])[H:12])([C:5](=[O:6])[N:7]([H:13])[H:14])[H:11])([H:8])([H:9])[H:10]>>[C-:5]#[O+:6].[C:1](/[C:2](=[C:3](\[O:4][N:7]([H:13])[H:14])[H:12])[H:11])([H:8])([H:9])[H:10]"
C       -1.21913472      -1.25589157      -0.16186709
C       -1.00840202       0.16473884      -0.56234723
C       -0.65003397       1.16422664       0.33488580
O        0.00059029       0.89755708       1.39132066
C        1.24708782       0.15339422      -1.11789771
O        1.83272877       0.65017474      -1.96321250
N        1.95799765       0.13552718       0.82994635
H       -0.63440161      -1.52723030       0.71316675
H       -2.26999763      -1.40764743       0.10314553
H       -0.99149602      -1.94086360      -0.97929299
H       -1.56244412       0.49661439      -1.43813754
H       -0.70150636       2.20869764       0.00512418
H        1.85602625      -0.67773320       1.42720776
H        2.14298566       0.93843538       1.41795805
14
Frame=5 idx=009259 GeodesicLength=0.4455459267418843 rxn_smarts="[C:1]([C@@:2]([C:3](=[O:4])[H:12])([C:5](=[O:6])[N:7]([H:13])[H:14])[H:11])([H:8])([H:9])[H:10]>>[C-:5]#[O+:6].[C:1](/[C:2](=[C:3](\[O:4][N:7]([H:13])[H:14])[H:12])[H:11])([H:8])([H:9])[H:10]"
C       -1.20805124      -1.25503678      -0.14781342
C       -0.98139445       0.15816178      -0.57019949
C       -0.66475302       1.17523184       0.32725224
O       -0.01700054       0.93272881       1.39240338
C        1.25586245       0.17679193      -1.12080230
O        1.82405337       0.72628032      -1.94819892
N        1.92502405       0.08606963       0.82067450
H       -0.64431530      -1.51941991       0.74272714
H       -2.26342547      -1.39718626       0.10362246
H       -0.97132417      -1.95580902      -0.94908397
H       -1.54439132       0.47526925      -1.44620290
H       -0.72358696       2.21511611      -0.01494812
H        1.83313139      -0.71267085       1.43745739
H        2.18017121       0.89447315       1.37311201
14
Frame=6 idx=009259 GeodesicLength=0.5342540414391247 rxn_smarts="[C:1]([C@@:2]([C:3](=[O:4])[H:12])([C:5](=[O:6])[N:7]([H:13])[H:14])[H:11])([H:8])([H:9])[H:10]>>[C-:5]#[O+:6].[C:1](/[C:2](=[C:3](\[O:4][N:7]([H:13])[H:14])[H:12])[H:11])([H:8])([H:9])[H:10]"
C       -1.19747858      -1.25388621      -0.13386996
C       -0.95450745       0.15175799      -0.57697211
C       -0.67986235       1.18562937       0.31959938
O       -0.03471509       0.96765319       1.39282529
C        1.26508462       0.19948005      -1.12228547
O        1.81520036       0.79959336      -1.92954662
N        1.89164978       0.04103879       0.81139586
H       -0.65510901      -1.51144765       0.77159715
H       -2.25717659      -1.38681851       0.10338444
H       -0.95185277      -1.96980350      -0.91890130
H       -1.52480151       0.45397873      -1.45403252
H       -0.74657046       2.22077486      -0.03479330
H        1.81309220      -0.74568823       1.44402972
H        2.21704684       0.84773774       1.32756943
14
Frame=7 idx=009259 GeodesicLength=0.6229257245692411 rxn_smarts="[C:1]([C@@:2]([C:3](=[O:4])[H:12])([C:5](=[O:6])[N:7]([H:13])[H:14])[H:11])([H:8])([H:9])[H:10]>>[C-:5]#[O+:6].[C:1](/[C:2](=[C:3](\[O:4][N:7]([H:13])[H:14])[H:12])[H:11])([H:8])([H:9])[H:10]"
C       -1.18727098      -1.25242270      -0.11997563
C       -0.92776157       0.14555311      -0.58266165
C       -0.69538974       1.19550002       0.31182496
O       -0.05289256       1.00248086       1.39263874
C        1.27472543       0.22160900      -1.12228711
O        1.80595548       0.87019141      -1.90755791
N        1.85817541       0.00042353       0.80235565
H       -0.66644205      -1.50325404       0.79971608
H       -2.25103511      -1.37656040       0.10271020
H       -0.93304421      -1.98284070      -0.88873637
H       -1.50379213       0.43270420      -1.46157730
H       -0.77020109       2.22566454      -0.05474832
H        1.79540451      -0.77724640       1.44671081
H        2.25356862       0.79819755       1.28158785
14
Frame=8 idx=009259 GeodesicLength=0.7115920090608742 rxn_smarts="[C:1]([C@@:2]([C:3](=[O:4])[H:12])([C:5](=[O:6])[N:7]([H:13])[H:14])[H:11])([H:8])([H:9])[H:10]>>[C-:5]#[O+:6].[C:1](/[C:2](=[C:3](\[O:4][N:7]([H:13])[H:14])[H:12])[H:11])([H:8])([H:9])[H:10]"
C       -1.17732360      -1.25067834      -0.10607930
C       -0.90119290       0.13958084      -0.58729577
C       -0.71135524       1.20495443       0.30381961
O       -0.07182683       1.03737630       1.39190656
C        1.28474951       0.24335191      -1.12076822
O        1.79618375       0.93821783      -1.88251311
N        1.82494179      -0.03578668       0.79383131
H       -0.67798824      -1.49486421       0.82706660
H       -2.24485953      -1.36648285       0.10186058
H       -0.91491858      -1.99497633      -0.85860979
H       -1.48152792       0.41142434      -1.46883502
H       -0.79426292       2.22985345      -0.07511497
H        1.77957051      -0.80778358       1.44540327
H        2.28981019       0.74581288       1.23532824
14
Frame=9 idx=009259 GeodesicLength=0.8003127148127706 rxn_smarts="[C:1]([C@@:2]([C:3](=[O:4])[H:12])([C:5](=[O:6])[N:7]([H:13])[H:14])[H:11])([H:8])([H:9])[H:10]>>[C-:5]#[O+:6].[C:1](/[C:2](=[C:3](\[O:4][N:7]([H:13])[H:14])[H:12])[H:11])([H:8])([H:9])[H:10]"
C       -1.16745460      -1.24861190      -0.09213504
C       -0.87478601       0.13387898      -0.59083777
C       -0.72779326       1.21402752       0.29554157
O       -0.09188322       1.07238139       1.39070877
C        1.29513811       0.26484091      -1.11764116
O        1.78575800       1.00367445      -1.85466993
N        1.79214996      -0.06762322       0.78598370
H       -0.68943127      -1.48621707       0.85360988
H       -2.23841977      -1.35655823       0.10104094
H       -0.89735351      -2.00616416      -0.82854571
H       -1.45807267       0.39012937      -1.47567503
H       -0.81847376       2.23331865      -0.09607334
H        1.76499103      -0.83764877       1.44006674
H        2.32563096       0.69057209       1.18862637
14
Frame=10 idx=009259 GeodesicLength=0.8890726132995339 rxn_smarts="[C:1]([C@@:2]([C:3](=[O:4])[H:12])([C:5](=[O:6])[N:7]([H:13])[H:14])[H:11])([H:8])([H:9])[H:10]>>[C-:5]#[O+:6].[C:1](/[C:2](=[C:3](\[O:4][N:7]([H:13])[H:14])[H:12])[H:11])([H:8])([H:9])[H:10]"
C       -1.15755558      -1.24625641      -0.07805129
C       -0.84854726       0.12849586      -0.59333153
C       -0.74472480       1.22285203       0.28685808
O       -0.11331261       1.10772270       1.38903515
C        1.30581166       0.28630757      -1.11293933
O        1.77481878       1.06679310      -1.82419414
N        1.76013104      -0.09509631       0.77909228
H       -0.70049601      -1.47733837       0.87946489
H       -2.23161660      -1.34688473       0.10049985
H       -0.88029239      -2.01648142      -0.79849243
H       -1.43357447       0.36877175      -1.48210883
H       -0.84288108       2.23617098      -0.11782732
H        1.75111456      -0.86716727       1.43050664
H        2.36112474       0.63211053       1.14148800
14
Frame=11 idx=009259 GeodesicLength=0.9779708892344436 rxn_smarts="[C:1]([C@@:2]([C:3](=[O:4])[H:12])([C:5](=[O:6])[N:7]([H:13])[H:14])[H:11])([H:8])([H:9])[H:10]>>[C-:5]#[O+:6].[C:1](/[C:2](=[C:3](\[O:4][N:7]([H:13])[H:14])[H:12])[H:11])([H:8])([H:9])[H:10]"
C       -1.14741923      -1.24357032      -0.06372153
C       -0.82241861       0.12346746      -0.59473814
C       -0.76216645       1.23147151       0.27770112
O       -0.13639768       1.14349808       1.38689795
C        1.31675568       0.30791219      -1.10663763
O        1.76336725       1.12781373      -1.79113844
N        1.72911158      -0.11828830       0.77328246
H       -0.71097476      -1.46811465       0.90476507
H       -2.22423975      -1.33745637       0.10036536
H       -0.86346494      -2.02591780      -0.76833268
H       -1.40805236       0.34729521      -1.48801387
H       -0.86737639       2.23840047      -0.14053296
H        1.73718737      -0.89661540       1.41660681
H        2.39608828       0.57010418       1.09349648
14
Frame=12 idx=009259 GeodesicLength=1.0670846108746257 rxn_smarts="[C:1]([C@@:2]([C:3](=[O:4])[H:12])([C:5](=[O:6])[N:7]([H:13])[H:14])[H:11])([H:8])([H:9])[H:10]>>[C-:5]#[O+:6].[C:1](/[C:2](=[C:3](\[O:4][N:7]([H:13])[H:14])[H:12])[H:11])([H:8])([H:9])[H:10]"
C       -1.13685228      -1.24055432      -0.04899447
C       -0.79633541       0.11883715      -0.59504998
C       -0.78011420       1.23998198       0.26795606
O       -0.16132441       1.17992039       1.38424273
C        1.32791984       0.32989224      -1.09878397
O        1.75153788       1.18713589      -1.75545866
N        1.69940713      -0.13725873       0.76873300
H       -0.72067817      -1.45846487       0.92975532
H       -2.21611821      -1.32836084       0.10079015
H       -0.84659016      -2.03453036      -0.73786715
H       -1.38154746       0.32561368      -1.49333759
H       -0.89200620       2.24005832      -0.16437724
H        1.72238640      -0.92622429       1.39806381
H        2.43031524       0.50395375       1.04432799
14
Frame=13 idx=009259 GeodesicLength=1.1565610245191793 rxn_smarts="[C:1]([C@@:2]([C:3](=[O:4])[H:12])([C:5](=[O:6])[N:7]([H:13])[H:14])[H:11])([H:8])([H:9])[H:10]>>[C-:5]#[O+:6].[C:1](/[C:2](=[C:3](\[O:4][N:7]([H:13])[H:14])[H:12])[H:11])([H:8])([H:9])[H:10]"
C       -1.12563010      -1.23718845      -0.03370014
C       -0.77018983       0.11464876      -0.59422310
C       -0.79852745       1.24842592       0.25754681
O       -0.18822747       1.21712232       1.38100817
C        1.33930121       0.35247496      -1.08944973
O        1.73950215       1.24516866      -1.71704315
N        1.67131763      -0.15213317       0.76551396
H       -0.72947570      -1.44825559       0.95471290
H       -2.20705951      -1.31968210       0.10186957
H       -0.82928325      -2.04234612      -0.70684642
H       -1.35403274       0.30365203      -1.49796986
H       -0.91676953       2.24114437      -0.18948468
H        1.70582034      -0.95610776       1.37460906
H        2.46325426       0.43307619       0.99345661
14
Frame=14 idx=009259 GeodesicLength=1.2466732527199709 rxn_smarts="[C:1]([C@@:2]([C:3](=[O:4])[H:12])([C:5](=[O:6])[N:7]([H:13])[H:14])[H:11])([H:8])([H:9])[H:10]>>[C-:5]#[O+:6].[C:1](/[C:2](=[C:3](\[O:4][N:7]([H:13])[H:14])[H:12])[H:11])([H:8])([H:9])[H:10]"
C       -1.11347311      -1.23343050      -0.01768188
C       -0.74382732       0.11094517      -0.59217269
C       -0.81731498       1.25678693       0.24646257
O       -0.21718198       1.25512679       1.37714583
C        1.35087886       0.37582806      -1.07874161
O        1.72744556       1.30220650      -1.67572170
N        1.64519704      -0.16315505       0.76356981
H       -0.73722842      -1.43733838       0.97986861
H       -2.19679390      -1.31147325       0.10366022
H       -0.81109416      -2.04934197      -0.67503344
H       -1.32542758       0.28136437      -1.50171616
H       -0.94151868       2.24158837      -0.21588973
H        1.68647472      -0.98616500       1.34604621
H        2.49386394       0.35705797       0.94020396
14
Frame=15 idx=009259 GeodesicLength=1.337769052859783 rxn_smarts="[C:1]([C@@:2]([C:3](=[O:4])[H:12])([C:5](=[O:6])[N:7]([H:13])[H:14])[H:11])([H:8])([H:9])[H:10]>>[C-:5]#[O+:6].[C:1](/[C:2](=[C:3](\[O:4][N:7]([H:13])[H:14])[H:12])[H:11])([H:8])([H:9])[H:10]"
C       -1.10014919      -1.22928567      -0.00078490
C       -0.71708358       0.10776593      -0.58884735
C       -0.83630205       1.26503008       0.23469602
O       -0.24804662       1.29392237       1.37257605
C        1.36268020       0.40012158      -1.06689308
O        1.71562960       1.35864325      -1.63129158
N        1.62153509      -0.17077659       0.76272093
H       -0.74383658      -1.42564341       1.00548032
H       -2.18513126      -1.30384045       0.10621585
H       -0.79163070      -2.05554421      -0.64218757
H       -1.29568128       0.25873849      -1.50443588
H       -0.96618587       2.24133068      -0.24359223
H        1.66333484      -1.01609865       1.31233273
H        2.52086739       0.27563662       0.88401069
14
Frame=16 idx=009259 GeodesicLength=1.4308967695308707 rxn_smarts="[C:1]([C@@:2]([C:3](=[O:4])[H:12])([C:5](=[O:6])[N:7]([H:13])[H:14])[H:11])([H:8])([H:9])[H:10]>>[C-:5]#[O+:6].[C:1](/[C:2](=[C:3](\[O:4][N:7]([H:13])[H:14])[H:12])[H:11])([H:8])([H:9])[H:10]"
C       -1.08525338      -1.22464721       0.01709051
C       -0.68967009       0.10513448      -0.58408391
C       -0.85516704       1.27307413       0.22237303
O       -0.28054040       1.33346878       1.36713691
C        1.37454687       0.42528402      -1.05403446
O        1.70406680       1.41438231      -1.58343267
N        1.60053602      -0.17570746       0.76253124
H       -0.74929966      -1.41284636       1.03166597
H       -2.17155288      -1.29677363       0.10929186
H       -0.77017211      -2.06089215      -0.60799274
H       -1.26450538       0.23574809      -1.50573013
H       -0.99054075       2.24021236      -0.27230461
H        1.63535529      -1.04545146       1.27327525
H        2.54219672       0.18901411       0.82421373
