14
Frame=0 idx=007711 GeodesicLength=0.0 rxn_smarts="[C:1](/[N:2]=[C:3]1\[O:4][C@@:5]2([H:11])[C:6]([H:12])([H:13])[C@@:7]12[H:14])([H:8])([H:9])[H:10]>>[C:1](/[N:2]=[C:3]([C:7](=[C:6](\[C:5](=[O:4])[H:11])[H:13])/[H:14])\[H:12])([H:8])([H:9])[H:10]"
C        2.25771914       0.02971560       0.85772714
N        1.15754034       0.86672754       0.43996013
C        0.11266030       0.27528684       0.00338922
O        0.02750768      -0.70352001      -1.17763996
C       -1.30255569      -0.58652125      -1.22054088
C       -1.95088769      -0.22990833       0.01221222
C       -1.20868602       0.93387462      -0.29390735
H        2.83619843      -0.31879637      -0.00520857
H        2.92626820       0.59848228       1.50398985
H        1.91152260      -0.85967630       1.40294986
H       -1.83862472      -0.98931150      -2.07034827
H       -0.44280776      -0.64585434       0.77314921
H       -3.00999875      -0.33690299       0.22752906
H       -1.47585611       1.96640416      -0.45326163
14
Frame=1 idx=007711 GeodesicLength=0.08303242143755839 rxn_smarts="[C:1](/[N:2]=[C:3]1\[O:4][C@@:5]2([H:11])[C:6]([H:12])([H:13])[C@@:7]12[H:14])([H:8])([H:9])[H:10]>>[C:1](/[N:2]=[C:3]([C:7](=[C:6](\[C:5](=[O:4])[H:11])[H:13])/[H:14])\[H:12])([H:8])([H:9])[H:10]"
C        2.26623518       0.03529036       0.85670305
N        1.16148563       0.86625556       0.43894535
C        0.11867271       0.27188587       0.00571586
O        0.01475409      -0.73459253      -1.17894654
C       -1.31278106      -0.60006203      -1.22182724
C       -1.95526161      -0.22599409       0.01206506
C       -1.20033482       0.92971901      -0.29991125
H        2.87174902      -0.26928125      -0.00399227
H        2.90783714       0.59612275       1.53658609
H        1.92900399      -0.87919540       1.36412142
H       -1.85762101      -1.00642842      -2.06508228
H       -0.46100323      -0.64706777       0.78453812
H       -3.02023294      -0.30291583       0.20992439
H       -1.46250309       1.96626376      -0.43883978
14
Frame=2 idx=007711 GeodesicLength=0.1660183502829982 rxn_smarts="[C:1](/[N:2]=[C:3]1\[O:4][C@@:5]2([H:11])[C:6]([H:12])([H:13])[C@@:7]12[H:14])([H:8])([H:9])[H:10]>>[C:1](/[N:2]=[C:3]([C:7](=[C:6](\[C:5](=[O:4])[H:11])[H:13])/[H:14])\[H:12])([H:8])([H:9])[H:10]"
C        2.27476100       0.04088392       0.85557199
N        1.16565866       0.86595158       0.43760180
C        0.12482210       0.26860747       0.00799241
O        0.00147957      -0.76593933      -1.18010979
C       -1.32326129      -0.61368529      -1.22305372
C       -1.95958505      -0.22184682       0.01177657
C       -1.19183728       0.92549051      -0.30623339
H        2.90670516      -0.21875627      -0.00051906
H        2.88844350       0.59163520       1.56888051
H        1.94742229      -0.89748231       1.32372002
H       -1.87705974      -1.02357366      -2.05950633
H       -0.47936972      -0.64783843       0.79592915
H       -3.02920931      -0.26913608       0.19239468
H       -1.44896989       1.96568951      -0.42444484
14
Frame=3 idx=007711 GeodesicLength=0.24894244586386471 rxn_smarts="[C:1](/[N:2]=[C:3]1\[O:4][C@@:5]2([H:11])[C:6]([H:12])([H:13])[C@@:7]12[H:14])([H:8])([H:9])[H:10]>>[C:1](/[N:2]=[C:3]([C:7](=[C:6](\[C:5](=[O:4])[H:11])[H:13])/[H:14])\[H:12])([H:8])([H:9])[H:10]"
C        2.28331107       0.04650361       0.85433474
N        1.17006906       0.86583357       0.43593922
C        0.13111706       0.26546763       0.01023925
O       -0.01232371      -0.79752321      -1.18113540
C       -1.33399583      -0.62736444      -1.22421769
C       -1.96383992      -0.21749097       0.01135579
C       -1.18319876       0.92117988      -0.31282359
H        2.94097126      -0.16735110       0.00529794
H        2.86815332       0.58496915       1.60070922
H        1.96680973      -0.91438297       1.28184073
H       -1.89694334      -1.04068790      -2.05362094
H       -0.49788779      -0.64818120       0.80731483
H       -3.03697296      -0.23561668       0.17493360
H       -1.43526920       1.96464464      -0.41016769
14
Frame=4 idx=007711 GeodesicLength=0.3317803181980202 rxn_smarts="[C:1](/[N:2]=[C:3]1\[O:4][C@@:5]2([H:11])[C:6]([H:12])([H:13])[C@@:7]12[H:14])([H:8])([H:9])[H:10]>>[C:1](/[N:2]=[C:3]([C:7](=[C:6](\[C:5](=[O:4])[H:11])[H:13])/[H:14])\[H:12])([H:8])([H:9])[H:10]"
C        2.29188811       0.05216840       0.85301521
N        1.17475864       0.86590264       0.43386644
C        0.13757802       0.26246307       0.01243975
O       -0.02667557      -0.82929700      -1.18208479
C       -1.34499488      -0.64104807      -1.22534784
C       -1.96799813      -0.21296995       0.01080778
C       -1.17441978       0.91676648      -0.31962249
H        2.97447427      -0.11537418       0.01363105
H        2.84704141       0.57621971       1.63182128
H        1.98714035      -0.92966989       1.23869199
H       -1.91730099      -1.05767477      -2.04745170
H       -0.51651452      -0.64814455       0.81864407
H       -3.04355524      -0.20244123       0.15753901
H       -1.42142167       1.96309934      -0.39594975
14
Frame=5 idx=007711 GeodesicLength=0.4145178455733563 rxn_smarts="[C:1](/[N:2]=[C:3]1\[O:4][C@@:5]2([H:11])[C:6]([H:12])([H:13])[C@@:7]12[H:14])([H:8])([H:9])[H:10]>>[C:1](/[N:2]=[C:3]([C:7](=[C:6](\[C:5](=[O:4])[H:11])[H:13])/[H:14])\[H:12])([H:8])([H:9])[H:10]"
C        2.30051426       0.05787954       0.85159729
N        1.17969536       0.86618365       0.43150700
C        0.14419852       0.25961811       0.01466553
O       -0.04156963      -0.86123712      -1.18290713
C       -1.35624199      -0.65472898      -1.22641117
C       -1.97205887      -0.20829260       0.01015034
C       -1.16550880       0.91224645      -0.32657737
H        3.00709969      -0.06279355       0.02444097
H        2.82518810       0.56524933       1.66213497
H        2.00848695      -0.94329743       1.19426651
H       -1.93809474      -1.07450579      -2.04097715
H       -0.53526934      -0.64772611       0.82996404
H       -3.04901288      -0.16962165       0.14020819
H       -1.40742662       1.96102615      -0.38206202
14
Frame=6 idx=007711 GeodesicLength=0.49715929509002477 rxn_smarts="[C:1](/[N:2]=[C:3]1\[O:4][C@@:5]2([H:11])[C:6]([H:12])([H:13])[C@@:7]12[H:14])([H:8])([H:9])[H:10]>>[C:1](/[N:2]=[C:3]([C:7](=[C:6](\[C:5](=[O:4])[H:11])[H:13])/[H:14])\[H:12])([H:8])([H:9])[H:10]"
C        2.30920680       0.06365892       0.85010173
N        1.18490833       0.86666865       0.42881045
C        0.15099470       0.25691631       0.01692087
O       -0.05703257      -0.89333677      -1.18363124
C       -1.36775392      -0.66837830      -1.22742351
C       -1.97601273      -0.20348801       0.00938886
C       -1.15646190       0.90759820      -0.33364286
H        3.03882086      -0.00982526       0.03787032
H        2.80264352       0.55214066       1.69145430
H        2.03086947      -0.95509589       1.14867194
H       -1.95935821      -1.09112179      -2.03421135
H       -0.55413806      -0.64696635       0.84125452
H       -3.05339268      -0.13718756       0.12292260
H       -1.39329361       1.95841719      -0.36848664
14
Frame=7 idx=007711 GeodesicLength=0.5797267379643094 rxn_smarts="[C:1](/[N:2]=[C:3]1\[O:4][C@@:5]2([H:11])[C:6]([H:12])([H:13])[C@@:7]12[H:14])([H:8])([H:9])[H:10]>>[C:1](/[N:2]=[C:3]([C:7](=[C:6](\[C:5](=[O:4])[H:11])[H:13])/[H:14])\[H:12])([H:8])([H:9])[H:10]"
C        2.31798374       0.06951356       0.84851843
N        1.19038366       0.86738759       0.42586642
C        0.15796784       0.25438035       0.01925986
O       -0.07307044      -0.92560451      -1.18420758
C       -1.37952306      -0.68200283      -1.22835315
C       -1.97986029      -0.19855556       0.00854506
C       -1.14727653       0.90281756      -0.34078580
H        3.06956663       0.04358120       0.05391633
H        2.77946878       0.53676144       1.71973976
H        2.05433554      -0.96503850       1.10183374
H       -1.98107125      -1.10752099      -2.02712367
H       -0.57314303      -0.64584674       0.85256840
H       -3.05674433      -0.10514859       0.10568532
H       -1.37901725       1.95527602      -0.35546312
14
Frame=8 idx=007711 GeodesicLength=0.6621207885567217 rxn_smarts="[C:1](/[N:2]=[C:3]1\[O:4][C@@:5]2([H:11])[C:6]([H:12])([H:13])[C@@:7]12[H:14])([H:8])([H:9])[H:10]>>[C:1](/[N:2]=[C:3]([C:7](=[C:6](\[C:5](=[O:4])[H:11])[H:13])/[H:14])\[H:12])([H:8])([H:9])[H:10]"
C        2.32683963       0.07545692       0.84690938
N        1.19610956       0.86833980       0.42268146
C        0.16511383       0.25199996       0.02174504
O       -0.08962648      -0.95783648      -1.18482060
C       -1.39149607      -0.69546123      -1.22933363
C       -1.98356732      -0.19365481       0.00757993
C       -1.13800727       0.89786556      -0.34781688
H        3.09890977       0.09644872       0.07239767
H        2.75621478       0.51967716       1.74631735
H        2.07869744      -0.97271758       1.05483524
H       -2.00314187      -1.12336184      -2.01997081
H       -0.59222829      -0.64458979       0.86378626
H       -3.05908159      -0.07374450       0.08849294
H       -1.36473611       1.95157811      -0.34280336
14
Frame=9 idx=007711 GeodesicLength=0.7443331816420488 rxn_smarts="[C:1](/[N:2]=[C:3]1\[O:4][C@@:5]2([H:11])[C:6]([H:12])([H:13])[C@@:7]12[H:14])([H:8])([H:9])[H:10]>>[C:1](/[N:2]=[C:3]([C:7](=[C:6](\[C:5](=[O:4])[H:11])[H:13])/[H:14])\[H:12])([H:8])([H:9])[H:10]"
C        2.33578765       0.08151565       0.84528784
N        1.20212055       0.86951822       0.41925606
C        0.17244872       0.24977154       0.02439888
O       -0.10672999      -0.99003791      -1.18546393
C       -1.40368718      -0.70874384      -1.23035761
C       -1.98713981      -0.18879949       0.00649915
C       -1.12863118       0.89271359      -0.35470708
H        3.12689273       0.14869870       0.09330698
H        2.73294973       0.50097713       1.77115376
H        2.10388559      -0.97810007       1.00768035
H       -2.02559160      -1.13862519      -2.01273622
H       -0.61142053      -0.64320142       0.87490826
H       -3.06046096      -0.04299663       0.07134496
H       -1.35042371       1.94730973      -0.33057139
14
Frame=10 idx=007711 GeodesicLength=0.8264417432370061 rxn_smarts="[C:1](/[N:2]=[C:3]1\[O:4][C@@:5]2([H:11])[C:6]([H:12])([H:13])[C@@:7]12[H:14])([H:8])([H:9])[H:10]>>[C:1](/[N:2]=[C:3]([C:7](=[C:6](\[C:5](=[O:4])[H:11])[H:13])/[H:14])\[H:12])([H:8])([H:9])[H:10]"
C        2.34485325       0.08769294       0.84365070
N        1.20834818       0.87094455       0.41575623
C        0.17995352       0.24769587       0.02731956
O       -0.12436754      -1.02224677      -1.18610171
C       -1.41606866      -0.72186830      -1.23142823
C       -1.99059376      -0.18399689       0.00530734
C       -1.11915598       0.88736348      -0.36142731
H        3.15340133       0.20030281       0.11642634
H        2.70986232       0.48070106       1.79419900
H        2.12994439      -0.98124114       0.96047287
H       -2.04835377      -1.15329507      -2.00547630
H       -0.63077984      -0.64170863       0.88601657
H       -3.06093905      -0.01286871       0.05421014
H       -1.33610438       1.94252480      -0.31892520
14
Frame=11 idx=007711 GeodesicLength=0.9084576603373664 rxn_smarts="[C:1](/[N:2]=[C:3]1\[O:4][C@@:5]2([H:11])[C:6]([H:12])([H:13])[C@@:7]12[H:14])([H:8])([H:9])[H:10]>>[C:1](/[N:2]=[C:3]([C:7](=[C:6](\[C:5](=[O:4])[H:11])[H:13])/[H:14])\[H:12])([H:8])([H:9])[H:10]"
C        2.35405437       0.09400578       0.84200434
N        1.21477281       0.87261388       0.41226273
C        0.18762689       0.24576084       0.03056880
O       -0.14254134      -1.05448805      -1.18671328
C       -1.42862795      -0.73483599      -1.23254774
C       -1.99394677      -0.17926073       0.00399806
C       -1.10957045       0.88179214      -0.36795028
H        3.17840442       0.25115703       0.14164349
H        2.68709542       0.45895267       1.81537248
H        2.15684683      -0.98211325       0.91329757
H       -2.07139667      -1.16734444      -1.99821733
H       -0.65036599      -0.64013537       0.89713544
H       -3.06057185       0.01665339       0.03705651
H       -1.32177972       1.93724211      -0.30791080
14
Frame=12 idx=007711 GeodesicLength=0.9903986993378124 rxn_smarts="[C:1](/[N:2]=[C:3]1\[O:4][C@@:5]2([H:11])[C:6]([H:12])([H:13])[C@@:7]12[H:14])([H:8])([H:9])[H:10]>>[C:1](/[N:2]=[C:3]([C:7](=[C:6](\[C:5](=[O:4])[H:11])[H:13])/[H:14])\[H:12])([H:8])([H:9])[H:10]"
C        2.36340535       0.10048264       0.84037787
N        1.22141193       0.87452116       0.40881589
C        0.19547801       0.24396292       0.03418562
O       -0.16129858      -1.08675178      -1.18732685
C       -1.44138634      -0.74763594      -1.23374491
C       -1.99719530      -0.17462536       0.00255755
C       -1.09985481       0.87596061      -0.37424370
H        3.20186244       0.30108995       0.16886665
H        2.66484737       0.43589969       1.83460733
H        2.18449352      -0.98064600       0.86632440
H       -2.09474981      -1.18073048      -1.99101037
H       -0.67019885      -0.63851121       0.90825528
H       -3.05938114       0.04553354       0.01987519
H       -1.30743379       1.93145025      -0.29753995
14
Frame=13 idx=007711 GeodesicLength=1.0724143798941705 rxn_smarts="[C:1](/[N:2]=[C:3]1\[O:4][C@@:5]2([H:11])[C:6]([H:12])([H:13])[C@@:7]12[H:14])([H:8])([H:9])[H:10]>>[C:1](/[N:2]=[C:3]([C:7](=[C:6](\[C:5](=[O:4])[H:11])[H:13])/[H:14])\[H:12])([H:8])([H:9])[H:10]"
C        2.37292871       0.10712528       0.83875518
N        1.22817551       0.87669528       0.40562727
C        0.20348122       0.24230137       0.03828768
O       -0.18060802      -1.11913257      -1.18788506
C       -1.45429484      -0.76031377      -1.23502445
C       -2.00037659      -0.17008345       0.00098740
C       -1.09000578       0.86988323      -0.38029955
H        3.22369868       0.35010300       0.19784001
H        2.64331328       0.41155986       1.85187084
H        2.21291044      -0.97690107       0.81957993
H       -2.11830791      -1.19347931      -1.98392586
H       -0.69039776      -0.63685314       0.91948606
H       -3.05743060       0.07384477       0.00260884
H       -1.29308635       1.92525051      -0.28790829
14
Frame=14 idx=007711 GeodesicLength=1.1536628575686245 rxn_smarts="[C:1](/[N:2]=[C:3]1\[O:4][C@@:5]2([H:11])[C:6]([H:12])([H:13])[C@@:7]12[H:14])([H:8])([H:9])[H:10]>>[C:1](/[N:2]=[C:3]([C:7](=[C:6](\[C:5](=[O:4])[H:11])[H:13])/[H:14])\[H:12])([H:8])([H:9])[H:10]"
C        2.38257897       0.11399342       0.83744022
N        1.23508225       0.87886439       0.40240230
C        0.21157653       0.24052126       0.04306547
O       -0.20026026      -1.15064839      -1.18940060
C       -1.46719371      -0.77212323      -1.23710877
C       -2.00341995      -0.16628181      -0.00103094
C       -1.08024057       0.86332872      -0.38537532
H        3.24307451       0.39444156       0.22607743
H        2.62487908       0.39012616       1.86570585
H        2.24051110      -0.97075944       0.77834803
H       -2.14181171      -1.20407136      -1.97812367
H       -0.71078846      -0.63626471       0.93004332
H       -3.05472585       0.10069983      -0.01480533
H       -1.27926194       1.91817359      -0.27723801
14
Frame=15 idx=007711 GeodesicLength=1.235009111946138 rxn_smarts="[C:1](/[N:2]=[C:3]1\[O:4][C@@:5]2([H:11])[C:6]([H:12])([H:13])[C@@:7]12[H:14])([H:8])([H:9])[H:10]>>[C:1](/[N:2]=[C:3]([C:7](=[C:6](\[C:5](=[O:4])[H:11])[H:13])/[H:14])\[H:12])([H:8])([H:9])[H:10]"
C        2.39248167       0.12097337       0.83581380
N        1.24192236       0.88141311       0.40012509
C        0.21983332       0.23904872       0.04838286
O       -0.22070691      -1.18325077      -1.18952642
C       -1.48034778      -0.78448763      -1.23842106
C       -2.00649652      -0.16186583      -0.00301098
C       -1.07009982       0.85654017      -0.39095402
H        3.26171673       0.44170256       0.25802470
H        2.60521398       0.36341596       1.87913601
H        2.27034796      -0.96262654       0.73197833
H       -2.16565316      -1.21537407      -1.97112740
H       -0.73192931      -0.63441805       0.94143788
H       -3.05132660       0.12802169      -0.03254614
H       -1.26495592       1.91090732      -0.26931265
14
Frame=16 idx=007711 GeodesicLength=1.3164938432144777 rxn_smarts="[C:1](/[N:2]=[C:3]1\[O:4][C@@:5]2([H:11])[C:6]([H:12])([H:13])[C@@:7]12[H:14])([H:8])([H:9])[H:10]>>[C:1](/[N:2]=[C:3]([C:7](=[C:6](\[C:5](=[O:4])[H:11])[H:13])/[H:14])\[H:12])([H:8])([H:9])[H:10]"
C        2.40261859       0.12816726       0.83420883
N        1.24877994       0.88421246       0.39850066
C        0.22821443       0.23766847       0.05442990
O       -0.24180573      -1.21610795      -1.18948412
C       -1.49365198      -0.79677548      -1.23983634
C       -2.00955961      -0.15755069      -0.00518735
C       -1.05976214       0.84939632      -0.39626737
H        3.27869023       0.48792409       0.29128977
H        2.58684721       0.33564083       1.89054593
H        2.30082337      -0.95215001       0.68593690
H       -2.18965830      -1.22600794      -1.96436732
H       -0.75368382      -0.63253919       0.95302716
H       -3.04724286       0.15486288      -0.05054709
H       -1.25060932       1.90325895      -0.26224956
