13
Frame=0 idx=000950 GeodesicLength=0.0 rxn_smarts="[C:1]1([H:6])([H:7])[C:2]([H:8])([H:9])[C:3]([H:10])=[C:4]([H:11])[C:5]1([H:12])[H:13]>>[C:1]1([H:6])([H:7])[C:4]([C:3](=[C:2]([H:8])[H:9])[H:10])([H:11])[C:5]1([H:12])[H:13]"
C        0.23884582      -0.76093339       1.14287801
C       -1.60979329      -0.02819881      -0.53277826
C       -0.56983081       0.74473529      -0.97421750
C        0.67473036       0.82417457      -0.36346806
C        1.33167836      -0.36725921       0.27121825
H       -0.27093372      -1.70757726       1.05286548
H        0.03026670      -0.15883927       2.01655876
H       -2.38859143      -0.36580529      -1.21051454
H       -1.82540066      -0.09883443       0.51971794
H       -0.69658287       1.32223760      -1.89249533
H        1.23752718       1.75442056      -0.40174883
H        1.63510051      -1.12701678      -0.45119181
H        2.21298382      -0.03110363       0.82317583
13
Frame=1 idx=000950 GeodesicLength=0.06164942703167182 rxn_smarts="[C:1]1([H:6])([H:7])[C:2]([H:8])([H:9])[C:3]([H:10])=[C:4]([H:11])[C:5]1([H:12])[H:13]>>[C:1]1([H:6])([H:7])[C:4]([C:3](=[C:2]([H:8])[H:9])[H:10])([H:11])[C:5]1([H:12])[H:13]"
C        0.22541342      -0.74314357       1.12824392
C       -1.59967390      -0.03855270      -0.52547020
C       -0.56966364       0.75063307      -0.96951115
C        0.67192073       0.82769049      -0.35074376
C        1.33468380      -0.37138551       0.26204989
H       -0.27316222      -1.69742723       1.05324423
H        0.03917334      -0.15397460       2.01601494
H       -2.36020221      -0.40111712      -1.21133568
H       -1.84925499      -0.07222358       0.52200596
H       -0.69495231       1.32007524      -1.89229636
H        1.23318458       1.75893642      -0.38077272
H        1.62290146      -1.13000120      -0.46730220
H        2.21963197      -0.04950971       0.81587313
13
Frame=2 idx=000950 GeodesicLength=0.12341070426664753 rxn_smarts="[C:1]1([H:6])([H:7])[C:2]([H:8])([H:9])[C:3]([H:10])=[C:4]([H:11])[C:5]1([H:12])[H:13]>>[C:1]1([H:6])([H:7])[C:4]([C:3](=[C:2]([H:8])[H:9])[H:10])([H:11])[C:5]1([H:12])[H:13]"
C        0.21259199      -0.72551823       1.11398348
C       -1.58988890      -0.04786867      -0.51771444
C       -0.56946496       0.75592123      -0.96519165
C        0.66903658       0.83069586      -0.33841280
C        1.33735816      -0.37529987       0.25319768
H       -0.27460485      -1.68694564       1.05366061
H        0.04774459      -0.14978656       2.01489301
H       -2.33230697      -0.43408871      -1.21062845
H       -1.87258866      -0.04742077       0.52236898
H       -0.69335140       1.31750477      -1.89214500
H        1.22864576       1.76274377      -0.36033444
H        1.61126386      -1.13247600      -0.48250536
H        2.22556479      -0.06746119       0.80882837
13
Frame=3 idx=000950 GeodesicLength=0.184963496533298 rxn_smarts="[C:1]1([H:6])([H:7])[C:2]([H:8])([H:9])[C:3]([H:10])=[C:4]([H:11])[C:5]1([H:12])[H:13]>>[C:1]1([H:6])([H:7])[C:4]([C:3](=[C:2]([H:8])[H:9])[H:10])([H:11])[C:5]1([H:12])[H:13]"
C        0.20023808      -0.70821895       1.10032672
C       -1.58054055      -0.05638978      -0.50957797
C       -0.56910471       0.76073841      -0.96143733
C        0.66630253       0.83344615      -0.32661063
C        1.33977935      -0.37904191       0.24452502
H       -0.27571567      -1.67652154       1.05428921
H        0.05595270      -0.14616062       2.01373551
H       -2.30498409      -0.46546374      -1.20869910
H       -1.89558907      -0.02420112       0.52136257
H       -0.69168133       1.31500447      -1.89227743
H        1.22422379       1.76642402      -0.34035662
H        1.60010376      -1.13471442      -0.49724563
H        2.23101521      -0.08490097       0.80196568
13
Frame=4 idx=000950 GeodesicLength=0.24661228280243339 rxn_smarts="[C:1]1([H:6])([H:7])[C:2]([H:8])([H:9])[C:3]([H:10])=[C:4]([H:11])[C:5]1([H:12])[H:13]>>[C:1]1([H:6])([H:7])[C:4]([C:3](=[C:2]([H:8])[H:9])[H:10])([H:11])[C:5]1([H:12])[H:13]"
C        0.18845894      -0.69111295       1.08702234
C       -1.57150947      -0.06405019      -0.50113787
C       -0.56865886       0.76495897      -0.95812415
C        0.66355697       0.83571502      -0.31525533
C        1.34193445      -0.38266591       0.23608006
H       -0.27630832      -1.66574393       1.05488949
H        0.06395180      -0.14299810       2.01203094
H       -2.27792152      -0.49535444      -1.20551416
H       -1.91808135      -0.00204917       0.51881942
H       -0.69019711       1.31244744      -1.89232459
H        1.21946353       1.76957949      -0.32049753
H        1.58939221      -1.13665784      -0.51123266
H        2.23591872      -0.10206840       0.79524404
13
Frame=5 idx=000950 GeodesicLength=0.3081748697764906 rxn_smarts="[C:1]1([H:6])([H:7])[C:2]([H:8])([H:9])[C:3]([H:10])=[C:4]([H:11])[C:5]1([H:12])[H:13]>>[C:1]1([H:6])([H:7])[C:4]([C:3](=[C:2]([H:8])[H:9])[H:10])([H:11])[C:5]1([H:12])[H:13]"
C        0.17715668      -0.67425868       1.07427110
C       -1.56278142      -0.07116004      -0.49244894
C       -0.56814540       0.76890309      -0.95506370
C        0.66089324       0.83777325      -0.30425311
C        1.34385954      -0.38613898       0.22781172
H       -0.27654798      -1.65490112       1.05568097
H        0.07162847      -0.14016492       2.01018033
H       -2.25131049      -0.52374840      -1.20141072
H       -1.94030936       0.01856938       0.51501615
H       -0.68870777       1.30993735      -1.89243176
H        1.21485497       1.77247350      -0.30117333
H        1.57898920      -1.13838516      -0.52479260
H        2.24042033      -0.11889928       0.78861388
13
Frame=6 idx=000950 GeodesicLength=0.3697534867097977 rxn_smarts="[C:1]1([H:6])([H:7])[C:2]([H:8])([H:9])[C:3]([H:10])=[C:4]([H:11])[C:5]1([H:12])[H:13]>>[C:1]1([H:6])([H:7])[C:4]([C:3](=[C:2]([H:8])[H:9])[H:10])([H:11])[C:5]1([H:12])[H:13]"
C        0.16633566      -0.65760993       1.06198036
C       -1.55434119      -0.07764295      -0.48353632
C       -0.56757121       0.77255700      -0.95226262
C        0.65828367       0.83956771      -0.29361171
C        1.34553869      -0.38951745       0.21967523
H       -0.27648932      -1.64384750       1.05657851
H        0.07910714      -0.13758365       2.00805134
H       -2.22482141      -0.55109638      -1.19638768
H       -1.96222035       0.03809204       0.50998122
H       -0.68731085       1.30750679      -1.89251023
H        1.21016552       1.77507854      -0.28201991
H        1.56879146      -1.13994004      -0.53791889
H        2.24453217      -0.13556418       0.78198070
13
Frame=7 idx=000950 GeodesicLength=0.43133489839167444 rxn_smarts="[C:1]1([H:6])([H:7])[C:2]([H:8])([H:9])[C:3]([H:10])=[C:4]([H:11])[C:5]1([H:12])[H:13]>>[C:1]1([H:6])([H:7])[C:4]([C:3](=[C:2]([H:8])[H:9])[H:10])([H:11])[C:5]1([H:12])[H:13]"
C        0.15593081      -0.64113938       1.05020821
C       -1.54619937      -0.08360888      -0.47443314
C       -0.56695323       0.77608812      -0.94962849
C        0.65579117       0.84120965      -0.28329980
C        1.34698290      -0.39281172       0.21159103
H       -0.27626660      -1.63263525       1.05769228
H        0.08642227      -0.13513591       2.00581318
H       -2.19835593      -0.57765456      -1.19061032
H       -1.98396806       0.05647665       0.50383642
H       -0.68592424       1.30518259      -1.89261951
H        1.20553907       1.77754180      -0.26295907
H        1.55864304      -1.14138618      -0.55082072
H        2.24835816      -0.15212695       0.77522993
13
Frame=8 idx=000950 GeodesicLength=0.4930376907293601 rxn_smarts="[C:1]1([H:6])([H:7])[C:2]([H:8])([H:9])[C:3]([H:10])=[C:4]([H:11])[C:5]1([H:12])[H:13]>>[C:1]1([H:6])([H:7])[C:4]([C:3](=[C:2]([H:8])[H:9])[H:10])([H:11])[C:5]1([H:12])[H:13]"
C        0.14595776      -0.62470274       1.03895004
C       -1.53824318      -0.08907746      -0.46520702
C       -0.56643311       0.77973751      -0.94688300
C        0.65333677       0.84270174      -0.27321208
C        1.34810056      -0.39605997       0.20354458
H       -0.27579600      -1.62105104       1.05916804
H        0.09370562      -0.13263883       2.00337166
H       -2.17148425      -0.60348990      -1.18427840
H       -2.00560007       0.07345128       0.49642886
H       -0.68462869       1.30299415      -1.89255778
H        1.20101131       1.77967662      -0.24407230
H        1.54820925      -1.14272498      -0.56347844
H        2.25186403      -0.16881639       0.76822583
13
Frame=9 idx=000950 GeodesicLength=0.554784980060186 rxn_smarts="[C:1]1([H:6])([H:7])[C:2]([H:8])([H:9])[C:3]([H:10])=[C:4]([H:11])[C:5]1([H:12])[H:13]>>[C:1]1([H:6])([H:7])[C:4]([C:3](=[C:2]([H:8])[H:9])[H:10])([H:11])[C:5]1([H:12])[H:13]"
C        0.13643180      -0.60850997       1.02807277
C       -1.53050466      -0.09408697      -0.45581289
C       -0.56583417       0.78305388      -0.94437856
C        0.65091982       0.84395911      -0.26343332
C        1.34904560      -0.39922003       0.19563012
H       -0.27505168      -1.60934604       1.06060851
H        0.10081956      -0.13032435       2.00065516
H       -2.14483500      -0.62829646      -1.17706274
H       -2.02690420       0.08965090       0.48793939
H       -0.68345462       1.30082775      -1.89245222
H        1.19631208       1.78155135      -0.22528567
H        1.53803150      -1.14390295      -0.57572805
H        2.25502397      -0.18535622       0.76124750
13
Frame=10 idx=000950 GeodesicLength=0.6165311996336889 rxn_smarts="[C:1]1([H:6])([H:7])[C:2]([H:8])([H:9])[C:3]([H:10])=[C:4]([H:11])[C:5]1([H:12])[H:13]>>[C:1]1([H:6])([H:7])[C:4]([C:3](=[C:2]([H:8])[H:9])[H:10])([H:11])[C:5]1([H:12])[H:13]"
C        0.12726392      -0.59247149       1.01770252
C       -1.52301001      -0.09875921      -0.44628949
C       -0.56522157       0.78634423      -0.94190053
C        0.64863273       0.84513461      -0.25389398
C        1.34980057      -0.40230301       0.18775173
H       -0.27420642      -1.59752686       1.06226136
H        0.10778113      -0.12797005       1.99790204
H       -2.11819528      -0.65236362      -1.16927693
H       -2.04814453       0.10464983       0.47844759
H       -0.68232337       1.29884116      -1.89227212
H        1.19183181       1.78327939      -0.20673856
H        1.52783168      -1.14500617      -0.58782603
H        2.25795935      -0.20184882       0.75413240
13
Frame=11 idx=000950 GeodesicLength=0.6784251113307923 rxn_smarts="[C:1]1([H:6])([H:7])[C:2]([H:8])([H:9])[C:3]([H:10])=[C:4]([H:11])[C:5]1([H:12])[H:13]>>[C:1]1([H:6])([H:7])[C:4]([C:3](=[C:2]([H:8])[H:9])[H:10])([H:11])[C:5]1([H:12])[H:13]"
C        0.11849600      -0.57649708       1.00777141
C       -1.51564730      -0.10306143      -0.43667417
C       -0.56467783       0.78966426      -0.93933405
C        0.64637957       0.84615941      -0.24456046
C        1.35029307      -0.40535022       0.17992504
H       -0.27312438      -1.58541050       1.06415475
H        0.11473022      -0.12550583       1.99494186
H       -2.09126921      -0.67567321      -1.16093918
H       -2.06923021       0.11847690       0.46776856
H       -0.68134554       1.29699656      -1.89187516
H        1.18738134       1.78468716      -0.18833972
H        1.51742697      -1.14601300      -0.59965900
H        2.26058729      -0.21847302       0.74682014
13
Frame=12 idx=000950 GeodesicLength=0.7403487959815769 rxn_smarts="[C:1]1([H:6])([H:7])[C:2]([H:8])([H:9])[C:3]([H:10])=[C:4]([H:11])[C:5]1([H:12])[H:13]>>[C:1]1([H:6])([H:7])[C:4]([C:3](=[C:2]([H:8])[H:9])[H:10])([H:11])[C:5]1([H:12])[H:13]"
C        0.11007031      -0.56068190       0.99827917
C       -1.50848920      -0.10704721      -0.42693276
C       -0.56411263       0.79291165      -0.93680990
C        0.64422839       0.84709283      -0.23545428
C        1.35061303      -0.40832919       0.17213884
H       -0.27191726      -1.57319984       1.06618266
H        0.12158452      -0.12300387       1.99191693
H       -2.06435749      -0.69822999      -1.15199947
H       -2.09019610       0.13129133       0.45609854
H       -0.68043888       1.29527216      -1.89140304
H        1.18302933       1.78594232      -0.17009434
H        1.50701619      -1.14694323      -0.61131030
H        2.26296979      -0.23507507       0.73938793
13
Frame=13 idx=000950 GeodesicLength=0.8023261214260817 rxn_smarts="[C:1]1([H:6])([H:7])[C:2]([H:8])([H:9])[C:3]([H:10])=[C:4]([H:11])[C:5]1([H:12])[H:13]>>[C:1]1([H:6])([H:7])[C:4]([C:3](=[C:2]([H:8])[H:9])[H:10])([H:11])[C:5]1([H:12])[H:13]"
C        0.10198736      -0.54500853       0.98919980
C       -1.50150667      -0.11074143      -0.41707511
C       -0.56355173       0.79609194      -0.93428271
C        0.64215587       0.84791933      -0.22655058
C        1.35076509      -0.41124151       0.16441646
H       -0.27054075      -1.56087356       1.06833717
H        0.12837274      -0.12044824       1.98880005
H       -2.03748158      -0.71995128      -1.14250540
H       -2.11101412       0.14305712       0.44340177
H       -0.67964877       1.29367000      -1.89079524
H        1.17877957       1.78698306      -0.15207609
H        1.49658951      -1.14778653      -0.62273196
H        2.26509348      -0.25167038       0.73186183
13
Frame=14 idx=000950 GeodesicLength=0.8643403290950531 rxn_smarts="[C:1]1([H:6])([H:7])[C:2]([H:8])([H:9])[C:3]([H:10])=[C:4]([H:11])[C:5]1([H:12])[H:13]>>[C:1]1([H:6])([H:7])[C:4]([C:3](=[C:2]([H:8])[H:9])[H:10])([H:11])[C:5]1([H:12])[H:13]"
C        0.09423350      -0.52949054       0.98051361
C       -1.49469685      -0.11416320      -0.40709232
C       -0.56299023       0.79918708      -0.93175255
C        0.64015859       0.84864361      -0.21783633
C        1.35077163      -0.41407977       0.15677273
H       -0.26898942      -1.54846918       1.07058212
H        0.13509181      -0.11785373       1.98560452
H       -2.01073374      -0.74077884      -1.13247655
H       -2.13166193       0.15378624       0.42970704
H       -0.67897990       1.29217621      -1.89005250
H        1.17464667       1.78781083      -0.13434088
H        1.48619062      -1.14853822      -0.63390907
H        2.26695927      -0.26823050       0.72428020
13
Frame=15 idx=000950 GeodesicLength=0.9263769709723052 rxn_smarts="[C:1]1([H:6])([H:7])[C:2]([H:8])([H:9])[C:3]([H:10])=[C:4]([H:11])[C:5]1([H:12])[H:13]>>[C:1]1([H:6])([H:7])[C:4]([C:3](=[C:2]([H:8])[H:9])[H:10])([H:11])[C:5]1([H:12])[H:13]"
C        0.08679421      -0.51413565       0.97220327
C       -1.48806049      -0.11732687      -0.39697668
C       -0.56242580       0.80218491      -0.92921717
C        0.63823563       0.84926938      -0.20930009
C        1.35065250      -0.41684029       0.14921869
H       -0.26726349      -1.53601511       1.07289122
H        0.14174053      -0.11522652       1.98234310
H       -1.98418344      -0.76068384      -1.12193985
H       -2.15211893       0.16348903       0.41503801
H       -0.67844451       1.29079355      -1.88916584
H        1.17064973       1.78842714      -0.11693669
H        1.47585191      -1.14920000      -0.64483169
H        2.26857215      -0.28473573       0.71667373
13
Frame=16 idx=000950 GeodesicLength=0.9884235549894286 rxn_smarts="[C:1]1([H:6])([H:7])[C:2]([H:8])([H:9])[C:3]([H:10])=[C:4]([H:11])[C:5]1([H:12])[H:13]>>[C:1]1([H:6])([H:7])[C:4]([C:3](=[C:2]([H:8])[H:9])[H:10])([H:11])[C:5]1([H:12])[H:13]"
C        0.07965427      -0.49894425       0.96425604
C       -1.48159586      -0.12024647      -0.38672346
C       -0.56185917       0.80508378      -0.92666782
C        0.63638750       0.84980023      -0.20093254
C        1.35042104      -0.41952414       0.14176217
H       -0.26536711      -1.52352939       1.07525435
H        0.14831911      -0.11256009       1.97902821
H       -1.95787176      -0.77965657      -1.11093309
H       -2.17236336       0.17215769       0.39941239
H       -0.67806205       1.28954538      -1.88811458
H        1.16681441       1.78883260      -0.09991235
H        1.46558738      -1.14978071      -0.65549279
H        2.26993562      -0.30117807       0.70906345
