14
Frame=0 idx=007281 GeodesicLength=0.0 rxn_smarts="[O:1]([C@@:2]1([H:9])[C:3]([H:10])([H:11])[N:4]([H:12])[C:5]([H:13])([H:14])[C:6]1=[O:7])[H:8]>>[O:1]([N+:4]1([H:12])[C:3]([H:10])([H:11])[C:2]([H:9])=[C:6]([O-:7])[C:5]1([H:13])[H:14])[H:8]"
O        1.13623630      -0.15527760      -1.63818722
C        0.75272711       0.04951804       1.04780568
C        0.18012390       1.19858119       0.34513890
N       -0.53594811       0.60342645      -0.72904778
C       -1.03146157      -0.68300900      -0.31818737
C        0.01141799      -1.13165647       0.71705137
O        0.11723178      -2.26819129       1.14004395
H        1.73034320      -0.60410795      -1.02831267
H        1.48650203       0.11411670       1.83649687
H       -0.56716242       1.68812028       1.00316326
H        0.87351156       1.96261437      -0.00214119
H       -1.01816049       1.16553207      -1.41215650
H       -1.13630241      -1.36752850      -1.15507743
H       -1.99905888      -0.57213829       0.19341017
14
Frame=1 idx=007281 GeodesicLength=0.06941077825082011 rxn_smarts="[O:1]([C@@:2]1([H:9])[C:3]([H:10])([H:11])[N:4]([H:12])[C:5]([H:13])([H:14])[C:6]1=[O:7])[H:8]>>[O:1]([N+:4]1([H:12])[C:3]([H:10])([H:11])[C:2]([H:9])=[C:6]([O-:7])[C:5]1([H:13])[H:14])[H:8]"
O        1.15750687      -0.13937926      -1.60232497
C        0.77152668       0.04558788       1.01972764
C        0.17856329       1.20281915       0.34364944
N       -0.54595715       0.60567519      -0.72763035
C       -1.03869232      -0.68326042      -0.31701943
C        0.00587549      -1.12941859       0.71750581
O        0.12275825      -2.26937350       1.12755672
H        1.73515816      -0.63446979      -1.01237564
H        1.48431460       0.11494237       1.82739748
H       -0.55797446       1.69279878       1.01141501
H        0.86310626       1.97042364      -0.01468305
H       -1.03000336       1.16731697      -1.40964904
H       -1.13891879      -1.36642344      -1.15614105
H       -2.00726351      -0.57723898       0.19257144
14
Frame=2 idx=007281 GeodesicLength=0.13880221578330482 rxn_smarts="[O:1]([C@@:2]1([H:9])[C:3]([H:10])([H:11])[N:4]([H:12])[C:5]([H:13])([H:14])[C:6]1=[O:7])[H:8]>>[O:1]([N+:4]1([H:12])[C:3]([H:10])([H:11])[C:2]([H:9])=[C:6]([O-:7])[C:5]1([H:13])[H:14])[H:8]"
O        1.17842933      -0.12437741      -1.56644365
C        0.78847028       0.04189148       0.99322254
C        0.17716463       1.20679313       0.34252955
N       -0.55523704       0.60762366      -0.72617003
C       -1.04556495      -0.68360966      -0.31571193
C        0.00087474      -1.12713562       0.71800949
O        0.12837322      -2.27037745       1.11491383
H        1.73868123      -0.66297679      -0.99778585
H        1.48202546       0.11563712       1.81751080
H       -0.54886698       1.69811639       1.01883879
H        0.85326453       1.97744614      -0.02655110
H       -1.04104684       1.16881063      -1.40709699
H       -1.14142171      -1.36545985      -1.15696246
H       -2.01514589      -0.58238177       0.19169701
14
Frame=3 idx=007281 GeodesicLength=0.2082035567366483 rxn_smarts="[O:1]([C@@:2]1([H:9])[C:3]([H:10])([H:11])[N:4]([H:12])[C:5]([H:13])([H:14])[C:6]1=[O:7])[H:8]>>[O:1]([N+:4]1([H:12])[C:3]([H:10])([H:11])[C:2]([H:9])=[C:6]([O-:7])[C:5]1([H:13])[H:14])[H:8]"
O        1.19893814      -0.11031023      -1.53067020
C        0.80369286       0.03839069       0.96829960
C        0.17594378       1.21054414       0.34168434
N       -0.56385973       0.60928791      -0.72471954
C       -1.05218883      -0.68407203      -0.31427083
C       -0.00364841      -1.12493613       0.71850804
O        0.13403157      -2.27135264       1.10211831
H        1.74123847      -0.68929769      -0.98420662
H        1.47984009       0.11609669       1.80706156
H       -0.53984140       1.70409176       1.02539236
H        0.84404935       1.98373020      -0.03793105
H       -1.05140562       1.17004660      -1.40455774
H       -1.14398053      -1.36465018      -1.15754531
H       -2.02280973      -0.58756909       0.19083708
14
Frame=4 idx=007281 GeodesicLength=0.2776563639199543 rxn_smarts="[O:1]([C@@:2]1([H:9])[C:3]([H:10])([H:11])[N:4]([H:12])[C:5]([H:13])([H:14])[C:6]1=[O:7])[H:8]>>[O:1]([N+:4]1([H:12])[C:3]([H:10])([H:11])[C:2]([H:9])=[C:6]([O-:7])[C:5]1([H:13])[H:14])[H:8]"
O        1.21897689      -0.09713410      -1.49513190
C        0.81741178       0.03505205       0.94486654
C        0.17493265       1.21409787       0.34104210
N       -0.57188718       0.61067658      -0.72330243
C       -1.05859812      -0.68464941      -0.31271267
C       -0.00770899      -1.12288823       0.71893413
O        0.13975144      -2.27236123       1.08913617
H        1.74297443      -0.71347122      -0.97150870
H        1.47764113       0.11637224       1.79642558
H       -0.53082810       1.71072271       1.03110815
H        0.83546877       1.98931240      -0.04896110
H       -1.06121291       1.17104859      -1.40200144
H       -1.14666685      -1.36399526      -1.15792728
H       -2.03025492      -0.59278299       0.19003285
14
Frame=5 idx=007281 GeodesicLength=0.34715584228114 rxn_smarts="[O:1]([C@@:2]1([H:9])[C:3]([H:10])([H:11])[N:4]([H:12])[C:5]([H:13])([H:14])[C:6]1=[O:7])[H:8]>>[O:1]([N+:4]1([H:12])[C:3]([H:10])([H:11])[C:2]([H:9])=[C:6]([O-:7])[C:5]1([H:13])[H:14])[H:8]"
O        1.23848844      -0.08482538      -1.45993716
C        0.82978828       0.03184397       0.92283443
C        0.17415299       1.21745549       0.34053156
N       -0.57936963       0.61179111      -0.72192656
C       -1.06482467      -0.68532889      -0.31103172
C       -0.01134549      -1.12102891       0.71923960
O        0.14555145      -2.27343088       1.07589341
H        1.74408137      -0.73547548      -0.95952459
H        1.47530388       0.11647979       1.78585717
H       -0.52176297       1.71797676       1.03600212
H        0.82752479       1.99418587      -0.05978626
H       -1.07056768       1.17182273      -1.39938415
H       -1.14953822      -1.36346547      -1.15811142
H       -2.03748253      -0.59800071       0.18934356
14
Frame=6 idx=007281 GeodesicLength=0.4167107570583985 rxn_smarts="[O:1]([C@@:2]1([H:9])[C:3]([H:10])([H:11])[N:4]([H:12])[C:5]([H:13])([H:14])[C:6]1=[O:7])[H:8]>>[O:1]([N+:4]1([H:12])[C:3]([H:10])([H:11])[C:2]([H:9])=[C:6]([O-:7])[C:5]1([H:13])[H:14])[H:8]"
O        1.25744637      -0.07333547      -1.42517260
C        0.84098052       0.02873837       0.90211969
C        0.17362117       1.22063314       0.34009487
N       -0.58636226       0.61264628      -0.72059907
C       -1.07090173      -0.68610339      -0.30922697
C       -0.01458944      -1.11939641       0.71939241
O        0.15144812      -2.27460265       1.06234063
H        1.74474046      -0.75536436      -0.94810992
H        1.47273108       0.11643521       1.77555914
H       -0.51259490       1.72583411       1.04009551
H        0.82021039       1.99837596      -0.07052434
H       -1.07957437       1.17239586      -1.39667021
H       -1.15264436      -1.36304372      -1.15810909
H       -2.04451105      -0.60321293       0.18880995
14
Frame=7 idx=007281 GeodesicLength=0.4863396718510793 rxn_smarts="[O:1]([C@@:2]1([H:9])[C:3]([H:10])([H:11])[N:4]([H:12])[C:5]([H:13])([H:14])[C:6]1=[O:7])[H:8]>>[O:1]([N+:4]1([H:12])[C:3]([H:10])([H:11])[C:2]([H:9])=[C:6]([O-:7])[C:5]1([H:13])[H:14])[H:8]"
O        1.27583334      -0.06259863      -1.39088893
C        0.85113371       0.02571709       0.88263402
C        0.17334905       1.22364283       0.33968827
N       -0.59291430       0.61325173      -0.71931821
C       -1.07685130      -0.68696911      -0.30730337
C       -0.01746518      -1.11801146       0.71935774
O        0.15743399      -2.27588440       1.04844947
H        1.74509532      -0.77323099      -0.93715765
H        1.46983378       0.11626298       1.76567895
H       -0.50327111       1.73426285       1.04341414
H        0.81350763       2.00190713      -0.08125743
H       -1.08832353       1.17278442      -1.39381576
H       -1.15601606      -1.36271674      -1.15793504
H       -2.05134533      -0.60841772       0.18845381
14
Frame=8 idx=007281 GeodesicLength=0.5560294563234733 rxn_smarts="[O:1]([C@@:2]1([H:9])[C:3]([H:10])([H:11])[N:4]([H:12])[C:5]([H:13])([H:14])[C:6]1=[O:7])[H:8]>>[O:1]([N+:4]1([H:12])[C:3]([H:10])([H:11])[C:2]([H:9])=[C:6]([O-:7])[C:5]1([H:13])[H:14])[H:8]"
O        1.29365023      -0.05255286      -1.35713590
C        0.86036334       0.02276124       0.86430448
C        0.17333582       1.22649880       0.33927804
N       -0.59906978       0.61362477      -0.71808396
C       -1.08269018      -0.68791540      -0.30526280
C       -0.02000559      -1.11688680       0.71912705
O        0.16351695      -2.27729148       1.03418678
H        1.74526946      -0.78919375      -0.92655158
H        1.46655747       0.11597362       1.75630765
H       -0.49375974       1.74323975       1.04598671
H        0.80738404       2.00480441      -0.09205870
H       -1.09689411       1.17301104      -1.39078705
H       -1.15966240      -1.36246215      -1.15760660
H       -2.05799551      -0.61361119       0.18829589
14
Frame=9 idx=007281 GeodesicLength=0.6257815628858249 rxn_smarts="[O:1]([C@@:2]1([H:9])[C:3]([H:10])([H:11])[N:4]([H:12])[C:5]([H:13])([H:14])[C:6]1=[O:7])[H:8]>>[O:1]([N+:4]1([H:12])[C:3]([H:10])([H:11])[C:2]([H:9])=[C:6]([O-:7])[C:5]1([H:13])[H:14])[H:8]"
O        1.31090426      -0.04312414      -1.32394349
C        0.86878877       0.01985699       0.84705220
C        0.17358130       1.22921841       0.33883835
N       -0.60487633       0.61378487      -0.71689021
C       -1.08843783      -0.68894238      -0.30311279
C       -0.02222997      -1.11603756       0.71868133
O        0.16967241      -2.27882807       1.01957295
H        1.74537072      -0.80337049      -0.91622745
H        1.46286302       0.11557949       1.74751197
H       -0.48403630       1.75272972       1.04784206
H        0.80181791       2.00710804      -0.10296487
H       -1.10534893       1.17310322      -1.38756197
H       -1.16358794      -1.36227686      -1.15713793
H       -2.06448109      -0.61880124       0.18833985
14
Frame=10 idx=007281 GeodesicLength=0.6955934690874432 rxn_smarts="[O:1]([C@@:2]1([H:9])[C:3]([H:10])([H:11])[N:4]([H:12])[C:5]([H:13])([H:14])[C:6]1=[O:7])[H:8]>>[O:1]([N+:4]1([H:12])[C:3]([H:10])([H:11])[C:2]([H:9])=[C:6]([O-:7])[C:5]1([H:13])[H:14])[H:8]"
O        1.32760913      -0.03425426      -1.29132046
C        0.87649799       0.01699625       0.83081172
C        0.17407999       1.23181770       0.33835037
N       -0.61037074       0.61374747      -0.71573059
C       -1.09410587      -0.69004363      -0.30085654
C       -0.02416685      -1.11546467       0.71801717
O        0.17590481      -2.28049534       1.00457782
H        1.74548251      -0.81589537      -0.90610307
H        1.45871543       0.11509279       1.73932887
H       -0.47407285       1.76271305       1.04900748
H        0.79677230       2.00884616      -0.11401891
H       -1.11374416       1.17307699      -1.38411091
H       -1.16779164      -1.36214622      -1.15654455
H       -2.07081007      -0.62399092       0.18859159
14
Frame=11 idx=007281 GeodesicLength=0.7654770391476969 rxn_smarts="[O:1]([C@@:2]1([H:9])[C:3]([H:10])([H:11])[N:4]([H:12])[C:5]([H:13])([H:14])[C:6]1=[O:7])[H:8]>>[O:1]([N+:4]1([H:12])[C:3]([H:10])([H:11])[C:2]([H:9])=[C:6]([O-:7])[C:5]1([H:13])[H:14])[H:8]"
O        1.34379927      -0.02587672      -1.25925441
C        0.88357282       0.01417090       0.81551731
C        0.17482279       1.23430967       0.33779746
N       -0.61558792       0.61352906      -0.71459805
C       -1.09970389      -0.69121310      -0.29850003
C       -0.02583861      -1.11516662       0.71713075
O        0.18220708      -2.28228686       0.98919834
H        1.74566834      -0.82691224      -0.89612212
H        1.45409722       0.11452399       1.73177130
H       -0.46385171       1.77316269       1.04950566
H        0.79220868       2.01004697      -0.12525200
H       -1.12213596       1.17295480      -1.38039977
H       -1.17226139      -1.36205430      -1.15583972
H       -2.07699672      -0.62918823       0.18904530
14
Frame=12 idx=007281 GeodesicLength=0.8354118579478167 rxn_smarts="[O:1]([C@@:2]1([H:9])[C:3]([H:10])([H:11])[N:4]([H:12])[C:5]([H:13])([H:14])[C:6]1=[O:7])[H:8]>>[O:1]([N+:4]1([H:12])[C:3]([H:10])([H:11])[C:2]([H:9])=[C:6]([O-:7])[C:5]1([H:13])[H:14])[H:8]"
O        1.35948498      -0.01793638      -1.22774525
C        0.89008349       0.01137831       0.80111098
C        0.17579938       1.23670633       0.33717490
N       -0.62055783       0.61314199      -0.71348550
C       -1.10523813      -0.69244878      -0.29604966
C       -0.02726189      -1.11513993       0.71601542
O        0.18856055      -2.28418649       0.97344937
H        1.74597385      -0.83653007      -0.88624773
H        1.44900125       0.11388021       1.72484281
H       -0.45336120       1.78404577       1.04936499
H        0.78809299       2.01073762      -0.13666684
H       -1.13054327       1.17274554      -1.37642439
H       -1.17699124      -1.36199669      -1.15503784
H       -2.08304294      -0.63439744       0.18969875
14
Frame=13 idx=007281 GeodesicLength=0.9053890489174663 rxn_smarts="[O:1]([C@@:2]1([H:9])[C:3]([H:10])([H:11])[N:4]([H:12])[C:5]([H:13])([H:14])[C:6]1=[O:7])[H:8]>>[O:1]([N+:4]1([H:12])[C:3]([H:10])([H:11])[C:2]([H:9])=[C:6]([O-:7])[C:5]1([H:13])[H:14])[H:8]"
O        1.37469367      -0.01037470      -1.19678322
C        0.89609509       0.00861333       0.78753690
C        0.17699700       1.23902214       0.33647717
N       -0.62530921       0.61260397      -0.71238614
C       -1.11071588      -0.69374756      -0.29351123
C       -0.02845371      -1.11538172       0.71467118
O        0.19495079      -2.28619014       0.95735034
H        1.74643665      -0.84486792      -0.87644413
H        1.44343445       0.11316511       1.71852951
H       -0.44260416       1.79533298       1.04860556
H        0.78439474       2.01094860      -0.14826715
H       -1.13899035       1.17246774      -1.37217434
H       -1.18196677      -1.36196590      -1.15414952
H       -2.08896230      -0.63962593       0.19054506
14
Frame=14 idx=007281 GeodesicLength=0.9753945262659385 rxn_smarts="[O:1]([C@@:2]1([H:9])[C:3]([H:10])([H:11])[N:4]([H:12])[C:5]([H:13])([H:14])[C:6]1=[O:7])[H:8]>>[O:1]([N+:4]1([H:12])[C:3]([H:10])([H:11])[C:2]([H:9])=[C:6]([O-:7])[C:5]1([H:13])[H:14])[H:8]"
O        1.38944578      -0.00314342      -1.16635324
C        0.90166132       0.00587328       0.77474262
C        0.17840264       1.24126629       0.33570231
N       -0.62986749       0.61192769      -0.71129169
C       -1.11614109      -0.69510642      -0.29089013
C       -0.02942825      -1.11588480       0.71309506
O        0.20136336      -2.28828190       0.94092087
H        1.74708506      -0.85202824      -0.86668968
H        1.43739698       0.11238360       1.71281469
H       -0.43157759       1.80699297       1.04724967
H        0.78108195       2.01070131      -0.16005017
H       -1.14748918       1.17213204      -1.36764419
H       -1.18717407      -1.36195459      -1.15318501
H       -2.09475941      -0.64487780       0.19157889
14
Frame=15 idx=007281 GeodesicLength=1.045418654568256 rxn_smarts="[O:1]([C@@:2]1([H:9])[C:3]([H:10])([H:11])[N:4]([H:12])[C:5]([H:13])([H:14])[C:6]1=[O:7])[H:8]>>[O:1]([N+:4]1([H:12])[C:3]([H:10])([H:11])[C:2]([H:9])=[C:6]([O-:7])[C:5]1([H:13])[H:14])[H:8]"
O        1.40376382       0.00380097      -1.13643620
C        0.90683004       0.00315709       0.76268069
C        0.18000381       1.24344983       0.33484982
N       -0.63425568       0.61112643      -0.71019506
C       -1.12151861      -0.69652293      -0.28819114
C       -0.03019972      -1.11664160       0.71128786
O        0.20778864      -2.29045103       0.92417418
H        1.74793879      -0.85810892      -0.85696056
H        1.43089739       0.11154011       1.70767557
H       -0.42028324       1.81899782       1.04531528
H        0.77812662       2.01001834      -0.17201059
H       -1.15604936       1.17174931      -1.36283045
H       -1.19260061      -1.36195714      -1.15215299
H       -2.10044189      -0.65015830       0.19279359
14
Frame=16 idx=007281 GeodesicLength=1.1154499694155822 rxn_smarts="[O:1]([C@@:2]1([H:9])[C:3]([H:10])([H:11])[N:4]([H:12])[C:5]([H:13])([H:14])[C:6]1=[O:7])[H:8]>>[O:1]([N+:4]1([H:12])[C:3]([H:10])([H:11])[C:2]([H:9])=[C:6]([O-:7])[C:5]1([H:13])[H:14])[H:8]"
O        1.41766800       0.01049677      -1.10701087
C        0.91164225       0.00046409       0.75130663
C        0.18178758       1.24558153       0.33392090
N       -0.63849436       0.61021181      -0.70908892
C       -1.12685165      -0.69799439      -0.28541850
C       -0.03078073      -1.11764278       0.70925015
O        0.21421750      -2.29268376       0.90712537
H        1.74901132      -0.86319811      -0.84724025
H        1.42394406       0.11063849       1.70308594
H       -0.40872360       1.83131887       1.04282032
H        0.77550113       2.00891849      -0.18413990
H       -1.16467370       1.17132755      -1.35773302
H       -1.19823319      -1.36196759      -1.15106109
H       -2.10601459      -0.65547097       0.19418323
