17
Frame=0 idx=000425 GeodesicLength=0.0 rxn_smarts="[C:1]([C:2]([N:3]1[C:4]([H:12])([H:13])[C@:5]1([C:6]([H:15])([H:16])[H:17])[H:14])([H:10])[H:11])([H:7])([H:8])[H:9]>>[C:1]([C-:2]([N+:3]1=[C:5]([H:14])[C:4]1([H:12])[H:13])[H:11])([H:7])([H:8])[H:9].[C:6]([H:10])([H:15])([H:16])[H:17]"
C       -1.86560099       0.54312136      -1.06316797
C       -1.00812304       0.38529635       0.16141802
N       -0.50168812      -0.87760513       0.42574059
C        0.42648774      -1.64956906      -0.39763156
C        0.67119422      -1.15387836       0.96078794
C        1.63155968       0.97577196       0.61955809
H       -1.96853092       1.60428891      -1.29616008
H       -1.41120372       0.05568818      -1.92809382
H       -2.87323405       0.13687636      -0.93468371
H        0.33825304       0.86940790       0.22121696
H       -1.41939940       0.84277675       1.06278595
H        0.09868223      -2.65894651      -0.62885862
H        0.94189582      -1.12732270      -1.20532193
H        1.03064264      -1.43724832       1.93505366
H        2.47903349       0.38719388       0.27198408
H        1.73589430       1.16127895       1.68769167
H        1.69413714       1.94286944       0.10768079
17
Frame=1 idx=000425 GeodesicLength=0.09661105317890194 rxn_smarts="[C:1]([C:2]([N:3]1[C:4]([H:12])([H:13])[C@:5]1([C:6]([H:15])([H:16])[H:17])[H:14])([H:10])[H:11])([H:7])([H:8])[H:9]>>[C:1]([C-:2]([N+:3]1=[C:5]([H:14])[C:4]1([H:12])[H:13])[H:11])([H:7])([H:8])[H:9].[C:6]([H:10])([H:15])([H:16])[H:17]"
C       -1.86860555       0.55264321      -1.05960339
C       -1.02883372       0.37793563       0.17459973
N       -0.49338571      -0.87471686       0.40979682
C        0.43237007      -1.65902584      -0.39781614
C        0.68370868      -1.14267704       0.95212960
C        1.64331856       0.97199156       0.61194084
H       -1.99955127       1.61775986      -1.25912454
H       -1.38296190       0.10926851      -1.93127863
H       -2.86582989       0.11322371      -0.96508751
H        0.31565871       0.90288737       0.23534933
H       -1.46358635       0.80044481       1.08179256
H        0.09425761      -2.67007569      -0.60744398
H        0.94870287      -1.15140284      -1.21376444
H        1.01111943      -1.43664588       1.93491674
H        2.49957635       0.37462187       0.30145860
H        1.74314482       1.19909996       1.67253987
H        1.73089730       1.91466765       0.05959455
17
Frame=2 idx=000425 GeodesicLength=0.1933850451132536 rxn_smarts="[C:1]([C:2]([N:3]1[C:4]([H:12])([H:13])[C@:5]1([C:6]([H:15])([H:16])[H:17])[H:14])([H:10])[H:11])([H:7])([H:8])[H:9]>>[C:1]([C-:2]([N+:3]1=[C:5]([H:14])[C:4]1([H:12])[H:13])[H:11])([H:7])([H:8])[H:9].[C:6]([H:10])([H:15])([H:16])[H:17]"
C       -1.87048808       0.56312549      -1.05581561
C       -1.04939953       0.36987548       0.18800529
N       -0.48476392      -0.87122541       0.39351842
C        0.43804557      -1.66908378      -0.39739700
C        0.69617654      -1.13156572       0.94352424
C        1.65469155       0.96833674       0.60362819
H       -2.03020425       1.63037576      -1.22145681
H       -1.35348202       0.16581845      -1.93177875
H       -2.85559529       0.09161228      -0.99784039
H        0.29208602       0.93685994       0.25306566
H       -1.50907837       0.75429221       1.09974877
H        0.08903502      -2.68126387      -0.58475251
H        0.95571687      -1.17718339      -1.22174582
H        0.99194623      -1.43524886       1.93384047
H        2.51896396       0.36357891       0.33021741
H        1.75197405       1.23795421       1.65457828
H        1.76437564       1.88374155       0.01066016
17
Frame=3 idx=000425 GeodesicLength=0.2902005160429564 rxn_smarts="[C:1]([C:2]([N:3]1[C:4]([H:12])([H:13])[C@:5]1([C:6]([H:15])([H:16])[H:17])[H:14])([H:10])[H:11])([H:7])([H:8])[H:9]>>[C:1]([C-:2]([N+:3]1=[C:5]([H:14])[C:4]1([H:12])[H:13])[H:11])([H:7])([H:8])[H:9].[C:6]([H:10])([H:15])([H:16])[H:17]"
C       -1.87123352       0.57458811      -1.05174654
C       -1.06965853       0.36110399       0.20145049
N       -0.47575106      -0.86708464       0.37683891
C        0.44346391      -1.67984879      -0.39635737
C        0.70867680      -1.12057837       0.93488167
C        1.66555884       0.96497354       0.59481990
H       -2.06026574       1.64202838      -1.18338978
H       -1.32306303       0.22505889      -1.92923519
H       -2.84253805       0.07257903      -1.03264750
H        0.26774647       0.97101426       0.27401704
H       -1.55550485       0.70420277       1.11610255
H        0.08288536      -2.69248587      -0.56065955
H        0.96292383      -1.20490252      -1.22920602
H        0.97324131      -1.43304587       1.93180339
H        2.53707178       0.35433734       0.35801317
H        1.76217642       1.27768864       1.63393950
H        1.79427008       1.85037112      -0.03862468
17
Frame=4 idx=000425 GeodesicLength=0.3870447733139445 rxn_smarts="[C:1]([C:2]([N:3]1[C:4]([H:12])([H:13])[C@:5]1([C:6]([H:15])([H:16])[H:17])[H:14])([H:10])[H:11])([H:7])([H:8])[H:9]>>[C:1]([C-:2]([N+:3]1=[C:5]([H:14])[C:4]1([H:12])[H:13])[H:11])([H:7])([H:8])[H:9].[C:6]([H:10])([H:15])([H:16])[H:17]"
C       -1.87091204       0.58701010      -1.04733851
C       -1.08949225       0.35159976       0.21474965
N       -0.46628639      -0.86226059       0.35966825
C        0.44858546      -1.69138142      -0.39468248
C        0.72127514      -1.10972360       0.92611424
C        1.67588331       0.96204806       0.58569823
H       -2.08965889       1.65260576      -1.14509422
H       -1.29214190       0.28662176      -1.92336429
H       -2.82676713       0.05656310      -1.06915563
H        0.24282763       1.00507385       0.29767968
H       -1.60242178       0.65015266       1.13024078
H        0.07572720      -2.70367381      -0.53508048
H        0.97031280      -1.23473307      -1.23606825
H        0.95506623      -1.43000890       1.92880176
H        2.55388386       0.34704277       0.38470930
H        1.77345126       1.31815364       1.61077440
H        1.82066749       1.81490992      -0.08765244
17
Frame=5 idx=000425 GeodesicLength=0.4836751432601539 rxn_smarts="[C:1]([C:2]([N:3]1[C:4]([H:12])([H:13])[C@:5]1([C:6]([H:15])([H:16])[H:17])[H:14])([H:10])[H:11])([H:7])([H:8])[H:9]>>[C:1]([C-:2]([N+:3]1=[C:5]([H:14])[C:4]1([H:12])[H:13])[H:11])([H:7])([H:8])[H:9].[C:6]([H:10])([H:15])([H:16])[H:17]"
C       -1.86967178       0.60031261      -1.04245699
C       -1.10880052       0.34131942       0.22776028
N       -0.45625995      -0.85688888       0.34178376
C        0.45345693      -1.70371692      -0.39243577
C        0.73404165      -1.09905309       0.91709852
C        1.68559396       0.95967424       0.57648247
H       -2.11772061       1.66229912      -1.10714181
H       -1.26161970       0.34913759      -1.91433494
H       -2.80870807       0.04420762      -1.10636403
H        0.21745376       1.03874079       0.32346703
H       -1.64928294       0.59274197       1.14164365
H        0.06765679      -2.71481561      -0.50818176
H        0.97796136      -1.26674791      -1.24224545
H        0.93747542      -1.42624910       1.92480153
H        2.56939418       0.34175792       0.41016052
H        1.78541237       1.35906127       1.58540071
H        1.84361713       1.77821897      -0.13543773
17
Frame=6 idx=000425 GeodesicLength=0.5802564995045079 rxn_smarts="[C:1]([C:2]([N:3]1[C:4]([H:12])([H:13])[C@:5]1([C:6]([H:15])([H:16])[H:17])[H:14])([H:10])[H:11])([H:7])([H:8])[H:9]>>[C:1]([C-:2]([N+:3]1=[C:5]([H:14])[C:4]1([H:12])[H:13])[H:11])([H:7])([H:8])[H:9].[C:6]([H:10])([H:15])([H:16])[H:17]"
C       -1.86769204       0.61446292      -1.03707714
C       -1.12753336       0.33022769       0.24029749
N       -0.44566118      -0.85079518       0.32315786
C        0.45801885      -1.71679702      -0.38956371
C        0.74696996      -1.08850519       0.90781772
C        1.69483329       0.95791696       0.56719806
H       -2.14512145       1.67090068      -1.06915052
H       -1.23154655       0.41311046      -1.90190914
H       -2.78845210       0.03529509      -1.14434532
H        0.19167242       1.07186337       0.35095214
H       -1.69570172       0.53163845       1.14980372
H        0.05852740      -2.72566114      -0.47983190
H        0.98587546      -1.30100024      -1.24761998
H        0.92037297      -1.42156987       1.91986310
H        2.58379865       0.33838189       0.43468709
H        1.79769677       1.40045117       1.55777417
H        1.86394265       1.74007996      -0.18205362
17
Frame=7 idx=000425 GeodesicLength=0.6767730169138 rxn_smarts="[C:1]([C:2]([N:3]1[C:4]([H:12])([H:13])[C@:5]1([C:6]([H:15])([H:16])[H:17])[H:14])([H:10])[H:11])([H:7])([H:8])[H:9]>>[C:1]([C-:2]([N+:3]1=[C:5]([H:14])[C:4]1([H:12])[H:13])[H:11])([H:7])([H:8])[H:9].[C:6]([H:10])([H:15])([H:16])[H:17]"
C       -1.86515268       0.62939601      -1.03114011
C       -1.14566141       0.31824354       0.25220211
N       -0.43443905      -0.84395633       0.30365532
C        0.46226256      -1.73055483      -0.38605524
C        0.76007848      -1.07804778       0.89820614
C        1.70369115       0.95682847       0.55786557
H       -2.17183684       1.67842373      -1.03115773
H       -1.20237360       0.47812352      -1.88615664
H       -2.76635463       0.02997505      -1.18266925
H        0.16546256       1.10431091       0.37983360
H       -1.74125467       0.46687423       1.15425174
H        0.04830302      -2.73600173      -0.45002816
H        0.99409737      -1.33751842      -1.25206931
H        0.90371966      -1.41589876       1.91402134
H        2.59722131       0.33682975       0.45843404
H        1.80997593       1.44218426       1.52795210
H        1.88226084       1.70078838      -0.22714552
17
Frame=8 idx=000425 GeodesicLength=0.7732057667575651 rxn_smarts="[C:1]([C:2]([N:3]1[C:4]([H:12])([H:13])[C@:5]1([C:6]([H:15])([H:16])[H:17])[H:14])([H:10])[H:11])([H:7])([H:8])[H:9]>>[C:1]([C-:2]([N+:3]1=[C:5]([H:14])[C:4]1([H:12])[H:13])[H:11])([H:7])([H:8])[H:9].[C:6]([H:10])([H:15])([H:16])[H:17]"
C       -1.86221647       0.64505920      -1.02455529
C       -1.16318037       0.30527678       0.26333501
N       -0.42257668      -0.83636753       0.28316885
C        0.46618655      -1.74490127      -0.38187638
C        0.77335424      -1.06765604       0.88824717
C        1.71225356       0.95640587       0.54840775
H       -2.19802635       1.68478270      -0.99301735
H       -1.17441796       0.54401807      -1.86706732
H       -2.74265816       0.02834873      -1.22111079
H        0.13872306       1.13594965       0.41000738
H       -1.78554668       0.39852212       1.15448546
H        0.03701191      -2.74563836      -0.41877811
H        1.00264219      -1.37629433      -1.25544598
H        0.88744838      -1.40912676       1.90731265
H        2.60977339       0.33698925       0.48163149
H        1.82193426       1.48419340       1.49581570
H        1.89929512       1.66043853      -0.27056025
17
Frame=9 idx=000425 GeodesicLength=0.8692613726227526 rxn_smarts="[C:1]([C:2]([N:3]1[C:4]([H:12])([H:13])[C@:5]1([C:6]([H:15])([H:16])[H:17])[H:14])([H:10])[H:11])([H:7])([H:8])[H:9]>>[C:1]([C-:2]([N+:3]1=[C:5]([H:14])[C:4]1([H:12])[H:13])[H:11])([H:7])([H:8])[H:9].[C:6]([H:10])([H:15])([H:16])[H:17]"
C       -1.85902087       0.66133084      -1.01719920
C       -1.18007906       0.29116219       0.27357004
N       -0.40993120      -0.82818830       0.26148368
C        0.46981990      -1.75976605      -0.37708935
C        0.78682005      -1.05739852       0.87789152
C        1.72051211       0.95663087       0.53878486
H       -2.22325836       1.69030203      -0.95490294
H       -1.14811593       0.60988295      -1.84504400
H       -2.71773783       0.03057154      -1.25885165
H        0.11131286       1.16652836       0.44133330
H       -1.82829273       0.32743452       1.15030178
H        0.02478844      -2.75448177      -0.38638086
H        1.01154861      -1.41735146      -1.25760064
H        0.87157423      -1.40135004       1.89973951
H        2.62148439       0.33875715       0.50451053
H        1.83321130       1.52633007       1.46139713
H        1.91536410       1.61960562      -0.31194370
17
Frame=10 idx=000425 GeodesicLength=0.9652034770595517 rxn_smarts="[C:1]([C:2]([N:3]1[C:4]([H:12])([H:13])[C@:5]1([C:6]([H:15])([H:16])[H:17])[H:14])([H:10])[H:11])([H:7])([H:8])[H:9]>>[C:1]([C-:2]([N+:3]1=[C:5]([H:14])[C:4]1([H:12])[H:13])[H:11])([H:7])([H:8])[H:9].[C:6]([H:10])([H:15])([H:16])[H:17]"
C       -1.85566212       0.67824316      -1.00904580
C       -1.19634393       0.27577169       0.28277712
N       -0.39657385      -0.81925391       0.23866587
C        0.47304205      -1.77501515      -0.37156197
C        0.80044523      -1.04716372       0.86717097
C        1.72863556       0.95747105       0.52874744
H       -2.24823680       1.69459019      -0.91630267
H       -1.12336224       0.67651275      -1.81971167
H       -2.69160004       0.03648984      -1.29637801
H        0.08308630       1.19601791       0.47407979
H       -1.86911782       0.25299177       1.14112274
H        0.01141748      -2.76217366      -0.35260086
H        1.02075503      -1.46065518      -1.25834162
H        0.85602733      -1.39230033       1.89138683
H        2.63245418       0.34207388       0.52738774
H        1.84360291       1.56862911       1.42427265
H        1.93143072       1.57777059      -0.35166856
17
Frame=11 idx=000425 GeodesicLength=1.0610747450287432 rxn_smarts="[C:1]([C:2]([N:3]1[C:4]([H:12])([H:13])[C@:5]1([C:6]([H:15])([H:16])[H:17])[H:14])([H:10])[H:11])([H:7])([H:8])[H:9]>>[C:1]([C-:2]([N+:3]1=[C:5]([H:14])[C:4]1([H:12])[H:13])[H:11])([H:7])([H:8])[H:9].[C:6]([H:10])([H:15])([H:16])[H:17]"
C       -1.85220527       0.69573457      -1.00004367
C       -1.21198547       0.25892333       0.29082290
N       -0.38251225      -0.80962031       0.21467372
C        0.47580908      -1.79051747      -0.36526796
C        0.81422682      -1.03694164       0.85606583
C        1.73667311       0.95889377       0.51811076
H       -2.27292037       1.69761264      -0.87708668
H       -1.10026752       0.74378771      -1.79105900
H       -2.66441027       0.04617566      -1.33347640
H        0.05384708       1.22424383       0.50847657
H       -1.90771116       0.17547060       1.12657098
H       -0.00307888      -2.76851939      -0.31746715
H        1.03017748      -1.50615622      -1.25753191
H        0.84083444      -1.38193340       1.88228634
H        2.64270554       0.34690414       0.55051410
H        1.85280152       1.61102962       1.38420834
H        1.94801613       1.53491255      -0.38979678
17
Frame=12 idx=000425 GeodesicLength=1.1568405850040242 rxn_smarts="[C:1]([C:2]([N:3]1[C:4]([H:12])([H:13])[C@:5]1([C:6]([H:15])([H:16])[H:17])[H:14])([H:10])[H:11])([H:7])([H:8])[H:9]>>[C:1]([C-:2]([N+:3]1=[C:5]([H:14])[C:4]1([H:12])[H:13])[H:11])([H:7])([H:8])[H:9].[C:6]([H:10])([H:15])([H:16])[H:17]"
C       -1.84869321       0.71375599      -0.99009965
C       -1.22697561       0.24047311       0.29756624
N       -0.36778674      -0.79937550       0.18953523
C        0.47805083      -1.80614172      -0.35818438
C        0.82815746      -1.02672666       0.84457827
C        1.74465248       0.96083250       0.50662616
H       -2.29740957       1.69921723      -0.83708379
H       -1.07889297       0.81167416      -1.75893257
H       -2.63623712       0.05971007      -1.37008254
H        0.02344575       1.25095391       0.54475795
H       -1.94373836       0.09529147       1.10632230
H       -0.01864582      -2.77336853      -0.28107424
H        1.03969444      -1.55373191      -1.25501458
H        0.82603343      -1.37021642       1.87246677
H        2.65215999       0.35330593       0.57422559
H        1.86043408       1.65347074       1.34080917
H        1.96575092       1.49087562      -0.42641591
17
Frame=13 idx=000425 GeodesicLength=1.2523464218387754 rxn_smarts="[C:1]([C:2]([N:3]1[C:4]([H:12])([H:13])[C@:5]1([C:6]([H:15])([H:16])[H:17])[H:14])([H:10])[H:11])([H:7])([H:8])[H:9]>>[C:1]([C-:2]([N+:3]1=[C:5]([H:14])[C:4]1([H:12])[H:13])[H:11])([H:7])([H:8])[H:9].[C:6]([H:10])([H:15])([H:16])[H:17]"
C       -1.84514502       0.73217807      -0.97911032
C       -1.24130564       0.22030063       0.30285532
N       -0.35239807      -0.78876516       0.16331186
C        0.47979156      -1.82174481      -0.35042172
C        0.84224394      -1.01660408       0.83271703
C        1.75256947       0.96317242       0.49409906
H       -2.32146763       1.69958618      -0.79640758
H       -1.05927437       0.87954392      -1.72348011
H       -2.60722660       0.07716409      -1.40568100
H       -0.00830956       1.27582034       0.58303246
H       -1.97714241       0.01355220       1.08044368
H       -0.03498339      -2.77666739      -0.24380984
H        1.04911724      -1.60316058      -1.25070789
H        0.81176178      -1.35730205       1.86194254
H        2.66067242       0.36135841       0.59892893
H        1.86610430       1.69583443       1.29372878
H        1.98499198       1.44573338      -0.46144120
17
Frame=14 idx=000425 GeodesicLength=1.3478010808183516 rxn_smarts="[C:1]([C:2]([N:3]1[C:4]([H:12])([H:13])[C@:5]1([C:6]([H:15])([H:16])[H:17])[H:14])([H:10])[H:11])([H:7])([H:8])[H:9]>>[C:1]([C-:2]([N+:3]1=[C:5]([H:14])[C:4]1([H:12])[H:13])[H:11])([H:7])([H:8])[H:9].[C:6]([H:10])([H:15])([H:16])[H:17]"
C       -1.84151403       0.75101710      -0.96701101
C       -1.25490863       0.19831252       0.30657657
N       -0.33655514      -0.77780915       0.13622444
C        0.48089863      -1.83712241      -0.34188789
C        0.85644991      -1.00648362       0.82051156
C        1.76046057       0.96584066       0.48015899
H       -2.34541572       1.69825946      -0.75476159
H       -1.04127461       0.94793819      -1.68409425
H       -2.57723129       0.09862997      -1.44064352
H       -0.04154518       1.29855339       0.62378972
H       -2.00752280      -0.06985738       1.04842377
H       -0.05217228      -2.77818670      -0.20554292
H        1.05825555      -1.65416287      -1.24449512
H        0.79806928      -1.34305876       1.85077695
H        2.66808467       0.37126614       0.62496213
H        1.86938092       1.73811605       1.24224832
H        2.00654016       1.39874740      -0.49523614
17
Frame=15 idx=000425 GeodesicLength=1.4432706266612192 rxn_smarts="[C:1]([C:2]([N:3]1[C:4]([H:12])([H:13])[C@:5]1([C:6]([H:15])([H:16])[H:17])[H:14])([H:10])[H:11])([H:7])([H:8])[H:9]>>[C:1]([C-:2]([N+:3]1=[C:5]([H:14])[C:4]1([H:12])[H:13])[H:11])([H:7])([H:8])[H:9].[C:6]([H:10])([H:15])([H:16])[H:17]"
C       -1.83774123       0.77020736      -0.95372284
C       -1.26777004       0.17447646       0.30862380
N       -0.32041419      -0.76672357       0.10848881
C        0.48136212      -1.85208345      -0.33265353
C        0.87075071      -0.99639078       0.80798915
C        1.76831320       0.96870514       0.46450577
H       -2.36915799       1.69514573      -0.71219883
H       -1.02479511       1.01659086      -1.64054292
H       -2.54618565       0.12419102      -1.47478292
H       -0.07638080       1.31882376       0.66727008
H       -2.03478387      -0.15413242       1.01028160
H       -0.06993828      -2.77788069      -0.16652400
H        1.06685945      -1.70634083      -1.23636599
H        0.78507960      -1.32759225       1.83901489
H        2.67411946       0.38327955       0.65271787
H        1.86978641       1.78018298       1.18577376
H        2.03089620       1.34954115      -0.52787471
17
Frame=16 idx=000425 GeodesicLength=1.5388986186829965 rxn_smarts="[C:1]([C:2]([N:3]1[C:4]([H:12])([H:13])[C@:5]1([C:6]([H:15])([H:16])[H:17])[H:14])([H:10])[H:11])([H:7])([H:8])[H:9]>>[C:1]([C-:2]([N+:3]1=[C:5]([H:14])[C:4]1([H:12])[H:13])[H:11])([H:7])([H:8])[H:9].[C:6]([H:10])([H:15])([H:16])[H:17]"
C       -1.83375269       0.78968324      -0.93914719
C       -1.27986818       0.14877865       0.30894414
N       -0.30413146      -0.75575065       0.08035775
C        0.48121787      -1.86645914      -0.32281585
C        0.88513462      -0.98635986       0.79519527
C        1.77610213       0.97161630       0.44681569
H       -2.39261058       1.69023985      -0.66884679
H       -1.00971246       1.08518174      -1.59256929
H       -2.51398632       0.15397388      -1.50789572
H       -0.11293202       1.33629638       0.71370115
H       -2.05894546      -0.23842344       0.96611903
H       -0.08794962      -2.77575193      -0.12703961
H        1.07471172      -1.75925638      -1.22633429
H        0.77292205      -1.31103730       1.82671620
H        2.67838112       0.39776302       0.68257356
H        1.86684203       1.82181819       1.12353157
H        2.05857726       1.29768746      -0.55930562
