13
Frame=0 idx=001188 GeodesicLength=0.0 rxn_smarts="[O:1]([C:2]12[C:3]([H:8])([H:9])[N:4]([C:5]1([H:10])[H:11])[C:6]2([H:12])[H:13])[H:7]>>[O:1]([C:2]12[C:3]([H:8])([H:9])[N+:4]([H:12])([C:5]1([H:10])[H:11])[C-:6]2[H:13])[H:7]"
O        1.18663420      -0.48703047       1.52456135
C        0.40781209      -0.16172961       0.43262624
C       -0.49733427      -1.07669477      -0.39822647
N       -0.93129465       0.26247396      -0.92426741
C       -0.78015612       0.78497636       0.49689611
C        1.05084009       0.51202620      -0.79611661
H        1.96839885      -0.95032928       1.21127933
H       -0.02900435      -1.71641757      -1.14486572
H       -1.32349915      -1.56582391       0.11745649
H       -0.58611299       1.85188377       0.58439946
H       -1.65531043       0.49296107       1.08693436
H        0.00794339       0.46906294      -1.61863689
H        1.18108339       1.58464125      -0.57204021
13
Frame=1 idx=001188 GeodesicLength=0.07339933655083673 rxn_smarts="[O:1]([C:2]12[C:3]([H:8])([H:9])[N:4]([C:5]1([H:10])[H:11])[C:6]2([H:12])[H:13])[H:7]>>[O:1]([C:2]12[C:3]([H:8])([H:9])[N+:4]([H:12])([C:5]1([H:10])[H:11])[C-:6]2[H:13])[H:7]"
O        1.18778990      -0.49110342       1.52872082
C        0.40839175      -0.16350156       0.43863539
C       -0.49684262      -1.07604692      -0.39602436
N       -0.91532474       0.26833042      -0.92066859
C       -0.77937276       0.78493420       0.50232732
C        1.03700518       0.51371621      -0.79517615
H        1.97102216      -0.95037368       1.21332788
H       -0.02705851      -1.71702236      -1.14061394
H       -1.32828310      -1.56176458       0.11460171
H       -0.58466888       1.85141671       0.59430054
H       -1.65755462       0.49130591       1.08689588
H        0.01101091       0.46395406      -1.65006639
H        1.17388534       1.58615501      -0.57626011
13
Frame=2 idx=001188 GeodesicLength=0.1469141125145697 rxn_smarts="[O:1]([C:2]12[C:3]([H:8])([H:9])[N:4]([C:5]1([H:10])[H:11])[C:6]2([H:12])[H:13])[H:7]>>[O:1]([C:2]12[C:3]([H:8])([H:9])[N+:4]([H:12])([C:5]1([H:10])[H:11])[C-:6]2[H:13])[H:7]"
O        1.18897923      -0.49510994       1.53282795
C        0.40904551      -0.16520133       0.44457588
C       -0.49636530      -1.07536344      -0.39380824
N       -0.89936153       0.27407374      -0.91716763
C       -0.77867251       0.78482123       0.50765561
C        1.02320258       0.51529269      -0.79443796
H        1.97370829      -0.95027275       1.21534874
H       -0.02517249      -1.71756581      -1.13639306
H       -1.33303575      -1.55765861       0.11171619
H       -0.58326055       1.85085951       0.60405347
H       -1.65989106       0.48961582       1.08668018
H        0.01383906       0.45908583      -1.68060379
H        1.16698452       1.58742305      -0.58044736
13
Frame=3 idx=001188 GeodesicLength=0.22051920616065362 rxn_smarts="[O:1]([C:2]12[C:3]([H:8])([H:9])[N:4]([C:5]1([H:10])[H:11])[C:6]2([H:12])[H:13])[H:7]>>[O:1]([C:2]12[C:3]([H:8])([H:9])[N+:4]([H:12])([C:5]1([H:10])[H:11])[C-:6]2[H:13])[H:7]"
O        1.19017222      -0.49905110       1.53688610
C        0.40977146      -0.16682833       0.45042617
C       -0.49589198      -1.07465701      -0.39158828
N       -0.88348632       0.27966598      -0.91373987
C       -0.77804353       0.78464733       0.51285739
C        1.00948362       0.51675192      -0.79387699
H        1.97641908      -0.95005940       1.21737466
H       -0.02333505      -1.71803873      -1.13223202
H       -1.33771398      -1.55354235       0.10882113
H       -0.58188196       1.85022519       0.61360669
H       -1.66227593       0.48791063       1.08631779
H        0.01640620       0.45452190      -1.71024091
H        1.16037615       1.58845396      -0.58461184
13
Frame=4 idx=001188 GeodesicLength=0.2941955230154006 rxn_smarts="[O:1]([C:2]12[C:3]([H:8])([H:9])[N:4]([C:5]1([H:10])[H:11])[C:6]2([H:12])[H:13])[H:7]>>[O:1]([C:2]12[C:3]([H:8])([H:9])[N+:4]([H:12])([C:5]1([H:10])[H:11])[C-:6]2[H:13])[H:7]"
O        1.19134236      -0.50292875       1.54090042
C        0.41056709      -0.16838429       0.45617023
C       -0.49541267      -1.07394015      -0.38937193
N       -0.86777003       0.28507518      -0.91036253
C       -0.77747342       0.78442166       0.51791395
C        0.99589274       0.51809132      -0.79346730
H        1.97912059      -0.94976430       1.21943616
H       -0.02153454      -1.71843436      -1.12815492
H       -1.34228155      -1.54944906       0.10593683
H       -0.58052644       1.84952615       0.62291593
H       -1.66466917       0.48620884       1.08583771
H        0.01869410       0.45032013      -1.73899348
H        1.15405093       1.58925763      -0.58876109
13
Frame=5 idx=001188 GeodesicLength=0.367910754079167 rxn_smarts="[O:1]([C:2]12[C:3]([H:8])([H:9])[N:4]([C:5]1([H:10])[H:11])[C:6]2([H:12])[H:13])[H:7]>>[O:1]([C:2]12[C:3]([H:8])([H:9])[N+:4]([H:12])([C:5]1([H:10])[H:11])[C-:6]2[H:13])[H:7]"
O        1.19246759      -0.50674557       1.54487651
C        0.41143015      -0.16987039       0.46179592
C       -0.49491936      -1.07322222      -0.38716601
N       -0.85226950       0.29027924      -0.90701837
C       -0.77695120       0.78415295       0.52281236
C        0.98246693       0.51931013      -0.79318475
H        1.98178457      -0.94941588       1.22155995
H       -0.01976055      -1.71874830      -1.12417984
H       -1.34671057      -1.54540619       0.10308082
H       -0.57918806       1.84877471       0.63195016
H       -1.66703854       0.48452330       1.08526746
H        0.02069504       0.44652265      -1.76688625
H        1.14799349       1.58984558      -0.59290797
13
Frame=6 idx=001188 GeodesicLength=0.4416315519198208 rxn_smarts="[O:1]([C:2]12[C:3]([H:8])([H:9])[N:4]([C:5]1([H:10])[H:11])[C:6]2([H:12])[H:13])[H:7]>>[O:1]([C:2]12[C:3]([H:8])([H:9])[N+:4]([H:12])([C:5]1([H:10])[H:11])[C-:6]2[H:13])[H:7]"
O        1.19352904      -0.51050448       1.54882067
C        0.41235794      -0.17128951       0.46729521
C       -0.49440413      -1.07251316      -0.38497449
N       -0.83703229       0.29525882      -0.90369258
C       -0.77646572       0.78384883       0.52754369
C        0.96923661       0.52040819      -0.79300697
H        1.98438684      -0.94903981       1.22376992
H       -0.01800313      -1.71897876      -1.12032048
H       -1.35097747      -1.54143560       0.10026747
H       -0.57786057       1.84798180       0.64068255
H       -1.66935490       0.48286666       1.08463137
H        0.02240120       0.44316717      -1.79395584
H        1.14218659       1.59022985      -0.59706052
13
Frame=7 idx=001188 GeodesicLength=0.5153391114290742 rxn_smarts="[O:1]([C:2]12[C:3]([H:8])([H:9])[N:4]([C:5]1([H:10])[H:11])[C:6]2([H:12])[H:13])[H:7]>>[O:1]([C:2]12[C:3]([H:8])([H:9])[N+:4]([H:12])([C:5]1([H:10])[H:11])[C-:6]2[H:13])[H:7]"
O        1.19451316      -0.51420909       1.55273966
C        0.41334750      -0.17264419       0.47266511
C       -0.49386133      -1.07181964      -0.38280013
N       -0.82209097       0.30000675      -0.90037457
C       -0.77600759       0.78351714       0.53210490
C        0.95622245       0.52138658      -0.79291423
H        1.98690967      -0.94865744       1.22608485
H       -0.01625351      -1.71912545      -1.11658505
H       -1.35506777      -1.53755415       0.09750893
H       -0.57653801       1.84715622       0.64910270
H       -1.67159856       0.48124625       1.08395027
H        0.02381659       0.44027388      -1.82025137
H        1.13660839       1.59042314      -0.60123109
13
Frame=8 idx=001188 GeodesicLength=0.5890037435314656 rxn_smarts="[O:1]([C:2]12[C:3]([H:8])([H:9])[N:4]([C:5]1([H:10])[H:11])[C:6]2([H:12])[H:13])[H:7]>>[O:1]([C:2]12[C:3]([H:8])([H:9])[N+:4]([H:12])([C:5]1([H:10])[H:11])[C-:6]2[H:13])[H:7]"
O        1.19540827      -0.51786358       1.55663920
C        0.41439596      -0.17393799       0.47790354
C       -0.49328601      -1.07114811      -0.38064475
N       -0.80747186       0.30451613      -0.89705558
C       -0.77556802       0.78316338       0.53649544
C        0.94344212       0.52224724      -0.79288881
H        1.98933771      -0.94828679       1.22852166
H       -0.01450483      -1.71918959      -1.11297920
H       -1.35897022      -1.53377523       0.09481526
H       -0.57521540       1.84630736       0.65720011
H       -1.67375120       0.47966841       1.08324393
H        0.02494607       0.43786078      -1.84582161
H        1.13123740       1.59043799      -0.60542920
13
Frame=9 idx=001188 GeodesicLength=0.6625700453596294 rxn_smarts="[O:1]([C:2]12[C:3]([H:8])([H:9])[N:4]([C:5]1([H:10])[H:11])[C:6]2([H:12])[H:13])[H:7]>>[O:1]([C:2]12[C:3]([H:8])([H:9])[N+:4]([H:12])([C:5]1([H:10])[H:11])[C-:6]2[H:13])[H:7]"
O        1.19620213      -0.52146879       1.56052617
C        0.41550104      -0.17517299       0.48300827
C       -0.49267269      -1.07050331      -0.37851098
N       -0.79320382       0.30877801      -0.89372448
C       -0.77513962       0.78279336       0.54071206
C        0.93091716       0.52299099      -0.79291307
H        1.99165344      -0.94795004       1.23109701
H       -0.01274899      -1.71916918      -1.10951088
H       -1.36267067      -1.53011534       0.09219920
H       -0.57388870       1.84544466       0.66496140
H       -1.67579497       0.47813925       1.08253116
H        0.02578933       0.43594867      -1.87071047
H        1.12605636       1.59028470      -0.60966540
13
Frame=10 idx=001188 GeodesicLength=0.7360868130878208 rxn_smarts="[O:1]([C:2]12[C:3]([H:8])([H:9])[N:4]([C:5]1([H:10])[H:11])[C:6]2([H:12])[H:13])[H:7]>>[O:1]([C:2]12[C:3]([H:8])([H:9])[N+:4]([H:12])([C:5]1([H:10])[H:11])[C-:6]2[H:13])[H:7]"
O        1.19689355      -0.52503106       1.56440804
C        0.41666010      -0.17635337       0.48798782
C       -0.49201929      -1.06988902      -0.37639513
N       -0.77928361       0.31280419      -0.89038113
C       -0.77471493       0.78241214       0.54476602
C        0.91864474       0.52362266      -0.79297402
H        1.99385609      -0.94765790       1.23381902
H       -0.01098165      -1.71907143      -1.10617272
H       -1.36617545      -1.52657391       0.08966311
H       -0.57255347       1.84457312       0.67240250
H       -1.67772672       0.47665729       1.08182472
H        0.02636439       0.43452812      -1.89500225
H        1.12103625       1.58997917      -0.61394598
13
Frame=11 idx=001188 GeodesicLength=0.8095829815959421 rxn_smarts="[O:1]([C:2]12[C:3]([H:8])([H:9])[N:4]([C:5]1([H:10])[H:11])[C:6]2([H:12])[H:13])[H:7]>>[O:1]([C:2]12[C:3]([H:8])([H:9])[N+:4]([H:12])([C:5]1([H:10])[H:11])[C-:6]2[H:13])[H:7]"
O        1.19748062      -0.52855430       1.56829148
C        0.41787038      -0.17748286       0.49284897
C       -0.49132366      -1.06930773      -0.37429463
N       -0.76571177       0.31660381      -0.88702295
C       -0.77428812       0.78202357       0.54866796
C        0.90662470       0.52414692      -0.79305796
H        1.99594193      -0.94742314       1.23669495
H       -0.00919827      -1.71889985      -1.10296056
H       -1.36948700      -1.52315283       0.08721150
H       -0.57120570       1.84369890       0.67953663
H       -1.67954294       0.47522199       1.08113595
H        0.02668886       0.43359077      -1.91877127
H        1.11615097       1.58953474      -0.61828005
13
Frame=12 idx=001188 GeodesicLength=0.8830539806135511 rxn_smarts="[O:1]([C:2]12[C:3]([H:8])([H:9])[N:4]([C:5]1([H:10])[H:11])[C:6]2([H:12])[H:13])[H:7]>>[O:1]([C:2]12[C:3]([H:8])([H:9])[N+:4]([H:12])([C:5]1([H:10])[H:11])[C-:6]2[H:13])[H:7]"
O        1.19796199      -0.53204108       1.57218066
C        0.41912951      -0.17856396       0.49759651
C       -0.49058493      -1.06876140      -0.37220767
N       -0.75248734       0.32018453      -0.88364865
C       -0.77385475       0.78163111       0.55242590
C        0.89485579       0.52456739      -0.79315611
H        1.99790759      -0.94725531       1.23972902
H       -0.00739692      -1.71865845      -1.09987049
H       -1.37260823      -1.51985357       0.08484819
H       -0.56984275       1.84282622       0.68637373
H       -1.68124071       0.47383216       1.08047556
H        0.02678254       0.43312891      -1.94207155
H        1.11137822       1.58896344      -0.62267511
13
Frame=13 idx=001188 GeodesicLength=0.956530818993919 rxn_smarts="[O:1]([C:2]12[C:3]([H:8])([H:9])[N:4]([C:5]1([H:10])[H:11])[C:6]2([H:12])[H:13])[H:7]>>[O:1]([C:2]12[C:3]([H:8])([H:9])[N+:4]([H:12])([C:5]1([H:10])[H:11])[C-:6]2[H:13])[H:7]"
O        1.19833804      -0.53549368       1.57608155
C        0.42043556      -0.17959943       0.50223802
C       -0.48980199      -1.06825126      -0.37013101
N       -0.73960309       0.32355744      -0.88025669
C       -0.77341101       0.78123717       0.55605021
C        0.88333405       0.52488886      -0.79325880
H        1.99975235      -0.94716470       1.24292489
H       -0.00557462      -1.71835076      -1.09689686
H       -1.37554440      -1.51667665       0.08257696
H       -0.56846298       1.84196081       0.69292730
H       -1.68282012       0.47248479       1.07985183
H        0.02665942       0.43313116      -1.96497211
H        1.10669879       1.58827626      -0.62713528
13
Frame=14 idx=001188 GeodesicLength=1.0300482049333222 rxn_smarts="[O:1]([C:2]12[C:3]([H:8])([H:9])[N:4]([C:5]1([H:10])[H:11])[C:6]2([H:12])[H:13])[H:7]>>[O:1]([C:2]12[C:3]([H:8])([H:9])[N+:4]([H:12])([C:5]1([H:10])[H:11])[C-:6]2[H:13])[H:7]"
O        1.19861139      -0.53891486       1.57999813
C        0.42178670      -0.18059160       0.50678106
C       -0.48897521      -1.06777726      -0.36806139
N       -0.72704977       0.32673501      -0.87684674
C       -0.77295383       0.78084404       0.55955343
C        0.87205103       0.52511657      -0.79335808
H        2.00147725      -0.94715851       1.24628273
H       -0.00373085      -1.71798060      -1.09403269
H       -1.37830324      -1.51361841       0.08039887
H       -0.56706465       1.84110539       0.69921569
H       -1.68428310       0.47117668       1.07927259
H        0.02634464       0.43357797      -1.98753752
H        1.10208965       1.58748558      -0.63166609
13
Frame=15 idx=001188 GeodesicLength=1.1036359491004208 rxn_smarts="[O:1]([C:2]12[C:3]([H:8])([H:9])[N:4]([C:5]1([H:10])[H:11])[C:6]2([H:12])[H:13])[H:7]>>[O:1]([C:2]12[C:3]([H:8])([H:9])[N+:4]([H:12])([C:5]1([H:10])[H:11])[C-:6]2[H:13])[H:7]"
O        1.19878473      -0.54230627       1.58393473
C        0.42318140      -0.18154276       0.51123316
C       -0.48810458      -1.06733986      -0.36599524
N       -0.71481453       0.32972879      -0.87341842
C       -0.77248098       0.78045331       0.56294538
C        0.86099787       0.52525484      -0.79344908
H        2.00308426      -0.94724249       1.24980299
H       -0.00186492      -1.71755220      -1.09127095
H       -1.38089180      -1.51067638       0.07831561
H       -0.56564721       1.84026301       0.70525383
H       -1.68563281       0.46990392       1.07874245
H        0.02585237       0.43445595      -2.00982535
H        1.09753621       1.58660013      -0.63626910
13
Frame=16 idx=001188 GeodesicLength=1.1773262897035632 rxn_smarts="[O:1]([C:2]12[C:3]([H:8])([H:9])[N:4]([C:5]1([H:10])[H:11])[C:6]2([H:12])[H:13])[H:7]>>[O:1]([C:2]12[C:3]([H:8])([H:9])[N+:4]([H:12])([C:5]1([H:10])[H:11])[C-:6]2[H:13])[H:7]"
O        1.19886121      -0.54566907       1.58789508
C        0.42461836      -0.18245484       0.51560155
C       -0.48719048      -1.06693878      -0.36392927
N       -0.70288514       0.33255017      -0.86997077
C       -0.77199075       0.78006623       0.56623623
C        0.85016521       0.52530838      -0.79352685
H        2.00457534      -0.94742229       1.25348472
H        0.00002326      -1.71706894      -1.08860507
H       -1.38331727      -1.50784757       0.07632852
H       -0.56421038       1.83943623       0.71105732
H       -1.68687256       0.46866283       1.07826588
H        0.02519950       0.43574868      -2.03189146
H        1.09302371       1.58562896      -0.64094587
