14
Frame=0 idx=006267 GeodesicLength=0.0 rxn_smarts="[C:1]([C@@:2]1([H:10])[C:3]([H:11])([H:12])[C@:4]1([C:5](=[O:6])[H:14])[H:13])([H:7])([H:8])[H:9]>>[C:1](=[C:2]([H:9])[H:10])([H:7])[H:8].[C:3](=[C:4]([C:5](=[O:6])[H:14])[H:13])([H:11])[H:12]"
C       -1.35429894      -1.09458666      -0.21988616
C       -0.65363347       0.03623882      -0.74936037
C        0.14052950       1.48921144       0.73946046
C        0.70686622       0.52555210      -0.17384683
C        1.50166886      -0.57565757       0.49143938
O        2.62630521      -0.86678762       0.19427712
H       -0.80634291      -1.93994206       0.17203957
H       -2.43431580      -1.15522127      -0.24215151
H       -0.57310459      -0.85912998      -1.51074624
H       -1.23417754       0.82017769      -1.22103496
H       -0.54050198       1.16286240       1.51356695
H        0.31744035       2.54725176       0.61495625
H        1.31927490       0.97769112      -0.95122756
H        0.98429023      -1.06766023       1.34251389
14
Frame=1 idx=006267 GeodesicLength=0.11008730419226573 rxn_smarts="[C:1]([C@@:2]1([H:10])[C:3]([H:11])([H:12])[C@:4]1([C:5](=[O:6])[H:14])[H:13])([H:7])([H:8])[H:9]>>[C:1](=[C:2]([H:9])[H:10])([H:7])[H:8].[C:3](=[C:4]([C:5](=[O:6])[H:14])[H:13])([H:11])[H:12]"
C       -1.36358818      -1.09732530      -0.23724314
C       -0.66400193       0.03690523      -0.75577871
C        0.13718789       1.49168703       0.74408031
C        0.71933632       0.53246096      -0.16006132
C        1.51338690      -0.56616315       0.50399980
O        2.61773983      -0.89324059       0.16996557
H       -0.81847047      -1.93188939       0.18121592
H       -2.44383917      -1.15572134      -0.26536730
H       -0.57041628      -0.87659036      -1.51644522
H       -1.24069765       0.81335168      -1.24456287
H       -0.50771985       1.15790271       1.54570542
H        0.29767698       2.55194248       0.61564892
H        1.31596508       0.98336678      -0.94949289
H        1.00744053      -1.04668673       1.36833551
14
Frame=2 idx=006267 GeodesicLength=0.2201838963337951 rxn_smarts="[C:1]([C@@:2]1([H:10])[C:3]([H:11])([H:12])[C@:4]1([C:5](=[O:6])[H:14])[H:13])([H:7])([H:8])[H:9]>>[C:1](=[C:2]([H:9])[H:10])([H:7])[H:8].[C:3](=[C:4]([C:5](=[O:6])[H:14])[H:13])([H:11])[H:12]"
C       -1.37276038      -1.10014275      -0.25485677
C       -0.67470324       0.03760670      -0.76260578
C        0.13345429       1.49352051       0.74918032
C        0.73217495       0.53968449      -0.14597425
C        1.52569298      -0.55667655       0.51610393
O        2.60714374      -0.92017518       0.14616854
H       -0.83105285      -1.92317835       0.19035801
H       -2.45321820      -1.15633894      -0.28867670
H       -0.56781778      -0.89438164      -1.52223735
H       -1.24713929       0.80610870      -1.26893868
H       -0.47379348       1.15377868       1.57752889
H        0.27743690       2.55578671       0.61717674
H        1.31233894       0.98923454      -0.94752817
H        1.03224342      -1.02482692       1.39430128
14
Frame=3 idx=006267 GeodesicLength=0.3302906654553015 rxn_smarts="[C:1]([C@@:2]1([H:10])[C:3]([H:11])([H:12])[C@:4]1([C:5](=[O:6])[H:14])[H:13])([H:7])([H:8])[H:9]>>[C:1](=[C:2]([H:9])[H:10])([H:7])[H:8].[C:3](=[C:4]([C:5](=[O:6])[H:14])[H:13])([H:11])[H:12]"
C       -1.38185478      -1.10304045      -0.27274991
C       -0.68578258       0.03835384      -0.76986667
C        0.12935578       1.49464128       0.75478131
C        0.74540228       0.54721056      -0.13158925
C        1.53857006      -0.54726513       0.52770548
O        2.59458349      -0.94740580       0.12312221
H       -0.84415260      -1.91378809       0.19941218
H       -2.46249673      -1.15707418      -0.31210010
H       -0.56536696      -0.91249624      -1.52815200
H       -1.25352214       0.79845347      -1.29415554
H       -0.43866524       1.15053331       1.60903219
H        0.25673944       2.55871884       0.61954801
H        1.30836728       0.99524524      -0.94535116
H        1.05882269      -1.00208665       1.42036324
14
Frame=4 idx=006267 GeodesicLength=0.4404052063618149 rxn_smarts="[C:1]([C@@:2]1([H:10])[C:3]([H:11])([H:12])[C@:4]1([C:5](=[O:6])[H:14])[H:13])([H:7])([H:8])[H:9]>>[C:1](=[C:2]([H:9])[H:10])([H:7])[H:8].[C:3](=[C:4]([C:5](=[O:6])[H:14])[H:13])([H:11])[H:12]"
C       -1.39091212      -1.10601328      -0.29094169
C       -0.69729010       0.03916062      -0.77758274
C        0.12492123       1.49497429       0.76090512
C        0.75903977       0.55502682      -0.11690318
C        1.55198645      -0.53799253       0.53877807
O        2.58015043      -0.97475679       0.10106043
H       -0.85782876      -1.90370566       0.20829351
H       -2.47171811      -1.15793072      -0.33566644
H       -0.56313125      -0.93092007      -1.53421861
H       -1.25987297       0.79039133      -1.32020021
H       -0.40225382       1.14822529       1.64021071
H        0.23558569       2.56066482       0.62275526
H        1.30401893       1.00133874      -0.94296998
H        1.08730462      -0.97846287       1.44647975
14
Frame=5 idx=006267 GeodesicLength=0.5505293999934339 rxn_smarts="[C:1]([C@@:2]1([H:10])[C:3]([H:11])([H:12])[C@:4]1([C:5](=[O:6])[H:14])[H:13])([H:7])([H:8])[H:9]>>[C:1](=[C:2]([H:9])[H:10])([H:7])[H:8].[C:3](=[C:4]([C:5](=[O:6])[H:14])[H:13])([H:11])[H:12]"
C       -1.39996851      -1.10905490      -0.30944884
C       -0.70927786       0.04004434      -0.78576896
C        0.12018043       1.49444760       0.76757907
C        0.77311305       0.56312762      -0.10190149
C        1.56590075      -0.52890830       0.54932163
O        2.56392405      -1.00210354       0.08018583
H       -0.87212513      -1.89293368       0.21688333
H       -2.48091914      -1.15892598      -0.35941263
H       -0.56117896      -0.94963291      -1.54046572
H       -1.26622379       0.78192700      -1.34704867
H       -0.36446847       1.14694363       1.67105338
H        0.21395863       2.56155012       0.62678166
H        1.29926642       1.00745100      -0.94037705
H        1.11781854      -0.95393201       1.47261846
14
Frame=6 idx=006267 GeodesicLength=0.6606649200190358 rxn_smarts="[C:1]([C@@:2]1([H:10])[C:3]([H:11])([H:12])[C@:4]1([C:5](=[O:6])[H:14])[H:13])([H:7])([H:8])[H:9]>>[C:1](=[C:2]([H:9])[H:10])([H:7])[H:8].[C:3](=[C:4]([C:5](=[O:6])[H:14])[H:13])([H:11])[H:12]"
C       -1.40905182      -1.11215547      -0.32828799
C       -0.72179295       0.04102850      -0.79444239
C        0.11515463       1.49298592       0.77484267
C        0.78765252       0.57151788      -0.08655948
C        1.58027578      -0.52005000       0.55935738
O        2.54594462      -1.02939568       0.06063757
H       -0.88707422      -1.88146551       0.22509038
H       -2.49012830      -1.16008062      -0.38338505
H       -0.55955485      -0.96861453      -1.54691829
H       -1.27259855       0.77306985      -1.37469083
H       -0.32524287       1.14679000       1.70153437
H        0.19181318       2.56129570       0.63161713
H        1.29408507       1.01352988      -0.93755021
H        1.15051776      -0.92845593       1.49875473
14
Frame=7 idx=006267 GeodesicLength=0.7708157309136725 rxn_smarts="[C:1]([C@@:2]1([H:10])[C:3]([H:11])([H:12])[C@:4]1([C:5](=[O:6])[H:14])[H:13])([H:7])([H:8])[H:9]>>[C:1](=[C:2]([H:9])[H:10])([H:7])[H:8].[C:3](=[C:4]([C:5](=[O:6])[H:14])[H:13])([H:11])[H:12]"
C       -1.41818355      -1.11530359      -0.34747452
C       -0.73488643       0.04214233      -0.80361496
C        0.10987051       1.49051346       0.78274105
C        0.80269389       0.58020711      -0.07084446
C        1.59506890      -0.51145019       0.56892471
O        2.52622673      -1.05661976       0.04255835
H       -0.90268504      -1.86932037       0.23278004
H       -2.49936661      -1.16142244      -0.40762383
H       -0.55830911      -0.98783250      -1.55360723
H       -1.27903126       0.76383566      -1.40310192
H       -0.28450157       1.14789817       1.73161926
H        0.16908698       2.55981665       0.63723966
H        1.28845304       1.01951494      -0.93445845
H        1.18556355      -0.90197949       1.52486231
14
Frame=8 idx=006267 GeodesicLength=0.881057801743482 rxn_smarts="[C:1]([C@@:2]1([H:10])[C:3]([H:11])([H:12])[C@:4]1([C:5](=[O:6])[H:14])[H:13])([H:7])([H:8])[H:9]>>[C:1](=[C:2]([H:9])[H:10])([H:7])[H:8].[C:3](=[C:4]([C:5](=[O:6])[H:14])[H:13])([H:11])[H:12]"
C       -1.42737476      -1.11852016      -0.36700484
C       -0.74861628       0.04344609      -0.81330939
C        0.10433912       1.48703336       0.79134861
C        0.81828357       0.58922007      -0.05474102
C        1.61023564      -0.50321248       0.57808996
O        2.50484084      -1.08388153       0.02611724
H       -0.91890192      -1.85668515       0.23972359
H       -2.50865639      -1.16299755      -0.43209375
H       -0.55749328      -1.00725210      -1.56064867
H       -1.28558892       0.75433175      -1.43225979
H       -0.24217564       1.15052584       1.76136376
H        0.14564527       2.55716270       0.64359716
H        1.28237142       1.02535505      -0.93115674
H        1.22309132      -0.87452590       1.55097388
14
Frame=9 idx=006267 GeodesicLength=0.9912071533978787 rxn_smarts="[C:1]([C@@:2]1([H:10])[C:3]([H:11])([H:12])[C@:4]1([C:5](=[O:6])[H:14])[H:13])([H:7])([H:8])[H:9]>>[C:1](=[C:2]([H:9])[H:10])([H:7])[H:8].[C:3](=[C:4]([C:5](=[O:6])[H:14])[H:13])([H:11])[H:12]"
C       -1.43666680      -1.12165833      -0.38695356
C       -0.76297256       0.04489131      -0.82354349
C        0.09862960       1.48215890       0.80070977
C        0.83446608       0.59858063      -0.03812674
C        1.62579584      -0.49509364       0.58683134
O        2.48134352      -1.11101875       0.01116903
H       -0.93597380      -1.84292112       0.24635848
H       -2.51799832      -1.16473991      -0.45712463
H       -0.55701723      -1.02691244      -1.56775808
H       -1.29208267       0.74428386      -1.46228345
H       -0.19830357       1.15438040       1.79035559
H        0.12148719       2.55274003       0.65085343
H        1.27575490       1.03105011      -0.92727582
H        1.26353782      -0.84574106       1.57678810
14
Frame=10 idx=006267 GeodesicLength=1.1014156674714495 rxn_smarts="[C:1]([C@@:2]1([H:10])[C:3]([H:11])([H:12])[C@:4]1([C:5](=[O:6])[H:14])[H:13])([H:7])([H:8])[H:9]>>[C:1](=[C:2]([H:9])[H:10])([H:7])[H:8].[C:3](=[C:4]([C:5](=[O:6])[H:14])[H:13])([H:11])[H:12]"
C       -1.44604981      -1.12481296      -0.40728467
C       -0.77808055       0.04661085      -0.83432370
C        0.09277543       1.47605707       0.81089736
C        0.85129835       0.60829384      -0.02104268
C        1.64164332      -0.48738768       0.59528956
O        2.45611429      -1.13820075      -0.00177111
H       -0.95362030      -1.82871589       0.25196001
H       -2.52742416      -1.16674056      -0.48241896
H       -0.55707666      -1.04667050      -1.57529632
H       -1.29878855       0.73403356      -1.49297651
H       -0.15282390       1.16004812       1.81878157
H        0.09648139       2.54684963       0.65881931
H        1.26864550       1.03644445      -0.92307587
H        1.30690563      -0.81580916       1.60244202
14
Frame=11 idx=006267 GeodesicLength=1.211644123216262 rxn_smarts="[C:1]([C@@:2]1([H:10])[C:3]([H:11])([H:12])[C@:4]1([C:5](=[O:6])[H:14])[H:13])([H:7])([H:8])[H:9]>>[C:1](=[C:2]([H:9])[H:10])([H:7])[H:8].[C:3](=[C:4]([C:5](=[O:6])[H:14])[H:13])([H:11])[H:12]"
C       -1.45553458      -1.12792904      -0.42803855
C       -0.79398129       0.04863596      -0.84564897
C        0.08686209       1.46853463       0.82198958
C        0.86884889       0.61839980      -0.00341610
C        1.65775035      -0.48002530       0.60351700
O        2.42887461      -1.16548473      -0.01259878
H       -0.97186816      -1.81393498       0.25653550
H       -2.53692642      -1.16902841      -0.50810676
H       -0.55767357      -1.06647875      -1.58321997
H       -1.30567727       0.72354151      -1.52433276
H       -0.10574462       1.16759161       1.84643213
H        0.07054245       2.53920449       0.66753839
H        1.26100986       1.04148434      -0.91840545
H        1.35351766      -0.78451112       1.62775473
14
Frame=12 idx=006267 GeodesicLength=1.3219023059049468 rxn_smarts="[C:1]([C@@:2]1([H:10])[C:3]([H:11])([H:12])[C@:4]1([C:5](=[O:6])[H:14])[H:13])([H:7])([H:8])[H:9]>>[C:1](=[C:2]([H:9])[H:10])([H:7])[H:8].[C:3](=[C:4]([C:5](=[O:6])[H:14])[H:13])([H:11])[H:12]"
C       -1.46513250      -1.13096097      -0.44923816
C       -0.81073405       0.05102763      -0.85753389
C        0.08097211       1.45944095       0.83407781
C        0.88719733       0.62893893       0.01479881
C        1.67410446      -0.47300547       0.61157964
O        2.39944249      -1.19295701      -0.02111509
H       -0.99070923      -1.79853762       0.26005191
H       -2.54651362      -1.17161780      -0.53424813
H       -0.55881695      -1.08628299      -1.59155247
H       -1.31276151       0.71284861      -1.55635738
H       -0.05715609       1.17711632       1.87313399
H        0.04355973       2.52958729       0.67704599
H        1.25282833       1.04610151      -0.91318991
H        1.40371950      -0.75169939       1.65254686
14
Frame=13 idx=006267 GeodesicLength=1.432204581723771 rxn_smarts="[C:1]([C@@:2]1([H:10])[C:3]([H:11])([H:12])[C@:4]1([C:5](=[O:6])[H:14])[H:13])([H:7])([H:8])[H:9]>>[C:1](=[C:2]([H:9])[H:10])([H:7])[H:8].[C:3](=[C:4]([C:5](=[O:6])[H:14])[H:13])([H:11])[H:12]"
C       -1.47484618      -1.13387158      -0.47090838
C       -0.82841710       0.05386017      -0.86997333
C        0.07523082       1.44864021       0.84724323
C        0.90643597       0.63995291       0.03364358
C        1.69068161      -0.46632271       0.61957228
O        2.36761572      -1.22069643      -0.02700120
H       -1.01007104      -1.78257506       0.26235936
H       -2.55618686      -1.17454255      -0.56085577
H       -0.56055219      -1.10598484      -1.60035677
H       -1.32010166       0.70202887      -1.58898938
H       -0.00719216       1.18875880       1.89868493
H        0.01547437       2.51777966       0.68735752
H        1.24409013       1.05018503      -0.90736370
H        1.45783856      -0.71721247       1.67658763
14
Frame=14 idx=006267 GeodesicLength=1.542578835432664 rxn_smarts="[C:1]([C@@:2]1([H:10])[C:3]([H:11])([H:12])[C@:4]1([C:5](=[O:6])[H:14])[H:13])([H:7])([H:8])[H:9]>>[C:1](=[C:2]([H:9])[H:10])([H:7])[H:8].[C:3](=[C:4]([C:5](=[O:6])[H:14])[H:13])([H:11])[H:12]"
C       -1.48468387      -1.13661040      -0.49306624
C       -0.84711308       0.05721694      -0.88297089
C        0.06978232       1.43598601       0.86157113
C        0.92666826       0.65149537       0.05314601
C        1.70748835      -0.45996179       0.62758074
O        2.33318276      -1.24876351      -0.02990145
H       -1.02991793      -1.76602756       0.26342095
H       -2.56595164      -1.17782375      -0.58796255
H       -0.56289614      -1.12550537      -1.60967647
H       -1.32773184       0.69115508      -1.62222048
H        0.04389646       1.20256797       1.92286328
H       -0.01375683       2.50354330       0.69853220
H        1.23477985       1.05363036      -0.90086808
H        1.51625333      -0.68090266       1.69955184
14
Frame=15 idx=006267 GeodesicLength=1.6530095673440506 rxn_smarts="[C:1]([C@@:2]1([H:10])[C:3]([H:11])([H:12])[C@:4]1([C:5](=[O:6])[H:14])[H:13])([H:7])([H:8])[H:9]>>[C:1](=[C:2]([H:9])[H:10])([H:7])[H:8].[C:3](=[C:4]([C:5](=[O:6])[H:14])[H:13])([H:11])[H:12]"
C       -1.49462551      -1.13912804      -0.51573861
C       -0.86693554       0.06119839      -0.89647636
C        0.06484077       1.42135157       0.87708452
C        0.94801189       0.66360660       0.07332838
C        1.72451506      -0.45387112       0.63574631
O        2.29589278      -1.27717532      -0.02924271
H       -1.05006104      -1.74902938       0.26297176
H       -2.57578957      -1.18150686      -0.61550886
H       -0.56592992      -1.14465098      -1.61961309
H       -1.33579875       0.68035300      -1.65587280
H        0.09578281       1.21859905       1.94537000
H       -0.04404518       2.48661507       0.71055866
H        1.22489797       1.05622976      -0.89363008
H        1.57924424      -0.64259173       1.72102289
14
Frame=16 idx=006267 GeodesicLength=1.7635144349706804 rxn_smarts="[C:1]([C@@:2]1([H:10])[C:3]([H:11])([H:12])[C@:4]1([C:5](=[O:6])[H:14])[H:13])([H:7])([H:8])[H:9]>>[C:1](=[C:2]([H:9])[H:10])([H:7])[H:8].[C:3](=[C:4]([C:5](=[O:6])[H:14])[H:13])([H:11])[H:12]"
C       -1.50464537      -1.14137390      -0.53893996
C       -0.88800549       0.06591621      -0.91044334
C        0.06065037       1.40464932       0.89378266
C        0.97059808       0.67634912       0.09418171
C        1.74180399      -0.44797312       0.64419878
O        2.25548071      -1.30593080      -0.02438246
H       -1.07031221      -1.73168232       0.26085417
H       -2.58567726      -1.18564372      -0.64342662
H       -0.56970286      -1.16324514      -1.63027344
H       -1.34444546       0.66976519      -1.68980815
H        0.14796123       1.23676458       1.96592394
H       -0.07522449       2.46678035       0.72346403
H        1.21444896       1.05777529      -0.88560399
H        1.64706980      -0.60215105       1.74047268
