14
Frame=0 idx=007901 GeodesicLength=0.0 rxn_smarts="[C:1](/[C:2](=[N:3]\[O:4][H:11])[C@@:5]1([H:12])[C:6]([H:13])([H:14])[O:7]1)([H:8])([H:9])[H:10]>>[C:1]([C:2]([N+:3]([O:4][H:11])=[C:6]([H:13])[H:14])=[C:5]([O-:7])[H:12])([H:8])([H:9])[H:10]"
C       -1.42825924      -1.21734636      -0.21636767
C       -0.31386744      -0.25995067      -0.08479725
N       -0.29013888       0.87045065       0.50015405
O       -1.46011597       1.38213780       1.02325774
C        1.10860697      -0.32009970      -0.67032826
C        1.63242486       0.84394963       0.08951470
O        2.00589075      -1.24275775      -0.38497336
H       -1.86701078      -1.13445924      -1.21393071
H       -1.02602955      -2.22692929      -0.11771521
H       -2.20790059      -1.04411708       0.52357221
H       -1.17709398       2.10598690       1.58790311
H        0.98509176      -0.07280934      -1.75183045
H        2.09495516       1.71147919      -0.38036544
H        1.94344694       0.60446524       1.09590653
14
Frame=1 idx=007901 GeodesicLength=0.071893670900838 rxn_smarts="[C:1](/[C:2](=[N:3]\[O:4][H:11])[C@@:5]1([H:12])[C:6]([H:13])([H:14])[O:7]1)([H:8])([H:9])[H:10]>>[C:1]([C:2]([N+:3]([O:4][H:11])=[C:6]([H:13])[H:14])=[C:5]([O-:7])[H:12])([H:8])([H:9])[H:10]"
C       -1.42642716      -1.21975293      -0.21109835
C       -0.31821684      -0.25167868      -0.10760001
N       -0.28735351       0.87404623       0.49005142
O       -1.46136963       1.38492139       1.00497562
C        1.10130784      -0.32851897      -0.68446804
C        1.63291999       0.84372055       0.10082820
O        1.99596433      -1.24554534      -0.37982179
H       -1.90650585      -1.12045482      -1.18786607
H       -1.01206332      -2.22685584      -0.14409456
H       -2.17846439      -1.06734718       0.56151002
H       -1.18045285       2.11091150       1.56820782
H        1.00118707      -0.06603802      -1.76326284
H        2.10406706       1.71332937      -0.35590547
H        1.93540726       0.59926275       1.10854407
14
Frame=2 idx=007901 GeodesicLength=0.14372040740643094 rxn_smarts="[C:1](/[C:2](=[N:3]\[O:4][H:11])[C@@:5]1([H:12])[C:6]([H:13])([H:14])[O:7]1)([H:8])([H:9])[H:10]>>[C:1]([C:2]([N+:3]([O:4][H:11])=[C:6]([H:13])[H:14])=[C:5]([O-:7])[H:12])([H:8])([H:9])[H:10]"
C       -1.42433924      -1.22161218      -0.20608731
C       -0.32275035      -0.24309418      -0.13125659
N       -0.28510542       0.87854112       0.47776119
O       -1.46250746       1.38766448       0.98681575
C        1.09388666      -0.33733731      -0.69896535
C        1.63292718       0.84377527       0.11180897
O        1.98559762      -1.24818990      -0.37369715
H       -1.94474088      -1.10778836      -1.16031002
H       -0.99960743      -2.22580448      -0.16959636
H       -2.14752451      -1.08883846       0.59732019
H       -1.18295119       2.11307263       1.55174995
H        1.01820068      -0.06030819      -1.77459156
H        2.11295796       1.71483457      -0.33215279
H        1.92595640       0.59508498       1.12120108
14
Frame=3 idx=007901 GeodesicLength=0.21558753237836414 rxn_smarts="[C:1](/[C:2](=[N:3]\[O:4][H:11])[C@@:5]1([H:12])[C:6]([H:13])([H:14])[O:7]1)([H:8])([H:9])[H:10]>>[C:1]([C:2]([N+:3]([O:4][H:11])=[C:6]([H:13])[H:14])=[C:5]([O-:7])[H:12])([H:8])([H:9])[H:10]"
C       -1.42194215      -1.22311464      -0.20122568
C       -0.32736697      -0.23449231      -0.15537847
N       -0.28318170       0.88346234       0.46405741
O       -1.46343892       1.39004970       0.96906921
C        1.08621698      -0.34644194      -0.71389042
C        1.63247946       0.84393537       0.12280234
O        1.97475923      -1.25059409      -0.36735715
H       -1.98182545      -1.09605799      -1.13105215
H       -0.98856215      -2.22407321      -0.19478555
H       -2.11484420      -1.10915629       0.63142077
H       -1.18484364       2.11413204       1.53645310
H        1.03565911      -0.05503322      -1.78567003
H        2.12150156       1.71605475      -0.30845058
H        1.91538883       0.59132948       1.13400719
14
Frame=4 idx=007901 GeodesicLength=0.2874771387652971 rxn_smarts="[C:1](/[C:2](=[N:3]\[O:4][H:11])[C@@:5]1([H:12])[C:6]([H:13])([H:14])[O:7]1)([H:8])([H:9])[H:10]>>[C:1]([C:2]([N+:3]([O:4][H:11])=[C:6]([H:13])[H:14])=[C:5]([O-:7])[H:12])([H:8])([H:9])[H:10]"
C       -1.41922368      -1.22434158      -0.19645353
C       -0.33198982      -0.22605320      -0.17967210
N       -0.28151264       0.88861636       0.44939361
O       -1.46425839       1.39209708       0.95183348
C        1.07830272      -0.35582984      -0.72932393
C        1.63160755       0.84411508       0.13392135
O        1.96358281      -1.25281035      -0.36121426
H       -2.01759568      -1.08503978      -1.10015412
H       -0.97886609      -2.22187958      -0.21971298
H       -2.08056713      -1.12845343       0.66391654
H       -1.18633285       2.11478798       1.52159001
H        1.05335610      -0.04995341      -1.79651551
H        2.12960425       1.71705170      -0.28462328
H        1.90389286       0.58769296       1.14701471
14
Frame=5 idx=007901 GeodesicLength=0.3593411047139058 rxn_smarts="[C:1](/[C:2](=[N:3]\[O:4][H:11])[C@@:5]1([H:12])[C:6]([H:13])([H:14])[O:7]1)([H:8])([H:9])[H:10]>>[C:1]([C:2]([N+:3]([O:4][H:11])=[C:6]([H:13])[H:14])=[C:5]([O-:7])[H:12])([H:8])([H:9])[H:10]"
C       -1.41618225      -1.22538763      -0.19174182
C       -0.33655201      -0.21797161      -0.20378738
N       -0.27992821       0.89364073       0.43430717
O       -1.46481792       1.39347058       0.93535401
C        1.07003254      -0.36539814      -0.74526068
C        1.63033878       0.84421680       0.14532695
O        1.95206208      -1.25465869      -0.35569355
H       -2.05189727      -1.07459818      -1.06760182
H       -0.97052349      -2.21927478      -0.24444913
H       -2.04480466      -1.14698001       0.69470879
H       -1.18748388       2.11595588       1.50593777
H        1.07087614      -0.04472764      -1.80691757
H        2.13713105       1.71782571      -0.26036328
H        1.89174910       0.58388700       1.16018056
14
Frame=6 idx=007901 GeodesicLength=0.43122693905263565 rxn_smarts="[C:1](/[C:2](=[N:3]\[O:4][H:11])[C@@:5]1([H:12])[C:6]([H:13])([H:14])[O:7]1)([H:8])([H:9])[H:10]>>[C:1]([C:2]([N+:3]([O:4][H:11])=[C:6]([H:13])[H:14])=[C:5]([O-:7])[H:12])([H:8])([H:9])[H:10]"
C       -1.41291900      -1.22604684      -0.18714562
C       -0.34099649      -0.21017555      -0.22782714
N       -0.27845115       0.89896678       0.41820024
O       -1.46524828       1.39503280       0.91846811
C        1.06154524      -0.37538370      -0.76159708
C        1.62866837       0.84450925       0.15662961
O        1.94025759      -1.25623604      -0.35008495
H       -2.08432714      -1.06479435      -1.03394745
H       -0.96363514      -2.21622801      -0.26830169
H       -2.00817728      -1.16397569       0.72347630
H       -1.18819800       2.11530057       1.49224581
H        1.08852577      -0.04010435      -1.81694091
H        2.14414171       1.71846617      -0.23648189
H        1.87881381       0.58066895       1.17330665
14
Frame=7 idx=007901 GeodesicLength=0.5031551821871701 rxn_smarts="[C:1](/[C:2](=[N:3]\[O:4][H:11])[C@@:5]1([H:12])[C:6]([H:13])([H:14])[O:7]1)([H:8])([H:9])[H:10]>>[C:1]([C:2]([N+:3]([O:4][H:11])=[C:6]([H:13])[H:14])=[C:5]([O-:7])[H:12])([H:8])([H:9])[H:10]"
C       -1.40939592      -1.22648335      -0.18255936
C       -0.34532163      -0.20276745      -0.25162324
N       -0.27702491       0.90432299       0.40161227
O       -1.46557364       1.39654487       0.90161727
C        1.05278044      -0.38566492      -0.77851286
C        1.62663128       0.84480273       0.16810606
O        1.92824760      -1.25754694      -0.34506172
H       -2.11494211      -1.05553690      -0.99911921
H       -0.95797854      -2.21293638      -0.29140229
H       -1.97065942      -1.17984355       0.75051568
H       -1.18865684       2.11423794       1.47893714
H        1.10603288      -0.03552574      -1.82664627
H        2.15061145       1.71896608      -0.21242784
H        1.86524936       0.57743063       1.18656438
14
Frame=8 idx=007901 GeodesicLength=0.5751349796868392 rxn_smarts="[C:1](/[C:2](=[N:3]\[O:4][H:11])[C@@:5]1([H:12])[C:6]([H:13])([H:14])[O:7]1)([H:8])([H:9])[H:10]>>[C:1]([C:2]([N+:3]([O:4][H:11])=[C:6]([H:13])[H:14])=[C:5]([O-:7])[H:12])([H:8])([H:9])[H:10]"
C       -1.40562667      -1.22662898      -0.17792866
C       -0.34954059      -0.19570009      -0.27531073
N       -0.27559738       0.90978586       0.38421084
O       -1.46569740       1.39812786       0.88423034
C        1.04369080      -0.39620831      -0.79597171
C        1.62420454       0.84512501       0.17973729
O        1.91589151      -1.25841252      -0.34050437
H       -2.14377952      -1.04684970      -0.96306521
H       -0.95354778      -2.20928778      -0.31362901
H       -1.93220315      -1.19442543       0.77588938
H       -1.18872932       2.11201046       1.46648547
H        1.12341956      -0.03108457      -1.83587360
H        2.15662641       1.71925183      -0.18814386
H        1.85088901       0.57429636       1.19987383
14
Frame=9 idx=007901 GeodesicLength=0.6472039984941865 rxn_smarts="[C:1](/[C:2](=[N:3]\[O:4][H:11])[C@@:5]1([H:12])[C:6]([H:13])([H:14])[O:7]1)([H:8])([H:9])[H:10]>>[C:1]([C:2]([N+:3]([O:4][H:11])=[C:6]([H:13])[H:14])=[C:5]([O-:7])[H:12])([H:8])([H:9])[H:10]"
C       -1.40159691      -1.22666408      -0.17321622
C       -0.35362552      -0.18909875      -0.29863063
N       -0.27414617       0.91513618       0.36664184
O       -1.46571909       1.39964501       0.86697308
C        1.03429226      -0.40699322      -0.81415238
C        1.62142966       0.84534776       0.19170292
O        1.90340885      -1.25900196      -0.33694367
H       -2.17074958      -1.03857343      -0.92593419
H       -0.95015295      -2.20558484      -0.33506664
H       -1.89301742      -1.20810327       0.79975874
H       -1.18864452       2.11007521       1.45363614
H        1.14047548      -0.02639309      -1.84479912
H        2.16207651       1.71941056      -0.16336948
H        1.83596941       0.57079791       1.21339961
14
Frame=10 idx=007901 GeodesicLength=0.7193182444376246 rxn_smarts="[C:1](/[C:2](=[N:3]\[O:4][H:11])[C@@:5]1([H:12])[C:6]([H:13])([H:14])[O:7]1)([H:8])([H:9])[H:10]>>[C:1]([C:2]([N+:3]([O:4][H:11])=[C:6]([H:13])[H:14])=[C:5]([O-:7])[H:12])([H:8])([H:9])[H:10]"
C       -1.39729947      -1.22670812      -0.16840896
C       -0.35757544      -0.18306951      -0.32131743
N       -0.27251575       0.91999944       0.34940564
O       -1.46539207       1.40056819       0.85029493
C        1.02441756      -0.41784972      -0.83304130
C        1.61833217       0.84534920       0.20418545
O        1.89073014      -1.25906484      -0.33476849
H       -2.19579009      -1.03072829      -0.88769951
H       -0.94774700      -2.20179030      -0.35579181
H       -1.85315834      -1.22122942       0.82200838
H       -1.18837520       2.10958958       1.43893876
H        1.15676508      -0.02105982      -1.85315973
H        2.16687057       1.71938005      -0.13773217
H        1.82073784       0.56661357       1.22708625
14
Frame=11 idx=007901 GeodesicLength=0.7915364467951723 rxn_smarts="[C:1](/[C:2](=[N:3]\[O:4][H:11])[C@@:5]1([H:12])[C:6]([H:13])([H:14])[O:7]1)([H:8])([H:9])[H:10]>>[C:1]([C:2]([N+:3]([O:4][H:11])=[C:6]([H:13])[H:14])=[C:5]([O-:7])[H:12])([H:8])([H:9])[H:10]"
C       -1.39270878      -1.22678451      -0.16343753
C       -0.36143261      -0.17752824      -0.34353084
N       -0.27079872       0.92455819       0.33233229
O       -1.46488547       1.40117273       0.83407914
C        1.01412860      -0.42879773      -0.85279182
C        1.61488698       0.84509063       0.21722556
O        1.87794467      -1.25874250      -0.33403471
H       -2.21898889      -1.02328572      -0.84833092
H       -0.94617755      -2.19802777      -0.37581951
H       -1.81254366      -1.23383674       0.84293692
H       -1.18798109       2.11053327       1.42260320
H        1.17246038      -0.01509176      -1.86115461
H        2.17109727       1.71912028      -0.11115199
H        1.80499885       0.56161987       1.24107481
14
Frame=12 idx=007901 GeodesicLength=0.8638409137651196 rxn_smarts="[C:1](/[C:2](=[N:3]\[O:4][H:11])[C@@:5]1([H:12])[C:6]([H:13])([H:14])[O:7]1)([H:8])([H:9])[H:10]>>[C:1]([C:2]([N+:3]([O:4][H:11])=[C:6]([H:13])[H:14])=[C:5]([O-:7])[H:12])([H:8])([H:9])[H:10]"
C       -1.38791298      -1.22671391      -0.15836866
C       -0.36514780      -0.17242954      -0.36534215
N       -0.26894189       0.92899812       0.31508057
O       -1.46418118       1.40187510       0.81758135
C        1.00348688      -0.43999306      -0.87327308
C        1.61111457       0.84477987       0.23055317
O        1.86506175      -1.25796877      -0.33422500
H       -2.24014405      -1.01621948      -0.80834898
H       -0.94545376      -2.19421164      -0.39463632
H       -1.77171925      -1.24538313       0.86231061
H       -1.18734978       2.11120402       1.40641307
H        1.18767145      -0.00904622      -1.86871687
H        2.17476416       1.71871040      -0.08418692
H        1.78875189       0.55639822       1.25515921
14
Frame=13 idx=007901 GeodesicLength=0.9362559636275499 rxn_smarts="[C:1](/[C:2](=[N:3]\[O:4][H:11])[C@@:5]1([H:12])[C:6]([H:13])([H:14])[O:7]1)([H:8])([H:9])[H:10]>>[C:1]([C:2]([N+:3]([O:4][H:11])=[C:6]([H:13])[H:14])=[C:5]([O-:7])[H:12])([H:8])([H:9])[H:10]"
C       -1.38281721      -1.22676550      -0.15312066
C       -0.36879015      -0.16783557      -0.38655797
N       -0.26692439       0.93298042       0.29828243
O       -1.46318678       1.40203726       0.80188795
C        0.99234716      -0.45120269      -0.89467494
C        1.60700737       0.84413496       0.24455548
O        1.85210948      -1.25669374      -0.33606615
H       -2.25941886      -1.00953504      -0.76737041
H       -0.94540431      -2.19048176      -0.41276642
H       -1.73028728      -1.25666927       0.88039535
H       -1.18659752       2.11407578       1.38779022
H        1.20203159      -0.00222771      -1.87582470
H        2.17782285       1.71802219      -0.05608398
H        1.77210806       0.55016065       1.26955380
14
Frame=14 idx=007901 GeodesicLength=1.0087650502221892 rxn_smarts="[C:1](/[C:2](=[N:3]\[O:4][H:11])[C@@:5]1([H:12])[C:6]([H:13])([H:14])[O:7]1)([H:8])([H:9])[H:10]>>[C:1]([C:2]([N+:3]([O:4][H:11])=[C:6]([H:13])[H:14])=[C:5]([O-:7])[H:12])([H:8])([H:9])[H:10]"
C       -1.37749514      -1.22678153      -0.14775007
C       -0.37231385      -0.16369149      -0.40726485
N       -0.26471500       0.93669531       0.28163333
O       -1.46192760       1.40208328       0.78634319
C        0.98078283      -0.46257709      -0.91689950
C        1.60258869       0.84334218       0.25900144
O        1.83912147      -1.25489302      -0.33910359
H       -2.27667705      -1.00317048      -0.72587460
H       -0.94600311      -2.18679694      -0.42979061
H       -1.68871958      -1.26722647       0.89706322
H       -1.18565165       2.11762176       1.36835008
H        1.21566258       0.00484431      -1.88247522
H        2.18028863       1.71714266      -0.02734352
H        1.75505877       0.54340752       1.28411069
14
Frame=15 idx=007901 GeodesicLength=1.0813355813076448 rxn_smarts="[C:1](/[C:2](=[N:3]\[O:4][H:11])[C@@:5]1([H:12])[C:6]([H:13])([H:14])[O:7]1)([H:8])([H:9])[H:10]>>[C:1]([C:2]([N+:3]([O:4][H:11])=[C:6]([H:13])[H:14])=[C:5]([O-:7])[H:12])([H:8])([H:9])[H:10]"
C       -1.37199593      -1.22669224      -0.14229203
C       -0.37568135      -0.15997859      -0.42745752
N       -0.26226749       0.94019268       0.26508605
O       -1.46040863       1.40221065       0.77064929
C        0.96882079      -0.47419534      -0.93989200
C        1.59789575       0.84250796       0.27378027
O        1.82613993      -1.25252838      -0.34314619
H       -2.29184489      -0.99708173      -0.68427478
H       -0.94715512      -2.18317402      -0.44543573
H       -1.64742430      -1.27682320       0.91227238
H       -1.18447686       2.12113180       1.34887060
H        1.22854551       0.01189959      -1.88866807
H        2.18216785       1.71614722       0.00176351
H        1.73768473       0.53638362       1.29874420
14
Frame=16 idx=007901 GeodesicLength=1.153999213414919 rxn_smarts="[C:1](/[C:2](=[N:3]\[O:4][H:11])[C@@:5]1([H:12])[C:6]([H:13])([H:14])[O:7]1)([H:8])([H:9])[H:10]>>[C:1]([C:2]([N+:3]([O:4][H:11])=[C:6]([H:13])[H:14])=[C:5]([O-:7])[H:12])([H:8])([H:9])[H:10]"
C       -1.36624117      -1.22668664      -0.13670286
C       -0.37894840      -0.15671406      -0.44702498
N       -0.25957924       0.94326613       0.24904009
O       -1.45854074       1.40194256       0.75566132
C        0.95635640      -0.48589525      -0.96376652
C        1.59291594       0.84143706       0.28917429
O        1.81317318      -1.24955043      -0.34862472
H       -2.30508327      -0.99123679      -0.64221873
H       -0.94875960      -2.17967858      -0.46019991
H       -1.60600256      -1.28610520       0.92622440
H       -1.18316266       2.12638967       1.32744531
H        1.24041865       0.01933799      -1.89438890
H        2.18342283       1.71493019       0.03176023
H        1.72003063       0.52856335       1.31362099
