12
Frame=0 idx=007317 GeodesicLength=0.0 rxn_smarts="[O:1]([C:2]([c:3]1[n:4][n:5]([H:11])[c:6]([H:12])[n:7]1)([H:9])[H:10])[H:8]>>[O:1]([C:2]([c:3]1[n:4][n:5]([H:11])[c-:6][n+:7]1[H:12])([H:9])[H:10])[H:8]"
O       -2.21634194       0.98120651      -0.15737239
C       -1.57973534      -0.22054360       0.18111411
C       -0.09389100      -0.14737419       0.04448573
N        0.51819060       0.79289816      -0.60308673
N        1.82717756       0.47666350      -0.47296418
C        2.04108025      -0.69589163       0.13998547
N        0.77164779      -1.13003153       0.48854443
H       -1.71769237       1.40084794      -0.86375749
H       -1.94039079      -1.05718233      -0.43239923
H       -1.82845023      -0.45503053       1.21854785
H        2.51903806       1.08594767      -0.87135346
H        1.69936744      -1.03150993       1.32825588
12
Frame=1 idx=007317 GeodesicLength=0.04122835716439754 rxn_smarts="[O:1]([C:2]([c:3]1[n:4][n:5]([H:11])[c:6]([H:12])[n:7]1)([H:9])[H:10])[H:8]>>[O:1]([C:2]([c:3]1[n:4][n:5]([H:11])[c-:6][n+:7]1[H:12])([H:9])[H:10])[H:8]"
O       -2.22021874       0.97714358      -0.17165918
C       -1.58113611      -0.21886748       0.18227504
C       -0.09552187      -0.14341284       0.04499342
N        0.51441140       0.79798025      -0.60362448
N        1.82391092       0.48282539      -0.47377889
C        2.03796565      -0.68710441       0.14222713
N        0.77192359      -1.11987656       0.49254664
H       -1.71203041       1.39782759      -0.87069991
H       -1.94039538      -1.06291455      -0.42178263
H       -1.82949113      -0.44200111       1.22244382
H        2.51574315       1.09329880      -0.87022544
H        1.71483894      -1.07489867       1.32728447
12
Frame=2 idx=007317 GeodesicLength=0.08232866436122407 rxn_smarts="[O:1]([C:2]([c:3]1[n:4][n:5]([H:11])[c:6]([H:12])[n:7]1)([H:9])[H:10])[H:8]>>[O:1]([C:2]([c:3]1[n:4][n:5]([H:11])[c-:6][n+:7]1[H:12])([H:9])[H:10])[H:8]"
O       -2.22393460       0.97293023      -0.18597055
C       -1.58244653      -0.21711218       0.18350765
C       -0.09714888      -0.13983125       0.04453419
N        0.51054802       0.80233356      -0.60569975
N        1.82069530       0.48975282      -0.47387687
C        2.03524676      -0.67647653       0.14707218
N        0.77245036      -1.10915316       0.49707488
H       -1.70653507       1.39476283      -0.87763336
H       -1.94075590      -1.06868290      -0.41041268
H       -1.82996088      -0.42832969       1.22650947
H        2.51235264       1.10086052      -0.86948781
H        1.72948878      -1.12105426       1.32438266
12
Frame=3 idx=007317 GeodesicLength=0.12334390092258993 rxn_smarts="[O:1]([C:2]([c:3]1[n:4][n:5]([H:11])[c:6]([H:12])[n:7]1)([H:9])[H:10])[H:8]>>[O:1]([C:2]([c:3]1[n:4][n:5]([H:11])[c-:6][n+:7]1[H:12])([H:9])[H:10])[H:8]"
O       -2.22772202       0.96844771      -0.20062360
C       -1.58378560      -0.21526339       0.18471660
C       -0.09878802      -0.13591725       0.04441110
N        0.50660165       0.80657753      -0.60813146
N        1.81741839       0.49680288      -0.47410653
C        2.03265340      -0.66448271       0.15396676
N        0.77310685      -1.09706630       0.50369906
H       -1.70126096       1.39159642      -0.88471581
H       -1.94073983      -1.07442116      -0.39894649
H       -1.83082442      -0.41438914       1.23035375
H        2.50885139       1.10825651      -0.86941203
H        1.74448916      -1.17014111       1.31878865
12
Frame=4 idx=007317 GeodesicLength=0.16417134353660784 rxn_smarts="[O:1]([C:2]([c:3]1[n:4][n:5]([H:11])[c:6]([H:12])[n:7]1)([H:9])[H:10])[H:8]>>[O:1]([C:2]([c:3]1[n:4][n:5]([H:11])[c-:6][n+:7]1[H:12])([H:9])[H:10])[H:8]"
O       -2.23162443       0.96364409      -0.21526858
C       -1.58514566      -0.21355241       0.18558475
C       -0.10039894      -0.13155537       0.04484716
N        0.50265258       0.81121038      -0.61009470
N        1.81414068       0.50422467      -0.47406887
C        2.03031540      -0.65029890       0.16422886
N        0.77398353      -1.08319401       0.51305308
H       -1.69609909       1.38890659      -0.89107827
H       -1.93996187      -1.08001115      -0.38845065
H       -1.83244739      -0.40122428       1.23342267
H        2.50513707       1.11394109      -0.87264979
H        1.75944813      -1.22209071       1.31047433
12
Frame=5 idx=007317 GeodesicLength=0.20477797871594317 rxn_smarts="[O:1]([C:2]([c:3]1[n:4][n:5]([H:11])[c:6]([H:12])[n:7]1)([H:9])[H:10])[H:8]>>[O:1]([C:2]([c:3]1[n:4][n:5]([H:11])[c-:6][n+:7]1[H:12])([H:9])[H:10])[H:8]"
O       -2.23586262       0.95827387      -0.23012670
C       -1.58655987      -0.21213873       0.18587572
C       -0.10195117      -0.12623234       0.04668891
N        0.49878237       0.81722895      -0.61000431
N        1.81086426       0.51180718      -0.47407346
C        2.02823920      -0.63330826       0.17879297
N        0.77509223      -1.06679576       0.52626696
H       -1.69096093       1.38703874      -0.89627217
H       -1.93770458      -1.08554210      -0.37977547
H       -1.83554835      -0.38953613       1.23524944
H        2.50115691       1.11651759      -0.88126614
H        1.77445253      -1.27731300       1.29864427
12
Frame=6 idx=007317 GeodesicLength=0.24506937304088916 rxn_smarts="[O:1]([C:2]([c:3]1[n:4][n:5]([H:11])[c:6]([H:12])[n:7]1)([H:9])[H:10])[H:8]>>[O:1]([C:2]([c:3]1[n:4][n:5]([H:11])[c-:6][n+:7]1[H:12])([H:9])[H:10])[H:8]"
O       -2.24008980       0.95243887      -0.24484140
C       -1.58777801      -0.21100995       0.18583267
C       -0.10333889      -0.12083720       0.04825095
N        0.49498107       0.82368166      -0.60973185
N        1.80772688       0.52036182      -0.47332942
C        2.02695522      -0.61045100       0.20171645
N        0.77666207      -1.04865813       0.54141216
H       -1.68589239       1.38581917      -0.90036261
H       -1.93481849      -1.09116334      -0.37176650
H       -1.83870550      -0.37863052       1.23650083
H        2.49686516       1.11597125      -0.89547906
H        1.78743267      -1.33752263       1.28179778
12
Frame=7 idx=007317 GeodesicLength=0.28497554729839547 rxn_smarts="[O:1]([C:2]([c:3]1[n:4][n:5]([H:11])[c:6]([H:12])[n:7]1)([H:9])[H:10])[H:8]>>[O:1]([C:2]([c:3]1[n:4][n:5]([H:11])[c-:6][n+:7]1[H:12])([H:9])[H:10])[H:8]"
O       -2.24526391       0.94510494      -0.26199451
C       -1.58921698      -0.21002184       0.18530419
C       -0.10467545      -0.11251343       0.05442647
N        0.49134272       0.83368335      -0.60391103
N        1.80429474       0.52683607      -0.47545703
C        2.02549812      -0.58357416       0.23049213
N        0.77834906      -1.02478353       0.56554044
H       -1.68082865       1.38464758      -0.90467237
H       -1.92840725      -1.09743721      -0.36555651
H       -1.84551053      -0.36858248       1.23623050
H        2.49221632       1.11113579      -0.91497321
H        1.80220183      -1.40449506       1.25457094
12
Frame=8 idx=007317 GeodesicLength=0.3231876175355703 rxn_smarts="[O:1]([C:2]([c:3]1[n:4][n:5]([H:11])[c:6]([H:12])[n:7]1)([H:9])[H:10])[H:8]>>[O:1]([C:2]([c:3]1[n:4][n:5]([H:11])[c-:6][n+:7]1[H:12])([H:9])[H:10])[H:8]"
O       -2.25044799       0.93645042      -0.28106115
C       -1.59046449      -0.20898177       0.18516924
C       -0.10585905      -0.10293362       0.06229389
N        0.48796221       0.84422660      -0.59741912
N        1.80099948       0.53315001      -0.47677686
C        2.02437531      -0.54777251       0.27178886
N        0.78029491      -0.99633493       0.59616763
H       -1.67589511       1.38200283      -0.91065857
H       -1.92027276      -1.10463571      -0.35794050
H       -1.85335896      -0.35728393       1.23611841
H        2.48748891       1.10211561      -0.93793934
H        1.81517754      -1.48000301       1.21025751
12
Frame=9 idx=007317 GeodesicLength=0.3576287267938767 rxn_smarts="[O:1]([C:2]([c:3]1[n:4][n:5]([H:11])[c:6]([H:12])[n:7]1)([H:9])[H:10])[H:8]>>[O:1]([C:2]([c:3]1[n:4][n:5]([H:11])[c-:6][n+:7]1[H:12])([H:9])[H:10])[H:8]"
O       -2.25524227       0.92562444      -0.30353120
C       -1.59148065      -0.20802054       0.18557909
C       -0.10684003      -0.09200665       0.07422941
N        0.48493908       0.85408737      -0.58962738
N        1.79781081       0.53829383      -0.47533524
C        2.02268629      -0.50681098       0.32133803
N        0.78226620      -0.96001822       0.64000641
H       -1.67001200       1.37728153      -0.91886760
H       -1.90905841      -1.11336545      -0.34858437
H       -1.86380891      -0.34416165       1.23592415
H        2.48281048       1.08785542      -0.96149315
H        1.82592941      -1.55875911       1.14036185
12
Frame=10 idx=007317 GeodesicLength=0.39079433534193647 rxn_smarts="[O:1]([C:2]([c:3]1[n:4][n:5]([H:11])[c:6]([H:12])[n:7]1)([H:9])[H:10])[H:8]>>[O:1]([C:2]([c:3]1[n:4][n:5]([H:11])[c-:6][n+:7]1[H:12])([H:9])[H:10])[H:8]"
O       -2.25833678       0.91396316      -0.32591661
C       -1.59195113      -0.20752483       0.18721777
C       -0.10724627      -0.08232446       0.08732476
N        0.48289284       0.86029035      -0.58397337
N        1.79574546       0.54232053      -0.47030224
C        2.02077421      -0.47008673       0.36755322
N        0.78414420      -0.92321586       0.68724994
H       -1.66308631       1.37022391      -0.92827974
H       -1.89772371      -1.12280199      -0.33670540
H       -1.87392099      -0.33029682       1.23684561
H        2.47993602       1.07276599      -0.97802184
H        1.82877246      -1.62331327       1.05700789
12
Frame=11 idx=007317 GeodesicLength=0.4258763857403997 rxn_smarts="[O:1]([C:2]([c:3]1[n:4][n:5]([H:11])[c:6]([H:12])[n:7]1)([H:9])[H:10])[H:8]>>[O:1]([C:2]([c:3]1[n:4][n:5]([H:11])[c-:6][n+:7]1[H:12])([H:9])[H:10])[H:8]"
O       -2.25934361       0.90211904      -0.34643248
C       -1.59164762      -0.20754179       0.19016017
C       -0.10707335      -0.07679306       0.09663772
N        0.48166644       0.86090418      -0.58377368
N        1.79508846       0.54637877      -0.46154406
C        2.01862139      -0.43870975       0.40908200
N        0.78563282      -0.89208152       0.72739738
H       -1.65511190       1.36195144      -0.93711399
H       -1.88949857      -1.13262319      -0.32092531
H       -1.88018160      -0.31482212       1.23982750
H        2.47941785       1.06085505      -0.98522474
H        1.82242968      -1.66963705       0.97190949
12
Frame=12 idx=007317 GeodesicLength=0.4626829590850579 rxn_smarts="[O:1]([C:2]([c:3]1[n:4][n:5]([H:11])[c:6]([H:12])[n:7]1)([H:9])[H:10])[H:8]>>[O:1]([C:2]([c:3]1[n:4][n:5]([H:11])[c-:6][n+:7]1[H:12])([H:9])[H:10])[H:8]"
O       -2.25922863       0.89222320      -0.36213194
C       -1.59134680      -0.20860288       0.19204950
C       -0.10681180      -0.07516399       0.10174354
N        0.48081779       0.85941196      -0.58482282
N        1.79489392       0.55006770      -0.45230373
C        2.01589328      -0.41207328       0.44467019
N        0.78659269      -0.86992874       0.75589609
H       -1.64662528       1.35770058      -0.93975031
H       -1.88461330      -1.14068294      -0.30871754
H       -1.88408964      -0.30367562       1.24183715
H        2.47955811       1.04706971      -0.99182353
H        1.81495965      -1.69634571       0.90335341
12
Frame=13 idx=007317 GeodesicLength=0.4998851321888748 rxn_smarts="[O:1]([C:2]([c:3]1[n:4][n:5]([H:11])[c:6]([H:12])[n:7]1)([H:9])[H:10])[H:8]>>[O:1]([C:2]([c:3]1[n:4][n:5]([H:11])[c-:6][n+:7]1[H:12])([H:9])[H:10])[H:8]"
O       -2.25843873       0.88381283      -0.37499217
C       -1.59106078      -0.21014117       0.19327441
C       -0.10652216      -0.07519143       0.10505229
N        0.48006389       0.85796198      -0.58537246
N        1.79471414       0.55314291      -0.44378204
C        2.01275395      -0.38962371       0.47476874
N        0.78726660      -0.85273034       0.77803018
H       -1.63817822       1.35547727      -0.93941863
H       -1.88124725      -1.14752713      -0.29923177
H       -1.88702191      -0.29537621       1.24314818
H        2.47969545       1.03281023      -0.99822062
H        1.80797503      -1.71261523       0.84674387
12
Frame=14 idx=007317 GeodesicLength=0.5373867696185967 rxn_smarts="[O:1]([C:2]([c:3]1[n:4][n:5]([H:11])[c:6]([H:12])[n:7]1)([H:9])[H:10])[H:8]>>[O:1]([C:2]([c:3]1[n:4][n:5]([H:11])[c-:6][n+:7]1[H:12])([H:9])[H:10])[H:8]"
O       -2.25736498       0.87538019      -0.38725624
C       -1.59052976      -0.21196835       0.19424361
C       -0.10600563      -0.07462471       0.10917925
N        0.47953123       0.85817169      -0.58365655
N        1.79456483       0.55566548      -0.43628882
C        2.00989824      -0.37140678       0.49925393
N        0.78804717      -0.83657137       0.79845752
H       -1.62985603       1.35364867      -0.93811539
H       -1.87702593      -1.15412761      -0.29118015
H       -1.89017521      -0.28868229       1.24386968
H        2.47954646       1.01851607      -1.00470405
H        1.79936962      -1.72400099       0.79619720
12
Frame=15 idx=007317 GeodesicLength=0.5750516586782038 rxn_smarts="[O:1]([C:2]([c:3]1[n:4][n:5]([H:11])[c:6]([H:12])[n:7]1)([H:9])[H:10])[H:8]>>[O:1]([C:2]([c:3]1[n:4][n:5]([H:11])[c-:6][n+:7]1[H:12])([H:9])[H:10])[H:8]"
O       -2.25589701       0.86767182      -0.39846581
C       -1.59009113      -0.21375944       0.19521259
C       -0.10553893      -0.07533711       0.11180023
N        0.47895968       0.85743449      -0.58298695
N        1.79444117       0.55830170      -0.42866702
C        2.00666409      -0.35450369       0.52203372
N        0.78858436      -0.82328084       0.81525237
H       -1.62168936       1.35215149      -0.93624678
H       -1.87432839      -1.16017666      -0.28311811
H       -1.89239960      -0.28199882       1.24479986
H        2.47962755       1.00499424      -1.00950406
H        1.79166758      -1.73149719       0.74988995
12
Frame=16 idx=007317 GeodesicLength=0.6128124498199133 rxn_smarts="[O:1]([C:2]([c:3]1[n:4][n:5]([H:11])[c:6]([H:12])[n:7]1)([H:9])[H:10])[H:8]>>[O:1]([C:2]([c:3]1[n:4][n:5]([H:11])[c-:6][n+:7]1[H:12])([H:9])[H:10])[H:8]"
O       -2.25420375       0.86020505      -0.40916556
C       -1.58963011      -0.21560902       0.19609533
C       -0.10503599      -0.07634353       0.11408354
N        0.47842305       0.85668572      -0.58227757
N        1.79430366       0.56050933      -0.42170331
C        2.00336272      -0.33919352       0.54262996
N        0.78906063      -0.81126070       0.83029912
H       -1.61366025       1.35100749      -0.93373243
H       -1.87196248      -1.16595248      -0.27544304
H       -1.89436389      -0.27572947       1.24561657
H        2.47974862       0.99208452      -1.01344858
H        1.78395779      -1.73640339       0.70704598
