10
Frame=0 idx=000408 GeodesicLength=0.0 rxn_smarts="[C:1]([n:2]1[c:3]([H:10])[n:4][n:5][n:6]1)([H:7])([H:8])[H:9]>>[C:1]([N-:6][N+:2]#[C:3][H:10])([H:7])([H:8])[H:9].[N:4]#[N:5]"
C       -1.41898560      -0.13053819       0.12244254
N        0.17584496       0.05111679      -0.00522427
C        0.83230110       1.08667880       0.24401311
N        2.77501376      -0.22991539      -0.38928823
N        2.27334372      -1.18528511      -0.62995918
N        0.26136181      -1.16829492      -0.39655249
H       -1.59227388       0.08060071       1.17169451
H       -1.80497193      -1.10545925      -0.14998317
H       -1.79021502       0.63728847      -0.54707847
H        0.28858109       1.96380808       0.57993564
10
Frame=1 idx=000408 GeodesicLength=0.07006885193340705 rxn_smarts="[C:1]([n:2]1[c:3]([H:10])[n:4][n:5][n:6]1)([H:7])([H:8])[H:9]>>[C:1]([N-:6][N+:2]#[C:3][H:10])([H:7])([H:8])[H:9].[N:4]#[N:5]"
C       -1.42093924      -0.14339323       0.12402653
N        0.16873746       0.08073973      -0.06955920
C        0.84727880       1.09361609       0.21346255
N        2.76644386      -0.23167804      -0.33861407
N        2.26604485      -1.19082387      -0.59757295
N        0.25722305      -1.15050720      -0.41773693
H       -1.55994001       0.04017091       1.18393923
H       -1.81808791      -1.11066259      -0.16053853
H       -1.83031272       0.63806165      -0.50726684
H        0.32355187       1.97447655       0.56986020
10
Frame=2 idx=000408 GeodesicLength=0.14034403465079365 rxn_smarts="[C:1]([n:2]1[c:3]([H:10])[n:4][n:5][n:6]1)([H:7])([H:8])[H:9]>>[C:1]([N-:6][N+:2]#[C:3][H:10])([H:7])([H:8])[H:9].[N:4]#[N:5]"
C       -1.42153588      -0.15610873       0.12491114
N        0.16171068       0.10803692      -0.12604790
C        0.86134434       1.09909711       0.18457694
N        2.75488821      -0.23091896      -0.29318967
N        2.25653660      -1.19580068      -0.56413487
N        0.25316752      -1.13189358      -0.43841590
H       -1.52928222       0.00034279       1.19316602
H       -1.83105681      -1.11500010      -0.17135202
H       -1.86462779       0.63763063      -0.46801851
H        0.35885535       1.98461461       0.55850478
10
Frame=3 idx=000408 GeodesicLength=0.21063692771082942 rxn_smarts="[C:1]([n:2]1[c:3]([H:10])[n:4][n:5][n:6]1)([H:7])([H:8])[H:9]>>[C:1]([N-:6][N+:2]#[C:3][H:10])([H:7])([H:8])[H:9].[N:4]#[N:5]"
C       -1.42196950      -0.16837255       0.12412127
N        0.15572331       0.13172101      -0.17049737
C        0.87540661       1.10235452       0.16165342
N        2.74173384      -0.22515760      -0.26288150
N        2.24602346      -1.20056861      -0.52997816
N        0.24989959      -1.11490991      -0.45179290
H       -1.50526460      -0.03649332       1.19823724
H       -1.84438067      -1.11847538      -0.18331752
H       -1.89180489       0.63592200      -0.43385022
H        0.39463286       1.99397984       0.54830574
10
Frame=4 idx=000408 GeodesicLength=0.2806148327051843 rxn_smarts="[C:1]([n:2]1[c:3]([H:10])[n:4][n:5][n:6]1)([H:7])([H:8])[H:9]>>[C:1]([N-:6][N+:2]#[C:3][H:10])([H:7])([H:8])[H:9].[N:4]#[N:5]"
C       -1.42257126      -0.18042609       0.12246384
N        0.15073434       0.15256224      -0.20547686
C        0.88956982       1.10411383       0.14313167
N        2.72848380      -0.21849059      -0.23632175
N        2.23434347      -1.20248619      -0.50373466
N        0.24752277      -1.09953225      -0.45847704
H       -1.48678804      -0.07037659       1.20075474
H       -1.85782809      -1.12175883      -0.19505390
H       -1.91412050       0.63270685      -0.40410889
H        0.43065368       2.00368762       0.53682287
10
Frame=5 idx=000408 GeodesicLength=0.3502007608721261 rxn_smarts="[C:1]([n:2]1[c:3]([H:10])[n:4][n:5][n:6]1)([H:7])([H:8])[H:9]>>[C:1]([N-:6][N+:2]#[C:3][H:10])([H:7])([H:8])[H:9].[N:4]#[N:5]"
C       -1.42327713      -0.19250946       0.12046909
N        0.14627619       0.17191304      -0.23465651
C        0.90365687       1.10532421       0.12667819
N        2.71517303      -0.21144177      -0.21159804
N        2.22218178      -1.20330763      -0.48046020
N        0.24530025      -1.08435183      -0.46340975
H       -1.47106280      -0.10364492       1.20198817
H       -1.87146748      -1.12478470      -0.20685408
H       -1.93372671       0.62873973      -0.37572128
H        0.46694601       2.01406333       0.52356441
10
Frame=6 idx=000408 GeodesicLength=0.41982134926338127 rxn_smarts="[C:1]([n:2]1[c:3]([H:10])[n:4][n:5][n:6]1)([H:7])([H:8])[H:9]>>[C:1]([N-:6][N+:2]#[C:3][H:10])([H:7])([H:8])[H:9].[N:4]#[N:5]"
C       -1.42392225      -0.20479870       0.11844306
N        0.14206117       0.19062900      -0.26016386
C        0.91759234       1.10660561       0.11090737
N        2.70155757      -0.20468714      -0.18595047
N        2.20944106      -1.20359282      -0.45894625
N        0.24290888      -1.06867642      -0.46905720
H       -1.45628856      -0.13759273       1.20253847
H       -1.88527719      -1.12756405      -0.21871879
H       -1.95167100       0.62421777      -0.34692052
H        0.50359797       2.02545947       0.50786821
10
Frame=7 idx=000408 GeodesicLength=0.4903338042214633 rxn_smarts="[C:1]([n:2]1[c:3]([H:10])[n:4][n:5][n:6]1)([H:7])([H:8])[H:9]>>[C:1]([N-:6][N+:2]#[C:3][H:10])([H:7])([H:8])[H:9].[N:4]#[N:5]"
C       -1.42457343      -0.21726877       0.11599481
N        0.13805863       0.20914228      -0.28252357
C        0.93145434       1.10786169       0.09649290
N        2.68813135      -0.19597749      -0.16731688
N        2.19561845      -1.20555775      -0.43081497
N        0.24042089      -1.05210514      -0.47623567
H       -1.44233511      -0.17331742       1.20203544
H       -1.89933415      -1.12960772      -0.23189749
H       -1.96822307       0.61956088      -0.31713628
H        0.54078211       2.03726945       0.49140172
10
Frame=8 idx=000408 GeodesicLength=0.560299132305335 rxn_smarts="[C:1]([n:2]1[c:3]([H:10])[n:4][n:5][n:6]1)([H:7])([H:8])[H:9]>>[C:1]([N-:6][N+:2]#[C:3][H:10])([H:7])([H:8])[H:9].[N:4]#[N:5]"
C       -1.42528952      -0.22993158       0.11350572
N        0.13425683       0.22723248      -0.30168065
C        0.94527525       1.10905542       0.08321900
N        2.67454330      -0.18841240      -0.14547072
N        2.18126254      -1.20598669      -0.40749328
N        0.23792769      -1.03549691      -0.48274462
H       -1.42951434      -0.20925489       1.20081429
H       -1.91348871      -1.13155559      -0.24477383
H       -1.98345807       0.61407331      -0.28736350
H        0.57848503       2.05027684       0.47198759
10
Frame=9 idx=000408 GeodesicLength=0.6301743369382761 rxn_smarts="[C:1]([n:2]1[c:3]([H:10])[n:4][n:5][n:6]1)([H:7])([H:8])[H:9]>>[C:1]([N-:6][N+:2]#[C:3][H:10])([H:7])([H:8])[H:9].[N:4]#[N:5]"
C       -1.42597313      -0.24286206       0.11099470
N        0.13050534       0.24536131      -0.31844398
C        0.95901610       1.11049281       0.07061727
N        2.66054220      -0.18158164      -0.12130370
N        2.16623165      -1.20585286      -0.38613700
N        0.23527619      -1.01833550      -0.48999570
H       -1.41697115      -0.24635584       1.19893031
H       -1.92779708      -1.13323052      -0.25775012
H       -1.99772358       0.60788087      -0.25656717
H        0.61689348       2.06448343       0.44965537
10
Frame=10 idx=000408 GeodesicLength=0.7005266406100641 rxn_smarts="[C:1]([n:2]1[c:3]([H:10])[n:4][n:5][n:6]1)([H:7])([H:8])[H:9]>>[C:1]([N-:6][N+:2]#[C:3][H:10])([H:7])([H:8])[H:9].[N:4]#[N:5]"
C       -1.42646793      -0.25613186       0.10839340
N        0.12663742       0.26402485      -0.33359295
C        0.97266387       1.11244930       0.05802027
N        2.64601435      -0.17484589      -0.09673653
N        2.14981769      -1.20607650      -0.36261509
N        0.23237060      -0.99997880      -0.49962730
H       -1.40375672      -0.28569500       1.19617767
H       -1.94226394      -1.13433729      -0.27125568
H       -2.01123872       0.60103668      -0.22356989
H        0.65622338       2.07955450       0.42480609
10
Frame=11 idx=000408 GeodesicLength=0.7714078780183045 rxn_smarts="[C:1]([n:2]1[c:3]([H:10])[n:4][n:5][n:6]1)([H:7])([H:8])[H:9]>>[C:1]([N-:6][N+:2]#[C:3][H:10])([H:7])([H:8])[H:9].[N:4]#[N:5]"
C       -1.42655189      -0.26986832       0.10573530
N        0.12250853       0.28366865      -0.34748958
C        0.98619081       1.11510381       0.04543155
N        2.63067123      -0.16839756      -0.07134222
N        2.13126647      -1.20691979      -0.33548495
N        0.22906803      -0.98000401      -0.51290811
H       -1.38895601      -0.32836211       1.19240149
H       -1.95686846      -1.13468161      -0.28566381
H       -2.02396538       0.59349001      -0.18716200
H        0.69663667       2.09597093       0.39648233
10
Frame=12 idx=000408 GeodesicLength=0.842390261911447 rxn_smarts="[C:1]([n:2]1[c:3]([H:10])[n:4][n:5][n:6]1)([H:7])([H:8])[H:9]>>[C:1]([N-:6][N+:2]#[C:3][H:10])([H:7])([H:8])[H:9].[N:4]#[N:5]"
C       -1.42620753      -0.28402223       0.10305885
N        0.11804416       0.30428963      -0.36030378
C        0.99965399       1.11868838       0.03191590
N        2.61384087      -0.16300180      -0.04183917
N        2.11078025      -1.20744319      -0.30826606
N        0.22542865      -0.95854179      -0.52894426
H       -1.37253480      -0.37337815       1.18743055
H       -1.97153497      -1.13455942      -0.30004955
H       -2.03582724       0.58467860      -0.14797884
H        0.73835662       2.11328996       0.36497638
10
Frame=13 idx=000408 GeodesicLength=0.9144640338657477 rxn_smarts="[C:1]([n:2]1[c:3]([H:10])[n:4][n:5][n:6]1)([H:7])([H:8])[H:9]>>[C:1]([N-:6][N+:2]#[C:3][H:10])([H:7])([H:8])[H:9].[N:4]#[N:5]"
C       -1.42484128      -0.29888654       0.10034871
N        0.11296857       0.32692412      -0.37280540
C        1.01307892       1.12362672       0.01713786
N        2.59475756      -0.15846282      -0.00925427
N        2.08607584      -1.20875400      -0.27531730
N        0.22120675      -0.93413711      -0.55110812
H       -1.35231280      -0.42340692       1.18063968
H       -1.98614830      -1.13336746      -0.31537645
H       -2.04655682       0.57437615      -0.10311733
H        0.78177156       2.13208787       0.32885263
10
Frame=14 idx=000408 GeodesicLength=0.9871583400870451 rxn_smarts="[C:1]([n:2]1[c:3]([H:10])[n:4][n:5][n:6]1)([H:7])([H:8])[H:9]>>[C:1]([N-:6][N+:2]#[C:3][H:10])([H:7])([H:8])[H:9].[N:4]#[N:5]"
C       -1.42293634      -0.31419208       0.09746119
N        0.10749415       0.35079324      -0.38367269
C        1.02659736       1.12947621       0.00186654
N        2.57349955      -0.15474654       0.02728930
N        2.05857839      -1.20958017      -0.24261562
N        0.21675672      -0.90791642      -0.57512157
H       -1.33049862      -0.47572096       1.17182412
H       -2.00067538      -1.13167062      -0.33056203
H       -2.05588776       0.56200954      -0.05558359
H        0.82707194       2.15154781       0.28911435
10
Frame=15 idx=000408 GeodesicLength=1.0605508248438769 rxn_smarts="[C:1]([n:2]1[c:3]([H:10])[n:4][n:5][n:6]1)([H:7])([H:8])[H:9]>>[C:1]([N-:6][N+:2]#[C:3][H:10])([H:7])([H:8])[H:9].[N:4]#[N:5]"
C       -1.42058668      -0.32987701       0.09431144
N        0.10166150       0.37584878      -0.39241429
C        1.04028472       1.13607909      -0.01343489
N        2.54994982      -0.15152623       0.06705865
N        2.02838610      -1.20975892      -0.21045585
N        0.21214618      -0.87988758      -0.60007379
H       -1.30753410      -0.52997148       1.16070680
H       -2.01511166      -1.12946253      -0.34556614
H       -2.06370622       0.54729284      -0.00585421
H        0.87451034       2.17126304       0.24572227
10
Frame=16 idx=000408 GeodesicLength=1.1348123651629376 rxn_smarts="[C:1]([n:2]1[c:3]([H:10])[n:4][n:5][n:6]1)([H:7])([H:8])[H:9]>>[C:1]([N-:6][N+:2]#[C:3][H:10])([H:7])([H:8])[H:9].[N:4]#[N:5]"
C       -1.41769017      -0.34586267       0.09091076
N        0.09539947       0.40216218      -0.39909159
C        1.05417412       1.14345559      -0.02929441
N        2.52339559      -0.14879274       0.11116595
N        1.99554645      -1.20907774      -0.17970130
N        0.20732905      -0.84991887      -0.62578413
H       -1.28315379      -0.58578381       1.14706315
H       -2.02934606      -1.12679741      -0.35999646
H       -2.06984490       0.52995209       0.04594434
H        0.92419024       2.19066338       0.19878369
