19
Frame=0 idx=006574 GeodesicLength=0.0 rxn_smarts="[C:1]([C@@:2]1([H:11])[O:3][C:4]([H:12])([H:13])[C:5]1([C:6]([H:14])([H:15])[H:16])[C:7]([H:17])([H:18])[H:19])([H:8])([H:9])[H:10]>>[C:1]([C@@:2]1([H:11])[O:3][C:4]([H:12])([H:13])[C:6]([H:15])([H:16])[C:5]1=[C:7]([H:18])[H:19])([H:8])([H:9])[H:10].[H:14][H:17]"
C        1.70119114       0.25062664      -1.38581878
C        1.09991688       0.29608457      -0.00245710
O        0.81685251       1.64851266       0.40737016
C       -0.57529652       1.55562863       0.37644421
C       -0.33596280      -0.20648656       0.13292496
C       -0.85504366      -0.20740756       1.48384558
C       -0.91144735      -1.11941654      -0.75706548
H        2.64034177       0.80503095      -1.39074343
H        1.90747022      -0.77987694      -1.67928698
H        1.03138584       0.69771722      -2.12240707
H        1.78190352      -0.16740169       0.72029054
H       -1.03728296       1.84772389      -0.56786530
H       -1.04240616       2.08786850       1.20411542
H       -0.81180720      -1.91985438       1.46212896
H       -1.92894743      -0.19505899       1.62225774
H       -0.25273429       0.13239938       2.31710438
H       -0.75446248      -2.16971591       0.61761141
H       -0.49606788      -1.24552041      -1.75066028
H       -1.97760321      -1.31085344      -0.68778887
19
Frame=1 idx=006574 GeodesicLength=0.0844048321019586 rxn_smarts="[C:1]([C@@:2]1([H:11])[O:3][C:4]([H:12])([H:13])[C:5]1([C:6]([H:14])([H:15])[H:16])[C:7]([H:17])([H:18])[H:19])([H:8])([H:9])[H:10]>>[C:1]([C@@:2]1([H:11])[O:3][C:4]([H:12])([H:13])[C:6]([H:15])([H:16])[C:5]1=[C:7]([H:18])[H:19])([H:8])([H:9])[H:10].[H:14][H:17]"
C        1.70496229       0.24647420      -1.38870847
C        1.09768871       0.29659296      -0.00796819
O        0.81821213       1.65063550       0.39601218
C       -0.57603154       1.55847706       0.38461836
C       -0.33891582      -0.20344133       0.12679148
C       -0.86043842      -0.20122150       1.47974869
C       -0.91002589      -1.12682634      -0.75678412
H        2.64491172       0.79959927      -1.39301051
H        1.91330879      -0.78474897      -1.67837350
H        1.03820180       0.69136824      -2.12931754
H        1.77801668      -0.16514482       0.71744517
H       -1.04890162       1.85910920      -0.55199750
H       -1.02335190       2.10135555       1.21659798
H       -0.79067761      -1.91799246       1.47810609
H       -1.93552544      -0.21246641       1.61494612
H       -0.28287828       0.13874871       2.32997776
H       -0.74581279      -2.17864036       0.61182273
H       -0.50408885      -1.24323384      -1.75549418
H       -1.97865394      -1.30864467      -0.69441257
19
Frame=2 idx=006574 GeodesicLength=0.1681803914999056 rxn_smarts="[C:1]([C@@:2]1([H:11])[O:3][C:4]([H:12])([H:13])[C:5]1([C:6]([H:14])([H:15])[H:16])[C:7]([H:17])([H:18])[H:19])([H:8])([H:9])[H:10]>>[C:1]([C@@:2]1([H:11])[O:3][C:4]([H:12])([H:13])[C:6]([H:15])([H:16])[C:5]1=[C:7]([H:18])[H:19])([H:8])([H:9])[H:10].[H:14][H:17]"
C        1.70869625       0.24224531      -1.39162781
C        1.09536952       0.29713578      -0.01358471
O        0.81945167       1.65278376       0.38445769
C       -0.57663087       1.56139816       0.39299028
C       -0.34200786      -0.20026846       0.12056515
C       -0.86591143      -0.19500542       1.47562850
C       -0.90870993      -1.13406824      -0.75652573
H        2.64942557       0.79411976      -1.39530562
H        1.91913827      -0.78971095      -1.67735466
H        1.04503217       0.68482912      -2.13633011
H        1.77402041      -0.16279732       0.71453224
H       -1.06041637       1.87071773      -0.53560066
H       -1.00378619       2.11463103       1.22904933
H       -0.76923919      -1.91547891       1.49439682
H       -1.94167210      -0.23023669       1.60760241
H       -0.31421049       0.14492608       2.34261176
H       -0.73675276      -2.18766609       0.60569909
H       -0.51212097      -1.24117191      -1.76008163
H       -1.97967570      -1.30638275      -0.70112233
19
Frame=3 idx=006574 GeodesicLength=0.25152901531767957 rxn_smarts="[C:1]([C@@:2]1([H:11])[O:3][C:4]([H:12])([H:13])[C:5]1([C:6]([H:14])([H:15])[H:16])[C:7]([H:17])([H:18])[H:19])([H:8])([H:9])[H:10]>>[C:1]([C@@:2]1([H:11])[O:3][C:4]([H:12])([H:13])[C:6]([H:15])([H:16])[C:5]1=[C:7]([H:18])[H:19])([H:8])([H:9])[H:10].[H:14][H:17]"
C        1.71239040       0.23793391      -1.39457316
C        1.09295646       0.29770999      -0.01930551
O        0.82056604       1.65495603       0.37269801
C       -0.57708330       1.56438821       0.40156582
C       -0.34524117      -0.19696934       0.11425329
C       -0.87147437      -0.18875526       1.47149204
C       -0.90751519      -1.14112352      -0.75629314
H        2.65388176       0.78858473      -1.39762571
H        1.92495225      -0.79476854      -1.67622408
H        1.05187674       0.67809392      -2.14344019
H        1.76991272      -0.16035765       0.71155398
H       -1.07181343       1.88254806      -0.51865521
H       -0.98369627       2.12767244       1.24147400
H       -0.74746443      -1.91226339       1.51108962
H       -1.94737738      -0.24837113       1.60021456
H       -0.34677771       0.15092958       2.35495635
H       -0.72724479      -2.19681356       0.59915520
H       -0.52016887      -1.23932242      -1.76443482
H       -1.98067947      -1.30407205      -0.70790104
19
Frame=4 idx=006574 GeodesicLength=0.334658231260785 rxn_smarts="[C:1]([C@@:2]1([H:11])[O:3][C:4]([H:12])([H:13])[C:5]1([C:6]([H:14])([H:15])[H:16])[C:7]([H:17])([H:18])[H:19])([H:8])([H:9])[H:10]>>[C:1]([C@@:2]1([H:11])[O:3][C:4]([H:12])([H:13])[C:6]([H:15])([H:16])[C:5]1=[C:7]([H:18])[H:19])([H:8])([H:9])[H:10].[H:14][H:17]"
C        1.71604230       0.23353274      -1.39754017
C        1.09044716       0.29831142      -0.02512882
O        0.82154879       1.65714961       0.36072436
C       -0.57737801       1.56744094       0.41035079
C       -0.34861672      -0.19354819       0.10786501
C       -0.87713960      -0.18246931       1.46734722
C       -0.90645835      -1.14797398      -0.75609093
H        2.65827903       0.78298466      -1.39996674
H        1.93074343      -0.79992873      -1.67497521
H        1.05873638       0.67115708      -2.15064220
H        1.76569248      -0.15782376       0.70851353
H       -1.08307933       1.89459586      -0.50114106
H       -0.96306898       2.14045332       1.25387841
H       -0.72531453      -1.90827971       1.52829152
H       -1.95262898      -0.26687656       1.59276987
H       -0.38063082       0.15676160       2.36695392
H       -0.71725545      -2.20610735       0.59209481
H       -0.52824071      -1.23766567      -1.76857040
H       -1.98167808      -1.30171398      -0.71473390
19
Frame=5 idx=006574 GeodesicLength=0.41765875995697377 rxn_smarts="[C:1]([C@@:2]1([H:11])[O:3][C:4]([H:12])([H:13])[C:5]1([C:6]([H:14])([H:15])[H:16])[C:7]([H:17])([H:18])[H:19])([H:8])([H:9])[H:10]>>[C:1]([C@@:2]1([H:11])[O:3][C:4]([H:12])([H:13])[C:6]([H:15])([H:16])[C:5]1=[C:7]([H:18])[H:19])([H:8])([H:9])[H:10].[H:14][H:17]"
C        1.71964957       0.22903541      -1.40052350
C        1.08783899       0.29893638      -0.03105183
O        0.82239095       1.65936212       0.34852803
C       -0.57750467       1.57054910       0.41935002
C       -0.35213527      -0.19000999       0.10141085
C       -0.88292031      -0.17614456       1.46320287
C       -0.90555261      -1.15460433      -0.75592115
H        2.66261564       0.77731213      -1.40232391
H        1.93650590      -0.80519722      -1.67360023
H        1.06561095       0.66401175      -2.15792968
H        1.76135919      -0.15519187       0.70541497
H       -1.09420003       1.90685460      -0.48303874
H       -0.94189174       2.15294476       1.26626703
H       -0.70274691      -1.90346467       1.54609748
H       -1.95741585      -0.28575730       1.58525750
H       -0.41580958       0.16242398       2.37854107
H       -0.70676496      -2.21557087       0.58442899
H       -0.53634479      -1.23618093      -1.77250346
H       -1.98268448      -1.29930849      -0.72160631
19
Frame=6 idx=006574 GeodesicLength=0.5008002437425398 rxn_smarts="[C:1]([C@@:2]1([H:11])[O:3][C:4]([H:12])([H:13])[C:5]1([C:6]([H:14])([H:15])[H:16])[C:7]([H:17])([H:18])[H:19])([H:8])([H:9])[H:10]>>[C:1]([C@@:2]1([H:11])[O:3][C:4]([H:12])([H:13])[C:6]([H:15])([H:16])[C:5]1=[C:7]([H:18])[H:19])([H:8])([H:9])[H:10].[H:14][H:17]"
C        1.72321059       0.22443163      -1.40351508
C        1.08513031       0.29957763      -0.03706946
O        0.82308269       1.66158688       0.33610220
C       -0.57745350       1.57370078       0.42856656
C       -0.35579515      -0.18636648       0.09490515
C       -0.88883274      -0.16978233       1.45906852
C       -0.90481865      -1.16099341      -0.75579397
H        2.66689236       0.77155256      -1.40468772
H        1.94222996      -0.81058385      -1.67209092
H        1.07250382       0.65665234      -2.16529299
H        1.75691378      -0.15246090       0.70226478
H       -1.10515988       1.91931269      -0.46433072
H       -0.92015840       2.16511103       1.27864215
H       -0.67968656      -1.89771332       1.56466853
H       -1.96172108      -0.30503595       1.57766625
H       -0.45236467       0.16792884       2.38964223
H       -0.69575230      -2.22524420       0.57602105
H       -0.54450232      -1.23482537      -1.77626050
H       -1.98371823      -1.29684856      -0.72850606
19
Frame=7 idx=006574 GeodesicLength=0.5841683985346466 rxn_smarts="[C:1]([C@@:2]1([H:11])[O:3][C:4]([H:12])([H:13])[C:5]1([C:6]([H:14])([H:15])[H:16])[C:7]([H:17])([H:18])[H:19])([H:8])([H:9])[H:10]>>[C:1]([C@@:2]1([H:11])[O:3][C:4]([H:12])([H:13])[C:6]([H:15])([H:16])[C:5]1=[C:7]([H:18])[H:19])([H:8])([H:9])[H:10].[H:14][H:17]"
C        1.72672392       0.21971349      -1.40650689
C        1.08231932       0.30022823      -0.04317661
O        0.82361184       1.66381804       0.32344059
C       -0.57721584       1.57688258       0.43800315
C       -0.35959462      -0.18262942       0.08836219
C       -0.89489379      -0.16338321       1.45495369
C       -0.90427191      -1.16712360      -0.75571891
H        2.67110929       0.76569533      -1.40704844
H        1.94790796      -0.81609606      -1.67043911
H        1.07941775       0.64907409      -2.17272247
H        1.75235763      -0.14962782       0.69906962
H       -1.11594144       1.93195765      -0.44500089
H       -0.89786195       2.17691398       1.29100626
H       -0.65606360      -1.89092414       1.58414681
H       -1.96552386      -0.32473594       1.56999078
H       -0.49033723       0.17328624       2.40017160
H       -0.68421158      -2.23516575       0.56675690
H       -0.55273274      -1.23355903      -1.77986554
H       -1.98479914      -1.29432466      -0.73542274
19
Frame=8 idx=006574 GeodesicLength=0.6679254483687295 rxn_smarts="[C:1]([C@@:2]1([H:11])[O:3][C:4]([H:12])([H:13])[C:5]1([C:6]([H:14])([H:15])[H:16])[C:7]([H:17])([H:18])[H:19])([H:8])([H:9])[H:10]>>[C:1]([C@@:2]1([H:11])[O:3][C:4]([H:12])([H:13])[C:6]([H:15])([H:16])[C:5]1=[C:7]([H:18])[H:19])([H:8])([H:9])[H:10].[H:14][H:17]"
C        1.73018800       0.21487153      -1.40948915
C        1.07940600       0.30087773      -0.04936623
O        0.82396410       1.66604379       0.31053975
C       -0.57678394       1.58007386       0.44766236
C       -0.36352784      -0.17881867       0.08179997
C       -0.90111813      -0.15695619       1.45086952
C       -0.90393051      -1.17297767      -0.75571308
H        2.67526667       0.75972827      -1.40939375
H        1.95353114      -0.82174164      -1.66863753
H        1.08635564       0.64127317      -2.18020578
H        1.74769590      -0.14669151       0.69583622
H       -1.12652839       1.94476831      -0.42503180
H       -0.87500151       2.18830570       1.30336400
H       -0.63179356      -1.88293032       1.60471700
H       -1.96880309      -0.34489170       1.56222690
H       -0.52976420       0.17851197       2.41003608
H       -0.67214733      -2.24539593       0.55648856
H       -0.56105951      -1.23233020      -1.78335078
H       -1.98594944      -1.29172053      -0.74235224
19
Frame=9 idx=006574 GeodesicLength=0.7532905104108698 rxn_smarts="[C:1]([C@@:2]1([H:11])[O:3][C:4]([H:12])([H:13])[C:5]1([C:6]([H:14])([H:15])[H:16])[C:7]([H:17])([H:18])[H:19])([H:8])([H:9])[H:10]>>[C:1]([C@@:2]1([H:11])[O:3][C:4]([H:12])([H:13])[C:6]([H:15])([H:16])[C:5]1=[C:7]([H:18])[H:19])([H:8])([H:9])[H:10].[H:14][H:17]"
C        1.73361663       0.20985796      -1.41242226
C        1.07639627       0.30149187      -0.05560474
O        0.82411129       1.66823734       0.29739816
C       -0.57617252       1.58322110       0.45751640
C       -0.36756767      -0.17501114       0.07528546
C       -0.90755391      -0.15051259       1.44684134
C       -0.90387882      -1.17845521      -0.75583250
H        2.67939609       0.75357541      -1.41167058
H        1.95907129      -0.82757513      -1.66665502
H        1.09335570       0.63323682      -2.18770319
H        1.74294277      -0.14365091       0.69261482
H       -1.13691734       1.95766025      -0.40445187
H       -0.85162742       2.19924286       1.31568652
H       -0.60648601      -1.87345044       1.62691075
H       -1.97155210      -0.36567881       1.55432663
H       -0.57067905       0.18377577       2.41914435
H       -0.65956721      -2.25609365       0.54469375
H       -0.56962283      -1.23091690      -1.78681094
H       -1.98726516      -1.28895460      -0.74926709
19
Frame=10 idx=006574 GeodesicLength=0.8390186300743334 rxn_smarts="[C:1]([C@@:2]1([H:11])[O:3][C:4]([H:12])([H:13])[C:5]1([C:6]([H:14])([H:15])[H:16])[C:7]([H:17])([H:18])[H:19])([H:8])([H:9])[H:10]>>[C:1]([C@@:2]1([H:11])[O:3][C:4]([H:12])([H:13])[C:6]([H:15])([H:16])[C:5]1=[C:7]([H:18])[H:19])([H:8])([H:9])[H:10].[H:14][H:17]"
C        1.73699604       0.20469452      -1.41531786
C        1.07328475       0.30207697      -0.06190361
O        0.82404835       1.67039625       0.28401776
C       -0.57535756       1.58633085       0.46758777
C       -0.37172709      -0.17118294       0.06879811
C       -0.91419881      -0.14405508       1.44286556
C       -0.90407901      -1.18361579      -0.75606171
H        2.68347100       0.74727833      -1.41389555
H        1.96453735      -0.83356675      -1.66450277
H        1.10039147       0.62496769      -2.19522140
H        1.73809395      -0.14050937       0.68938008
H       -1.14707511       1.97066713      -0.38321761
H       -0.82770833       2.20967187       1.32799678
H       -0.58032329      -1.86238551       1.65060584
H       -1.97368927      -0.38704852       1.54636380
H       -0.61311448       0.18896306       2.42738102
H       -0.64648438      -2.26722240       0.53153279
H       -0.57835586      -1.22940037      -1.79022450
H       -1.98870972      -1.28605993      -0.75618451
19
Frame=11 idx=006574 GeodesicLength=0.9249730884895476 rxn_smarts="[C:1]([C@@:2]1([H:11])[O:3][C:4]([H:12])([H:13])[C:5]1([C:6]([H:14])([H:15])[H:16])[C:7]([H:17])([H:18])[H:19])([H:8])([H:9])[H:10]>>[C:1]([C@@:2]1([H:11])[O:3][C:4]([H:12])([H:13])[C:6]([H:15])([H:16])[C:5]1=[C:7]([H:18])[H:19])([H:8])([H:9])[H:10].[H:14][H:17]"
C        1.74032484       0.19937184      -1.41816257
C        1.07007018       0.30261770      -0.06825138
O        0.82375720       1.67250261       0.27040536
C       -0.57433420       1.58937803       0.47787441
C       -0.37600109      -0.16736044       0.06235811
C       -0.92108071      -0.13759415       1.43894847
C       -0.90455127      -1.18844753      -0.75641945
H        2.68749071       0.74082615      -1.41605044
H        1.96992143      -0.83972435      -1.66217303
H        1.10746552       0.61646340      -2.20274321
H        1.73315232      -0.13727348       0.68614354
H       -1.15698026       1.98376298      -0.36132007
H       -0.80325272       2.21954251       1.34029325
H       -0.55319446      -1.84953851       1.67599753
H       -1.97517416      -0.40905997       1.53835087
H       -0.65708316       0.19410204       2.43464224
H       -0.63293257      -2.27883553       0.51683744
H       -0.58728801      -1.22772040      -1.79362334
H       -1.99030957      -1.28301290      -0.76310773
19
Frame=12 idx=006574 GeodesicLength=1.0110557184764746 rxn_smarts="[C:1]([C@@:2]1([H:11])[O:3][C:4]([H:12])([H:13])[C:5]1([C:6]([H:14])([H:15])[H:16])[C:7]([H:17])([H:18])[H:19])([H:8])([H:9])[H:10]>>[C:1]([C@@:2]1([H:11])[O:3][C:4]([H:12])([H:13])[C:6]([H:15])([H:16])[C:5]1=[C:7]([H:18])[H:19])([H:8])([H:9])[H:10].[H:14][H:17]"
C        1.74360342       0.19387693      -1.42093904
C        1.06675252       0.30309448      -0.07463303
O        0.82321774       1.67453312       0.25657130
C       -0.57310224       1.59233124       0.48836933
C       -0.38038146      -0.16357921       0.05599103
C       -0.92823212      -0.13114262       1.43509638
C       -0.90532111      -1.19293388      -0.75693266
H        2.69145706       0.73420219      -1.41811110
H        1.97521481      -0.84605937      -1.65965625
H        1.11458489       0.60772171      -2.21024727
H        1.72812253      -0.13395145       0.68292154
H       -1.16661107       1.99691466      -0.33875927
H       -0.77827953       2.22880033       1.35257072
H       -0.52497494      -1.83465532       1.70331848
H       -1.97594634      -0.43180345       1.53031603
H       -0.70259315       0.19923230       2.44081792
H       -0.61894818      -2.29100663       0.50039406
H       -0.59646208      -1.22579520      -1.79704791
H       -1.99210076      -1.27977983      -0.77004026
19
Frame=13 idx=006574 GeodesicLength=1.0970349920217877 rxn_smarts="[C:1]([C@@:2]1([H:11])[O:3][C:4]([H:12])([H:13])[C:5]1([C:6]([H:14])([H:15])[H:16])[C:7]([H:17])([H:18])[H:19])([H:8])([H:9])[H:10]>>[C:1]([C@@:2]1([H:11])[O:3][C:4]([H:12])([H:13])[C:6]([H:15])([H:16])[C:5]1=[C:7]([H:18])[H:19])([H:8])([H:9])[H:10].[H:14][H:17]"
C        1.74682968       0.18820074      -1.42363081
C        1.06333110       0.30348555      -0.08103367
O        0.82241252       1.67646180       0.24253481
C       -0.57165933       1.59515890       0.49906782
C       -0.38486233      -0.15987271       0.04971721
C       -0.93568953      -0.12471501       1.43130906
C       -0.90641131      -1.19706505      -0.75763368
H        2.69536993       0.72739468      -1.42005211
H        1.98040667      -0.85257813      -1.65694885
H        1.12175194       0.59874650      -2.21771120
H        1.72300693      -0.13056017       0.67972562
H       -1.17593925       2.01009369      -0.31553521
H       -0.75280420       2.23738596       1.36482640
H       -0.49555717      -1.81745423       1.73279232
H       -1.97593834      -0.45536993       1.52229562
H       -0.74964919       0.20438028       2.44578861
H       -0.60456603      -2.30381002       0.48201817
H       -0.60591693      -1.22355055      -1.80054037
H       -1.99411516      -1.27633230      -0.77698975
19
Frame=14 idx=006574 GeodesicLength=1.182800921595089 rxn_smarts="[C:1]([C@@:2]1([H:11])[O:3][C:4]([H:12])([H:13])[C:5]1([C:6]([H:14])([H:15])[H:16])[C:7]([H:17])([H:18])[H:19])([H:8])([H:9])[H:10]>>[C:1]([C@@:2]1([H:11])[O:3][C:4]([H:12])([H:13])[C:6]([H:15])([H:16])[C:5]1=[C:7]([H:18])[H:19])([H:8])([H:9])[H:10].[H:14][H:17]"
C        1.75000430       0.18232817      -1.42621637
C        1.05980850       0.30376195      -0.08743257
O        0.82132398       1.67825393       0.22832258
C       -0.57000861       1.59782086       0.50995769
C       -0.38943111      -0.15628864       0.04356687
C       -0.94349281      -0.11832935       1.42758858
C       -0.90785611      -1.20082103      -0.75856390
H        2.69923421       0.72038122      -1.42184060
H        1.98548312      -0.85929404      -1.65404610
H        1.12897548       0.58954340      -2.22510638
H        1.71781246      -0.12712237       0.67657493
H       -1.18493225       2.02325938      -0.29166368
H       -0.72686372       2.24523771       1.37704748
H       -0.46480027      -1.79757073       1.76471246
H       -1.97504825      -0.47989946       1.51434863
H       -0.79826648       0.20958728       2.44942663
H       -0.58983165      -2.31734193       0.46143593
H       -0.61571501      -1.22087590      -1.80415384
H       -1.99639577      -1.27263047      -0.78395835
19
Frame=15 idx=006574 GeodesicLength=1.2681238494455498 rxn_smarts="[C:1]([C@@:2]1([H:11])[O:3][C:4]([H:12])([H:13])[C:5]1([C:6]([H:14])([H:15])[H:16])[C:7]([H:17])([H:18])[H:19])([H:8])([H:9])[H:10]>>[C:1]([C@@:2]1([H:11])[O:3][C:4]([H:12])([H:13])[C:6]([H:15])([H:16])[C:5]1=[C:7]([H:18])[H:19])([H:8])([H:9])[H:10].[H:14][H:17]"
C        1.75312679       0.17624807      -1.42867623
C        1.05618818       0.30389282      -0.09380934
O        0.81993898       1.67987126       0.21397038
C       -0.56815235       1.60027658       0.52102760
C       -0.39407488      -0.15287398       0.03756678
C       -0.95168296      -0.11200584       1.42393263
C       -0.90968520      -1.20419039      -0.75976771
H        2.70305219       0.71314428      -1.42344508
H        1.99042980      -0.86621576      -1.65094954
H        1.13625999       0.58012241      -2.23240399
H        1.71254569      -0.12366788       0.67348572
H       -1.19355124       2.03637305      -0.26716198
H       -0.70049528       2.25229029       1.38922620
H       -0.43259657      -1.77460449       1.79935652
H       -1.97315353      -0.50553968       1.50654798
H       -0.84846073       0.21488091       2.45159518
H       -0.57478831      -2.33169941       0.43839424
H       -0.62591538      -1.21766772      -1.80794102
H       -1.99898519      -1.26863450      -0.79094833
19
Frame=16 idx=006574 GeodesicLength=1.3527959642581775 rxn_smarts="[C:1]([C@@:2]1([H:11])[O:3][C:4]([H:12])([H:13])[C:5]1([C:6]([H:14])([H:15])[H:16])[C:7]([H:17])([H:18])[H:19])([H:8])([H:9])[H:10]>>[C:1]([C@@:2]1([H:11])[O:3][C:4]([H:12])([H:13])[C:6]([H:15])([H:16])[C:5]1=[C:7]([H:18])[H:19])([H:8])([H:9])[H:10].[H:14][H:17]"
C        1.75619641       0.16994724      -1.43099015
C        1.05247600       0.30384015      -0.10014085
O        0.81825147       1.68126833       0.19952822
C       -0.56609226       1.60248125       0.53226592
C       -0.39877915      -0.14968112       0.03174447
C       -0.96030595      -0.10576805       1.42033352
C       -0.91193471      -1.20716442      -0.76129800
H        2.70682919       0.70566112      -1.42483034
H        1.99522826      -0.87335432      -1.64766778
H        1.14361005       0.57050105      -2.23957165
H        1.70721353      -0.12024085       0.67047410
H       -1.20174926       2.04939625      -0.24205428
H       -0.67374303       2.25847391       1.40135636
H       -0.39884751      -1.74806716       1.83702438
H       -1.97008537      -0.53247052       1.49899506
H       -0.90027675       0.22028274       2.45214496
H       -0.55946760      -2.34698825       0.41260521
H       -0.63659298      -1.21380917      -1.81196269
H       -2.00193034      -1.26430817      -0.79795645
