19
Frame=0 idx=008667 GeodesicLength=0.0 rxn_smarts="[C:1]([C:2]1([O:3][H:11])[C:4]([H:12])([H:13])[C:5]([H:14])([H:15])[C:6]([H:16])([H:17])[C:7]1([H:18])[H:19])([H:8])([H:9])[H:10]>>[C:1]([C:2](=[O:3])[C:7]([C:6]([C:5]([C:4]([H:11])([H:12])[H:13])([H:14])[H:15])([H:16])[H:17])([H:18])[H:19])([H:8])([H:9])[H:10]"
C        1.60287460      -0.83023172      -0.88681450
C        0.85280818      -0.50611373       0.38433357
O        1.59460711      -0.42391704       1.48995064
C        0.24307680       1.36301019       0.11307782
C       -1.25574129       1.17689044       0.20229856
C       -1.54776064      -0.25248940      -0.25155945
C       -0.53931525      -1.11824694       0.48982014
H        2.46587401      -0.17647163      -0.99751225
H        0.97969768      -0.78786146      -1.78135476
H        1.97154341      -1.85178248      -0.76098952
H        1.03683704       0.66903906       1.00089589
H        0.61775126       2.16791782       0.76533328
H        0.61700145       1.55832957      -0.88863600
H       -1.58179657       1.29990512       1.23890618
H       -1.79861830       1.91454318      -0.39313038
H       -1.40282188      -0.33726456      -1.33336224
H       -2.57531680      -0.55351456      -0.04121011
H       -0.49511612      -2.13767471       0.09829393
H       -0.78558462      -1.17406721       1.55165926
19
Frame=1 idx=008667 GeodesicLength=0.08678476164400578 rxn_smarts="[C:1]([C:2]1([O:3][H:11])[C:4]([H:12])([H:13])[C:5]([H:14])([H:15])[C:6]([H:16])([H:17])[C:7]1([H:18])[H:19])([H:8])([H:9])[H:10]>>[C:1]([C:2](=[O:3])[C:7]([C:6]([C:5]([C:4]([H:11])([H:12])[H:13])([H:14])[H:15])([H:16])[H:17])([H:18])[H:19])([H:8])([H:9])[H:10]"
C        1.61411393      -0.83719075      -0.88155521
C        0.85235616      -0.50819726       0.38130992
O        1.58343219      -0.42491951       1.49265631
C        0.24103865       1.36840197       0.10727192
C       -1.25740999       1.17842482       0.20783367
C       -1.55135009      -0.25074685      -0.24624320
C       -0.53834172      -1.12310263       0.48288413
H        2.48917627      -0.19717079      -0.97845840
H        1.00266088      -0.77349618      -1.78292857
H        1.96272567      -1.86667291      -0.76501038
H        1.04378721       0.68949033       1.01481847
H        0.61332807       2.19020112       0.73855006
H        0.60166153       1.55793380      -0.90106248
H       -1.57581755       1.30026240       1.24688518
H       -1.80643282       1.91489353      -0.38336862
H       -1.41691742      -0.33420803      -1.32944629
H       -2.57717974      -0.55099360      -0.02664685
H       -0.49835278      -2.13757457       0.07832735
H       -0.78247844      -1.19533489       1.54418299
19
Frame=2 idx=008667 GeodesicLength=0.17347070135818143 rxn_smarts="[C:1]([C:2]1([O:3][H:11])[C:4]([H:12])([H:13])[C:5]([H:14])([H:15])[C:6]([H:16])([H:17])[C:7]1([H:18])[H:19])([H:8])([H:9])[H:10]>>[C:1]([C:2](=[O:3])[C:7]([C:6]([C:5]([C:4]([H:11])([H:12])[H:13])([H:14])[H:15])([H:16])[H:17])([H:18])[H:19])([H:8])([H:9])[H:10]"
C        1.62541957      -0.84433247      -0.87622855
C        0.85186686      -0.51056534       0.37809829
O        1.57199097      -0.42515876       1.49513018
C        0.23907144       1.37371679       0.10147839
C       -1.25894346       1.17995219       0.21345007
C       -1.55497803      -0.24899446      -0.24078883
C       -0.53745072      -1.12804034       0.47574970
H        2.51235146      -0.21855422      -0.95884161
H        1.02637775      -0.75903720      -1.78416087
H        1.95380429      -1.88133105      -0.76953861
H        1.05082140       0.71060248       1.02908334
H        0.60849313       2.21218217       0.71122467
H        0.58610813       1.55731233      -0.91336814
H       -1.56958063       1.30063402       1.25491719
H       -1.81408645       1.91526506      -0.37341652
H       -1.43130836      -0.33108679      -1.32532224
H       -2.57895731      -0.54844263      -0.01175472
H       -0.50172611      -2.13728596       0.05800862
H       -0.77927394      -1.21683582       1.53627963
19
Frame=3 idx=008667 GeodesicLength=0.2600824319232417 rxn_smarts="[C:1]([C:2]1([O:3][H:11])[C:4]([H:12])([H:13])[C:5]([H:14])([H:15])[C:6]([H:16])([H:17])[C:7]1([H:18])[H:19])([H:8])([H:9])[H:10]>>[C:1]([C:2](=[O:3])[C:7]([C:6]([C:5]([C:4]([H:11])([H:12])[H:13])([H:14])[H:15])([H:16])[H:17])([H:18])[H:19])([H:8])([H:9])[H:10]"
C        1.63678966      -0.85166852      -0.87084217
C        0.85134112      -0.51323791       0.37468512
O        1.56027795      -0.42459492       1.49734488
C        0.23718144       1.37895361       0.09570440
C       -1.26033619       1.18146944       0.21914305
C       -1.55864109      -0.24723708      -0.23519149
C       -0.53664619      -1.13306401       0.46841345
H        2.53538143      -0.24065906      -0.93864985
H        1.05086817      -0.74446836      -1.78502967
H        1.94477709      -1.89575450      -0.77461375
H        1.05792677       0.73242848       1.04371773
H        0.60322757       2.23383578       0.68336731
H        0.57035088       1.55645827      -0.92553479
H       -1.56308763       1.30102103       1.26299256
H       -1.82156883       1.91565350      -0.36328347
H       -1.44599993      -0.32790445      -1.32097856
H       -2.58063863      -0.54586688       0.00347747
H       -0.50524307      -2.13680270       0.03733599
H       -0.77596054      -1.23856171       1.52794178
19
Frame=4 idx=008667 GeodesicLength=0.34664827942863025 rxn_smarts="[C:1]([C:2]1([O:3][H:11])[C:4]([H:12])([H:13])[C:5]([H:14])([H:15])[C:6]([H:16])([H:17])[C:7]1([H:18])[H:19])([H:8])([H:9])[H:10]>>[C:1]([C:2](=[O:3])[C:7]([C:6]([C:5]([C:4]([H:11])([H:12])[H:13])([H:14])[H:15])([H:16])[H:17])([H:18])[H:19])([H:8])([H:9])[H:10]"
C        1.64822393      -0.85921190      -0.86540281
C        0.85078088      -0.51623782       0.37105662
O        1.54828814      -0.42318159       1.49926889
C        0.23537666       1.38411141       0.08996019
C       -1.26158170       1.18297272       0.22490704
C       -1.56233407      -0.24548059      -0.22944645
C       -0.53593184      -1.13817813       0.46087341
H        2.55824210      -0.26352642      -0.91787150
H        1.07615392      -0.72976666      -1.78550978
H        1.93563481      -1.90994268      -0.78028466
H        1.06508828       0.75502625       1.05875426
H        0.59750909       2.25513404       0.65498646
H        0.55440241       1.55536338      -0.93754123
H       -1.55634186       1.30142446       1.27110044
H       -1.82886801       1.91605349      -0.35298138
H       -1.46099367      -0.32466585      -1.31640326
H       -2.58221028      -0.54327279       0.01906005
H       -0.50891197      -2.13611923       0.01630972
H       -0.77252682      -1.26050209       1.51916399
19
Frame=5 idx=008667 GeodesicLength=0.4331925004015133 rxn_smarts="[C:1]([C:2]1([O:3][H:11])[C:4]([H:12])([H:13])[C:5]([H:14])([H:15])[C:6]([H:16])([H:17])[C:7]1([H:18])[H:19])([H:8])([H:9])[H:10]>>[C:1]([C:2](=[O:3])[C:7]([C:6]([C:5]([C:4]([H:11])([H:12])[H:13])([H:14])[H:15])([H:16])[H:17])([H:18])[H:19])([H:8])([H:9])[H:10]"
C        1.65971726      -0.86697633      -0.85992289
C        0.85018897      -0.51958845       0.36719809
O        1.53601741      -0.42087007       1.50086150
C        0.23366579       1.38919031       0.08425635
C       -1.26267388       1.18445839       0.23073483
C       -1.56605062      -0.24373090      -0.22355018
C       -0.53531088      -1.14338674       0.45312836
H        2.58090448      -0.28719776      -0.89650189
H        1.10225272      -0.71491534      -1.78557480
H        1.92637493      -1.92389028      -0.78659681
H        1.07228111       0.77845582       1.07423465
H        0.59132244       2.27604174       0.62610199
H        0.53827741       1.55402001      -0.94936505
H       -1.54934912       1.30184685       1.27922755
H       -1.83597146       1.91645974      -0.34252527
H       -1.47628918      -0.32137702      -1.31158470
H       -2.58365778      -0.54066744       0.03500045
H       -0.51274051      -2.13523006      -0.00506514
H       -0.76895911      -1.28264246       1.50994299
19
Frame=6 idx=008667 GeodesicLength=0.5197333095284312 rxn_smarts="[C:1]([C:2]1([O:3][H:11])[C:4]([H:12])([H:13])[C:5]([H:14])([H:15])[C:6]([H:16])([H:17])[C:7]1([H:18])[H:19])([H:8])([H:9])[H:10]>>[C:1]([C:2](=[O:3])[C:7]([C:6]([C:5]([C:4]([H:11])([H:12])[H:13])([H:14])[H:15])([H:16])[H:17])([H:18])[H:19])([H:8])([H:9])[H:10]"
C        1.67126510      -0.87497584      -0.85441509
C        0.84956829      -0.52331480       0.36309362
O        1.52346548      -0.41760031       1.50207855
C        0.23205729       1.39419116       0.07860669
C       -1.26360744       1.18592235       0.23661773
C       -1.56978316      -0.24199560      -0.21749891
C       -0.53478685      -1.14869390       0.44518023
H        2.60333887      -0.31172755      -0.87453045
H        1.12919357      -0.69989159      -1.78518853
H        1.91698036      -1.93759159      -0.79362225
H        1.07947838       0.80277876       1.09020182
H        0.58464939       2.29652371       0.59673517
H        0.52199390       1.55242118      -0.96098028
H       -1.54211940       1.30229125       1.28735893
H       -1.84286710       1.91686492      -0.33193430
H       -1.49188140      -0.31804619      -1.30651059
H       -2.58496477      -0.53806084       0.05130603
H       -0.51673728      -2.13413115      -0.02677754
H       -0.76524322      -1.30496399       1.50027918
19
Frame=7 idx=008667 GeodesicLength=0.6062788843587352 rxn_smarts="[C:1]([C:2]1([O:3][H:11])[C:4]([H:12])([H:13])[C:5]([H:14])([H:15])[C:6]([H:16])([H:17])[C:7]1([H:18])[H:19])([H:8])([H:9])[H:10]>>[C:1]([C:2](=[O:3])[C:7]([C:6]([C:5]([C:4]([H:11])([H:12])[H:13])([H:14])[H:15])([H:16])[H:17])([H:18])[H:19])([H:8])([H:9])[H:10]"
C        1.68285827      -0.88322440      -0.84889497
C        0.84892570      -0.52744221       0.35873187
O        1.51063487      -0.41332081       1.50286129
C        0.23056015       1.39911627       0.07302606
C       -1.26437727       1.18736055       0.24254281
C       -1.57352030      -0.24028401      -0.21129085
C       -0.53436040      -1.15410250       0.43703523
H        2.62550639      -0.33717287      -0.85195725
H        1.15699472      -0.68467307      -1.78431283
H        1.90743590      -1.95103531      -0.80143513
H        1.08663893       0.82805576       1.10670663
H        0.57747781       2.31654653       0.56692431
H        0.50557603       1.55056374      -0.97235859
H       -1.53466841       1.30276346       1.29547412
H       -1.84954157       1.91725962      -0.32123612
H       -1.50775877      -0.31468661      -1.30116956
H       -2.58611163      -0.53546430       0.06797869
H       -0.52090861      -2.13281974      -0.04880527
H       -0.76136183      -1.32744009       1.49017956
19
Frame=8 idx=008667 GeodesicLength=0.6928329708750464 rxn_smarts="[C:1]([C:2]1([O:3][H:11])[C:4]([H:12])([H:13])[C:5]([H:14])([H:15])[C:6]([H:16])([H:17])[C:7]1([H:18])[H:19])([H:8])([H:9])[H:10]>>[C:1]([C:2](=[O:3])[C:7]([C:6]([C:5]([C:4]([H:11])([H:12])[H:13])([H:14])[H:15])([H:16])[H:17])([H:18])[H:19])([H:8])([H:9])[H:10]"
C        1.69448641      -0.89173759      -0.84337888
C        0.84826494      -0.53199520       0.35410140
O        1.49753836      -0.40797684       1.50314916
C        0.22918187       1.40397011       0.06753028
C       -1.26498071       1.18876829       0.24849722
C       -1.57725089      -0.23860583      -0.20492468
C       -0.53403363      -1.15961558       0.42870117
H        2.64736227      -0.36359982      -0.82877505
H        1.18568655      -0.66923692      -1.78289908
H        1.89771930      -1.96420714      -0.81012286
H        1.09372714       0.85435161       1.12379105
H        0.56979440       2.33607286       0.53670848
H        0.48904914       1.54844811      -0.98347027
H       -1.52701475       1.30326894       1.30355314
H       -1.85598502       1.91763347      -0.31045935
H       -1.52390784      -0.31131132      -1.29555057
H       -2.58707789      -0.53289121       0.08501841
H       -0.52526172      -2.13129330      -0.07112342
H       -0.75729793      -1.35004264       1.47965385
19
Frame=9 idx=008667 GeodesicLength=0.7794824666254213 rxn_smarts="[C:1]([C:2]1([O:3][H:11])[C:4]([H:12])([H:13])[C:5]([H:14])([H:15])[C:6]([H:16])([H:17])[C:7]1([H:18])[H:19])([H:8])([H:9])[H:10]>>[C:1]([C:2](=[O:3])[C:7]([C:6]([C:5]([C:4]([H:11])([H:12])[H:13])([H:14])[H:15])([H:16])[H:17])([H:18])[H:19])([H:8])([H:9])[H:10]"
C        1.70613414      -0.90053103      -0.83790418
C        0.84761170      -0.53702569       0.34919510
O        1.48416698      -0.40147209       1.50282774
C        0.22794445       1.40874528       0.06215184
C       -1.26540511       1.19013345       0.25445533
C       -1.58094825      -0.23698165      -0.19840216
C       -0.53379928      -1.16524197       0.42019773
H        2.66885045      -0.39109244      -0.80499123
H        1.21525127      -0.65352979      -1.78087198
H        1.88777449      -1.97707830      -0.81983695
H        1.10065150       0.88174868       1.14159293
H        0.56161932       2.35510799       0.50614425
H        0.47246222       1.54605258      -0.99427609
H       -1.51919000       1.30381865       1.31155657
H       -1.86216663       1.91796386      -0.29966299
H       -1.54029378      -0.30795357      -1.28964417
H       -2.58783097      -0.53036662       0.10241594
H       -0.52979689      -2.12957099      -0.09367850
H       -0.75303561      -1.37272635       1.46873082
19
Frame=10 idx=008667 GeodesicLength=0.8661017807963372 rxn_smarts="[C:1]([C:2]1([O:3][H:11])[C:4]([H:12])([H:13])[C:5]([H:14])([H:15])[C:6]([H:16])([H:17])[C:7]1([H:18])[H:19])([H:8])([H:9])[H:10]>>[C:1]([C:2](=[O:3])[C:7]([C:6]([C:5]([C:4]([H:11])([H:12])[H:13])([H:14])[H:15])([H:16])[H:17])([H:18])[H:19])([H:8])([H:9])[H:10]"
C        1.71778517      -0.90961674      -0.83248192
C        0.84696383      -0.54252774       0.34400454
O        1.47057224      -0.39379526       1.50186242
C        0.22684352       1.41346310       0.05689551
C       -1.26565828       1.19145955       0.26040126
C       -1.58460414      -0.23541633      -0.19172298
C       -0.53365801      -1.17097461       0.41154023
H        2.68992295      -0.41973156      -0.78061967
H        1.24574626      -0.63754191      -1.77819756
H        1.87759106      -1.98961749      -0.83063592
H        1.10737455       0.91026367       1.16009918
H        0.55291891       2.37357511       0.47529045
H        0.45583694       1.54340738      -1.00474811
H       -1.51122165       1.30442407       1.31946489
H       -1.86809277       1.91824571      -0.28887820
H       -1.55689804      -0.30462542      -1.28344081
H       -2.58835368      -0.52789735       0.12016824
H       -0.53452032      -2.12764181      -0.11643377
H       -0.74854854      -1.39545237       1.45743223
19
Frame=11 idx=008667 GeodesicLength=0.9526688168889831 rxn_smarts="[C:1]([C:2]1([O:3][H:11])[C:4]([H:12])([H:13])[C:5]([H:14])([H:15])[C:6]([H:16])([H:17])[C:7]1([H:18])[H:19])([H:8])([H:9])[H:10]>>[C:1]([C:2](=[O:3])[C:7]([C:6]([C:5]([C:4]([H:11])([H:12])[H:13])([H:14])[H:15])([H:16])[H:17])([H:18])[H:19])([H:8])([H:9])[H:10]"
C        1.72942045      -0.91901081      -0.82714336
C        0.84633736      -0.54852385       0.33852150
O        1.45678230      -0.38490263       1.50017692
C        0.22589058       1.41813018       0.05178187
C       -1.26573745       1.19274274       0.26630978
C       -1.58819760      -0.23392374      -0.18489039
C       -0.53360347      -1.17681362       0.40275242
H        2.71052342      -0.44958803      -0.75569170
H        1.27717153      -0.62124047      -1.77482192
H        1.86713560      -2.00178994      -0.84262495
H        1.11380993       0.93992693       1.17939044
H        0.54369185       2.39144816       0.44421208
H        0.43921926       1.54051821      -1.01485212
H       -1.50314562       1.30510054       1.32724323
H       -1.87374842       1.91846469      -0.27816102
H       -1.57368458      -0.30135428      -1.27693339
H       -2.58861933      -0.52550046       0.13826262
H       -0.53943308      -2.12551730      -0.13932784
H       -0.74381275      -1.41816633       1.44579581
19
Frame=12 idx=008667 GeodesicLength=1.0391579049932886 rxn_smarts="[C:1]([C:2]1([O:3][H:11])[C:4]([H:12])([H:13])[C:5]([H:14])([H:15])[C:6]([H:16])([H:17])[C:7]1([H:18])[H:19])([H:8])([H:9])[H:10]>>[C:1]([C:2](=[O:3])[C:7]([C:6]([C:5]([C:4]([H:11])([H:12])[H:13])([H:14])[H:15])([H:16])[H:17])([H:18])[H:19])([H:8])([H:9])[H:10]"
C        1.74101852      -0.92872622      -0.82192316
C        0.84574833      -0.55503097       0.33273974
O        1.44284624      -0.37475305       1.49769064
C        0.22509274       1.42275777       0.04682939
C       -1.26564462       1.19397896       0.27215183
C       -1.59170573      -0.23251970      -0.17791002
C       -0.53362740      -1.18275720       0.39386408
H        2.73058617      -0.48075283      -0.73023840
H        1.30953655      -0.60459593      -1.77068226
H        1.85636298      -2.01354636      -0.85592489
H        1.11986426       0.97076514       1.19954255
H        0.53394704       2.40869604       0.41299040
H        0.42265664       1.53740122      -1.02455423
H       -1.49500682       1.30586571       1.33485363
H       -1.87912555       1.91860301      -0.26757490
H       -1.59061209      -0.29817293      -1.27011755
H       -2.58859997      -0.52319490       0.15668111
H       -0.54453482      -2.12321074      -0.16228746
H       -0.73880247      -1.44080701       1.43386950
19
Frame=13 idx=008667 GeodesicLength=1.1255485316820064 rxn_smarts="[C:1]([C:2]1([O:3][H:11])[C:4]([H:12])([H:13])[C:5]([H:14])([H:15])[C:6]([H:16])([H:17])[C:7]1([H:18])[H:19])([H:8])([H:9])[H:10]>>[C:1]([C:2](=[O:3])[C:7]([C:6]([C:5]([C:4]([H:11])([H:12])[H:13])([H:14])[H:15])([H:16])[H:17])([H:18])[H:19])([H:8])([H:9])[H:10]"
C        1.75255000      -0.93877631      -0.81686028
C        0.84521604      -0.56206197       0.32666065
O        1.42881953      -0.36332411       1.49431111
C        0.22445691       1.42736174       0.04205599
C       -1.26538288       1.19516591       0.27789455
C       -1.59510207      -0.23122015      -0.17078897
C       -0.53371715      -1.18879971       0.38491451
H        2.75003828      -0.51331515      -0.70430503
H        1.34284895      -0.58758024      -1.76570546
H        1.84522614      -2.02482266      -0.87066846
H        1.12542862       1.00278976       1.22064288
H        0.52369766       2.42528782       0.38171118
H        0.40620005       1.53407449      -1.03382468
H       -1.48685532       1.30674231       1.34225361
H       -1.88421660       1.91864145      -0.25719163
H       -1.60762801      -0.29511916      -1.26299072
H       -2.58826636      -0.52099999       0.17539988
H       -0.54982073      -2.12074061      -0.18522193
H       -0.73349307      -1.46330342       1.42171281
19
Frame=14 idx=008667 GeodesicLength=1.2118346524338175 rxn_smarts="[C:1]([C:2]1([O:3][H:11])[C:4]([H:12])([H:13])[C:5]([H:14])([H:15])[C:6]([H:16])([H:17])[C:7]1([H:18])[H:19])([H:8])([H:9])[H:10]>>[C:1]([C:2](=[O:3])[C:7]([C:6]([C:5]([C:4]([H:11])([H:12])[H:13])([H:14])[H:15])([H:16])[H:17])([H:18])[H:19])([H:8])([H:9])[H:10]"
C        1.76398453      -0.94917043      -0.81200256
C        0.84476320      -0.56962950       0.32028534
O        1.41477765      -0.35059121       1.48994159
C        0.22399010       1.43195834       0.03748571
C       -1.26495779       1.19630014       0.28350225
C       -1.59835597      -0.23004352      -0.16353771
C       -0.53385778      -1.19493712       0.37595045
H        2.76879257      -0.54740046      -0.67794219
H        1.37711711      -0.57016512      -1.75980818
H        1.83366774      -2.03553742      -0.88700848
H        1.13038367       1.03601278       1.24277793
H        0.51295666       2.44121033       0.35047159
H        0.38990764       1.53056654      -1.04262773
H       -1.47875327       1.30775444       1.34939800
H       -1.88901688       1.91855730      -0.24709212
H       -1.62466921      -0.29223623      -1.25555557
H       -2.58758713      -0.51893797       0.19438530
H       -0.55528502      -2.11813481      -0.20802508
H       -0.72785782      -1.48557607       1.40940148
19
Frame=15 idx=008667 GeodesicLength=1.2980144816632253 rxn_smarts="[C:1]([C:2]1([O:3][H:11])[C:4]([H:12])([H:13])[C:5]([H:14])([H:15])[C:6]([H:16])([H:17])[C:7]1([H:18])[H:19])([H:8])([H:9])[H:10]>>[C:1]([C:2](=[O:3])[C:7]([C:6]([C:5]([C:4]([H:11])([H:12])[H:13])([H:14])[H:15])([H:16])[H:17])([H:18])[H:19])([H:8])([H:9])[H:10]"
C        1.77528824      -0.95991466      -0.80739933
C        0.84441507      -0.57773874       0.31362260
O        1.40080623      -0.33654877       1.48448545
C        0.22369749       1.43656925       0.03314041
C       -1.26437688       1.19737954       0.28893586
C       -1.60143322      -0.22900775      -0.15617021
C       -0.53402975      -1.20116147       0.36702777
H        2.78674556      -0.58313034      -0.65122998
H        1.41234437      -0.55233563      -1.75289747
H        1.82163034      -2.04558736      -0.90509884
H        1.13459765       1.07042686       1.26604220
H        0.50174591       2.45644699       0.31937479
H        0.37384116       1.52691031      -1.05093197
H       -1.47076866       1.30892986       1.35623829
H       -1.89352439       1.91832677      -0.23736359
H       -1.64166089      -0.28957178      -1.24781925
H       -2.58653117      -0.51702998       0.21359372
H       -0.56091518      -2.11542604      -0.23057300
H       -0.72187188      -1.50753709       1.39702255
19
Frame=16 idx=008667 GeodesicLength=1.3840984369198193 rxn_smarts="[C:1]([C:2]1([O:3][H:11])[C:4]([H:12])([H:13])[C:5]([H:14])([H:15])[C:6]([H:16])([H:17])[C:7]1([H:18])[H:19])([H:8])([H:9])[H:10]>>[C:1]([C:2](=[O:3])[C:7]([C:6]([C:5]([C:4]([H:11])([H:12])[H:13])([H:14])[H:15])([H:16])[H:17])([H:18])[H:19])([H:8])([H:9])[H:10]"
C        1.78642259      -0.97101428      -0.80310659
C        0.84419832      -0.58638717       0.30668358
O        1.38701098      -0.32119809       1.47784665
C        0.22358039       1.44121813       0.02903678
C       -1.26365146       1.19840296       0.29415320
C       -1.60429933      -0.22813221      -0.14870036
C       -0.53421155      -1.20746478       0.35821307
H        2.80378262      -0.62065625      -0.62425115
H        1.44855941      -0.53406680      -1.74486553
H        1.80904855      -2.05484013      -0.92511952
H        1.13792573       1.10600991       1.29053106
H        0.49009459       2.47099248       0.28852630
H        0.35806000       1.52314101      -1.05871386
H       -1.46297490       1.31030194       1.36272388
H       -1.89774262       1.91792438      -0.22810066
H       -1.65852295      -0.28718087      -1.23979129
H       -2.58506936      -0.51529682       0.23297914
H       -0.56669943      -2.11265868      -0.25272806
H       -0.71551160      -1.52909473       1.38468333
