18
Frame=0 idx=006293 GeodesicLength=0.0 rxn_smarts="[C:1]([C:2]([C@@:3]([C:4]([H:13])([H:14])[H:15])([O:5][C:6]([H:16])([H:17])[H:18])[H:12])([H:10])[H:11])([H:7])([H:8])[H:9]>>[C:1]([H:7])([H:8])([H:9])[H:17].[C:2](=[C:3]([C:4]([H:13])([H:14])[H:15])[H:12])([H:10])[H:11].[O:5]=[C:6]([H:16])[H:18]"
C       -0.16539592      -2.00510593       0.57977518
C       -1.14871379      -0.19877373      -0.37613384
C       -0.39618784       0.88905624      -0.83003884
C       -0.58370697       2.23115900      -0.18262103
O        1.37781614       0.69643030      -0.50059708
C        1.77878805      -0.26237189       0.27498575
H        0.05156160      -2.58462526      -0.31233248
H        0.45013861      -2.35386652       1.41220089
H       -1.20496081      -2.09745051       0.86510976
H       -1.76338286      -0.05989294       0.50414503
H       -1.50164435      -0.92499535      -1.09414045
H       -0.22380420       0.91970074      -1.89939136
H       -1.51927874       2.68316266      -0.52315643
H        0.23732910       2.90132900      -0.43366697
H       -0.63173073       2.13212112       0.90372849
H        2.03356546       0.00734371       1.31152910
H        0.75452735      -0.97080650       0.47494466
H        2.45507987      -1.00241409      -0.17434044
18
Frame=1 idx=006293 GeodesicLength=0.12747432158517383 rxn_smarts="[C:1]([C:2]([C@@:3]([C:4]([H:13])([H:14])[H:15])([O:5][C:6]([H:16])([H:17])[H:18])[H:12])([H:10])[H:11])([H:7])([H:8])[H:9]>>[C:1]([H:7])([H:8])([H:9])[H:17].[C:2](=[C:3]([C:4]([H:13])([H:14])[H:15])[H:12])([H:10])[H:11].[O:5]=[C:6]([H:16])[H:18]"
C       -0.18310658      -2.00894298       0.59474069
C       -1.14323447      -0.19428831      -0.37078379
C       -0.38018843       0.89517422      -0.80735349
C       -0.61674712       2.24612788      -0.19391687
O        1.39608328       0.74556746      -0.40609253
C        1.82011901      -0.27652647       0.26839281
H        0.03371925      -2.62222238      -0.27513482
H        0.41896364      -2.32530642       1.44959273
H       -1.22428899      -2.11362247       0.87338375
H       -1.77783013      -0.05370639       0.49557620
H       -1.50727496      -0.89797377      -1.10637095
H       -0.17943102       0.91621042      -1.87295039
H       -1.54189324       2.68063933      -0.58201895
H        0.20564862       2.92292740      -0.42261015
H       -0.71045063       2.16550948       0.89099663
H        2.13778801      -0.08744998       1.30523297
H        0.79002834      -1.01038909       0.43695699
H        2.46209541      -0.98172791      -0.27764083
18
Frame=2 idx=006293 GeodesicLength=0.24787148147092516 rxn_smarts="[C:1]([C:2]([C@@:3]([C:4]([H:13])([H:14])[H:15])([O:5][C:6]([H:16])([H:17])[H:18])[H:12])([H:10])[H:11])([H:7])([H:8])[H:9]>>[C:1]([H:7])([H:8])([H:9])[H:17].[C:2](=[C:3]([C:4]([H:13])([H:14])[H:15])[H:12])([H:10])[H:11].[O:5]=[C:6]([H:16])[H:18]"
C       -0.20030729      -2.01012412       0.61055873
C       -1.14075366      -0.19127536      -0.36827013
C       -0.36577000       0.89966190      -0.78448192
C       -0.64499980       2.25710792      -0.20281210
O        1.40863296       0.78537057      -0.30826308
C        1.85781876      -0.28843838       0.26009686
H        0.01664634      -2.65994712      -0.23302975
H        0.38896082      -2.28768506       1.48747405
H       -1.24238918      -2.12840097       0.88414552
H       -1.79659674      -0.04905609       0.48247113
H       -1.51140712      -0.87289486      -1.12199114
H       -0.13577992       0.91359600      -1.84522574
H       -1.55559438       2.67823096      -0.63703129
H        0.18068791       2.93827232      -0.40623928
H       -0.78582405       2.19129483       0.87801852
H        2.23608988      -0.17725181       1.28768880
H        0.82453695      -1.05200543       0.39356503
H        2.46604851      -0.94645531      -0.37667420
18
Frame=3 idx=006293 GeodesicLength=0.36308648458959664 rxn_smarts="[C:1]([C:2]([C@@:3]([C:4]([H:13])([H:14])[H:15])([O:5][C:6]([H:16])([H:17])[H:18])[H:12])([H:10])[H:11])([H:7])([H:8])[H:9]>>[C:1]([H:7])([H:8])([H:9])[H:17].[C:2](=[C:3]([C:4]([H:13])([H:14])[H:15])[H:12])([H:10])[H:11].[O:5]=[C:6]([H:16])[H:18]"
C       -0.21659320      -2.00870106       0.62645990
C       -1.14163604      -0.18984113      -0.36879926
C       -0.35331355       0.90201798      -0.76208105
C       -0.66806123       2.26422732      -0.20913525
O        1.41574744       0.81458486      -0.20999244
C        1.89145548      -0.29823020       0.25058753
H        0.00099527      -2.69683288      -0.18678336
H        0.36057094      -2.24185308       1.52406415
H       -1.25865689      -2.14206217       0.89719984
H       -1.81937345      -0.04598458       0.46493267
H       -1.51493167      -0.84995423      -1.14099295
H       -0.09454496       0.91132452      -1.81716513
H       -1.56039686       2.67662574      -0.68717446
H        0.16270538       2.94726331      -0.38481448
H       -0.85624639       2.20973579       0.86510993
H        2.32775410      -0.25904145       1.26007900
H        0.85725678      -1.09450561       0.34698631
H        2.46726887      -0.89877312      -0.46848096
18
Frame=4 idx=006293 GeodesicLength=0.47538270942251926 rxn_smarts="[C:1]([C:2]([C@@:3]([C:4]([H:13])([H:14])[H:15])([O:5][C:6]([H:16])([H:17])[H:18])[H:12])([H:10])[H:11])([H:7])([H:8])[H:9]>>[C:1]([H:7])([H:8])([H:9])[H:17].[C:2](=[C:3]([C:4]([H:13])([H:14])[H:15])[H:12])([H:10])[H:11].[O:5]=[C:6]([H:16])[H:18]"
C       -0.23184450      -2.00506274       0.64193342
C       -1.14589148      -0.18997486      -0.37249953
C       -0.34295225       0.90205656      -0.74072930
C       -0.68604889       2.26789261      -0.21285724
O        1.41838169       0.83322808      -0.11401302
C        1.92129730      -0.30603841       0.24017946
H       -0.01255363      -2.73207215      -0.13709523
H        0.33383671      -2.18941138       1.55802973
H       -1.27294453      -2.15498341       0.91214001
H       -1.84567851      -0.04440479       0.44306519
H       -1.51857220      -0.82913970      -1.16330890
H       -0.05695067       0.90904851      -1.78968417
H       -1.55711283       2.67632735      -0.73178288
H        0.15128142       2.95037259      -0.35878695
H       -0.92079558       2.22153375       0.85256120
H        2.41313355      -0.33082285       1.22398793
H        0.88769348      -1.13661731       0.30018792
H        2.46572092      -0.84193186      -0.55132763
18
Frame=5 idx=006293 GeodesicLength=0.5842901528643881 rxn_smarts="[C:1]([C:2]([C@@:3]([C:4]([H:13])([H:14])[H:15])([O:5][C:6]([H:16])([H:17])[H:18])[H:12])([H:10])[H:11])([H:7])([H:8])[H:9]>>[C:1]([H:7])([H:8])([H:9])[H:17].[C:2](=[C:3]([C:4]([H:13])([H:14])[H:15])[H:12])([H:10])[H:11].[O:5]=[C:6]([H:16])[H:18]"
C       -0.24608422      -1.99964180       0.65606518
C       -1.15276594      -0.19144875      -0.37852581
C       -0.33440439       0.89946163      -0.72064115
C       -0.69912796       2.26814264      -0.21434698
O        1.41758642       0.84208773      -0.02261898
C        1.94729445      -0.31172269       0.22913264
H       -0.02272840      -2.76434819      -0.08550571
H        0.30759863      -2.13177036       1.58808947
H       -1.28514083      -2.16773513       0.92775091
H       -1.87361340      -0.04415467       0.41876745
H       -1.52277072      -0.80945758      -1.18767655
H       -0.02346359       0.90583448      -1.76340397
H       -1.54671738       2.67670379      -0.77032455
H        0.14544438       2.94764960      -0.33002269
H       -0.97828569       2.22767421       0.84053381
H        2.49060090      -0.39171533       1.18190212
H        0.91565657      -1.17710496       0.25543014
H        2.46092118      -0.77845462      -0.62460531
18
Frame=6 idx=006293 GeodesicLength=0.6927118526795418 rxn_smarts="[C:1]([C:2]([C@@:3]([C:4]([H:13])([H:14])[H:15])([O:5][C:6]([H:16])([H:17])[H:18])[H:12])([H:10])[H:11])([H:7])([H:8])[H:9]>>[C:1]([H:7])([H:8])([H:9])[H:17].[C:2](=[C:3]([C:4]([H:13])([H:14])[H:15])[H:12])([H:10])[H:11].[O:5]=[C:6]([H:16])[H:18]"
C       -0.25945201      -1.99386475       0.66836570
C       -1.16228967      -0.19386361      -0.38609565
C       -0.32773056       0.89468323      -0.70194040
C       -0.70810526       2.26625986      -0.21445437
O        1.41458444       0.84299948       0.06327003
C        1.97059899      -0.31534467       0.21836219
H       -0.03021562      -2.79408283      -0.03366884
H        0.28263449      -2.07277310       1.61302023
H       -1.29538944      -2.18128398       0.94381815
H       -1.90217274      -0.04438707       0.39370531
H       -1.52963757      -0.79022931      -1.21312298
H        0.00542057       0.90122171      -1.73874765
H       -1.53086593       2.67825154      -0.80403097
H        0.14430046       2.94074151      -0.29994541
H       -1.02919617       2.23047185       0.82858568
H        2.56158998      -0.44118358       1.13682393
H        0.94172997      -1.21623126       0.21344661
H        2.45419606      -0.71138502      -0.68739157
18
Frame=7 idx=006293 GeodesicLength=0.8006723475182076 rxn_smarts="[C:1]([C:2]([C@@:3]([C:4]([H:13])([H:14])[H:15])([O:5][C:6]([H:16])([H:17])[H:18])[H:12])([H:10])[H:11])([H:7])([H:8])[H:9]>>[C:1]([H:7])([H:8])([H:9])[H:17].[C:2](=[C:3]([C:4]([H:13])([H:14])[H:15])[H:12])([H:10])[H:11].[O:5]=[C:6]([H:16])[H:18]"
C       -0.27212270      -1.98829499       0.67849846
C       -1.17394596      -0.19689124      -0.39437176
C       -0.32264302       0.88786539      -0.68447375
C       -0.71357015       2.26265088      -0.21378538
O        1.41008989       0.83747969       0.14362541
C        1.99160611      -0.31693725       0.20820135
H       -0.03498290      -2.82115002       0.01737174
H        0.25844342      -2.01408518       1.63252877
H       -1.30378362      -2.19602412       0.95984948
H       -1.93028590      -0.04465781       0.36948097
H       -1.53974238      -0.77051988      -1.23864070
H        0.03007616       0.89468930      -1.71573329
H       -1.51058977       2.68045248      -0.83372718
H        0.14691448       2.93024735      -0.26984131
H       -1.07394387       2.23124846       0.81647048
H        2.62633480      -0.47991242       1.09062432
H        0.96636384      -1.25397847       0.17426790
H        2.44578159      -0.64218215      -0.74034549
18
Frame=8 idx=006293 GeodesicLength=0.9086456372484736 rxn_smarts="[C:1]([C:2]([C@@:3]([C:4]([H:13])([H:14])[H:15])([O:5][C:6]([H:16])([H:17])[H:18])[H:12])([H:10])[H:11])([H:7])([H:8])[H:9]>>[C:1]([H:7])([H:8])([H:9])[H:17].[C:2](=[C:3]([C:4]([H:13])([H:14])[H:15])[H:12])([H:10])[H:11].[O:5]=[C:6]([H:16])[H:18]"
C       -0.28433202      -1.98320638       0.68653867
C       -1.18739030      -0.20033666      -0.40304516
C       -0.31890840       0.87925398      -0.66813078
C       -0.71612009       2.25764348      -0.21264430
O        1.40476214       0.82688621       0.21878460
C        2.01085413      -0.31660972       0.19870709
H       -0.03722531      -2.84573192       0.06750265
H        0.23460812      -1.95652944       1.64689782
H       -1.31057910      -2.21197077       0.97574243
H       -1.95772923      -0.04473496       0.34655602
H       -1.55311993      -0.74985130      -1.26388525
H        0.05096009       0.88621173      -1.69432265
H       -1.48680297       2.68299783      -0.86006358
H        0.15251848       2.91676267      -0.24021089
H       -1.11326006       2.23075374       0.80412013
H        2.68587097      -0.50911697       1.04427968
H        0.99003999      -1.29055106       0.13765580
H        2.43585349      -0.57187045      -0.78448227
18
Frame=9 idx=006293 GeodesicLength=1.0166487498598953 rxn_smarts="[C:1]([C:2]([C@@:3]([C:4]([H:13])([H:14])[H:15])([O:5][C:6]([H:16])([H:17])[H:18])[H:12])([H:10])[H:11])([H:7])([H:8])[H:9]>>[C:1]([H:7])([H:8])([H:9])[H:17].[C:2](=[C:3]([C:4]([H:13])([H:14])[H:15])[H:12])([H:10])[H:11].[O:5]=[C:6]([H:16])[H:18]"
C       -0.29626205      -1.97889345       0.69247728
C       -1.20230167      -0.20406533      -0.41168957
C       -0.31633122       0.86901450      -0.65277493
C       -0.71613361       2.25148144      -0.21137725
O        1.39901945       0.81224960       0.28914524
C        2.02856661      -0.31439541       0.18995230
H       -0.03714437      -2.86794306       0.11638451
H        0.21068368      -1.90086219       1.65638190
H       -1.31586433      -2.22932106       0.99141205
H       -1.98411432      -0.04448555       0.32564751
H       -1.56980647      -0.72771580      -1.28833109
H        0.06851168       0.87569563      -1.67442879
H       -1.46005835       2.68556546      -0.88370671
H        0.16056363       2.90070545      -0.21165020
H       -1.14765825       2.22967363       0.79138401
H        2.74062753      -0.52973397       0.99870688
H        1.01320613      -1.32606107       0.10316979
H        2.42449594      -0.50090880      -0.82070294
18
Frame=10 idx=006293 GeodesicLength=1.1249485702755506 rxn_smarts="[C:1]([C:2]([C@@:3]([C:4]([H:13])([H:14])[H:15])([O:5][C:6]([H:16])([H:17])[H:18])[H:12])([H:10])[H:11])([H:7])([H:8])[H:9]>>[C:1]([H:7])([H:8])([H:9])[H:17].[C:2](=[C:3]([C:4]([H:13])([H:14])[H:15])[H:12])([H:10])[H:11].[O:5]=[C:6]([H:16])[H:18]"
C       -0.30798865      -1.97558918       0.69638422
C       -1.21868335      -0.20785884      -0.42006068
C       -0.31485639       0.85735214      -0.63829641
C       -0.71402175       2.24446945      -0.21030287
O        1.39304236       0.79440800       0.35533698
C        2.04512511      -0.31046841       0.18221303
H       -0.03508688      -2.88795374       0.16359222
H        0.18687589      -1.84808928       1.66131153
H       -1.31971167      -2.24806709       1.00685527
H       -2.00951788      -0.04356435       0.30713497
H       -1.59011602      -0.70374462      -1.31171330
H        0.08304352       0.86303014      -1.65594555
H       -1.43094317       2.68798148      -0.90535426
H        0.17067030       2.88255684      -0.18455993
H       -1.17769802       2.22866138       0.77810074
H        2.79155545      -0.54235299       0.95446676
H        1.03613599      -1.36078415       0.07042150
H        2.41217518      -0.42998676      -0.84958421
18
Frame=11 idx=006293 GeodesicLength=1.2335042045978881 rxn_smarts="[C:1]([C:2]([C@@:3]([C:4]([H:13])([H:14])[H:15])([O:5][C:6]([H:16])([H:17])[H:18])[H:12])([H:10])[H:11])([H:7])([H:8])[H:9]>>[C:1]([H:7])([H:8])([H:9])[H:17].[C:2](=[C:3]([C:4]([H:13])([H:14])[H:15])[H:12])([H:10])[H:11].[O:5]=[C:6]([H:16])[H:18]"
C       -0.31966032      -1.97327907       0.69843887
C       -1.23636610      -0.21166382      -0.42812656
C       -0.31435794       0.84437234      -0.62461017
C       -0.71002254       2.23664339      -0.20949646
O        1.38700114       0.77390568       0.41782103
C        2.06066080      -0.30491692       0.17540925
H       -0.03122216      -2.90581734       0.20926597
H        0.16288009      -1.79823032       1.66220231
H       -1.32220511      -2.26807929       1.02213705
H       -2.03401618      -0.04197777       0.29093790
H       -1.61368849      -0.67773127      -1.33394036
H        0.09492674       0.84831392      -1.63876102
H       -1.39973330       2.69000758      -0.92534131
H        0.18253565       2.86248232      -0.15897151
H       -1.20380380       2.22783868       0.76428251
H        2.83915197      -0.54775895       0.91165657
H        1.05908209      -1.39484319       0.03905482
H        2.39883745      -0.35926596      -0.87195890
18
Frame=12 idx=006293 GeodesicLength=1.3424038682988222 rxn_smarts="[C:1]([C:2]([C@@:3]([C:4]([H:13])([H:14])[H:15])([O:5][C:6]([H:16])([H:17])[H:18])[H:12])([H:10])[H:11])([H:7])([H:8])[H:9]>>[C:1]([H:7])([H:8])([H:9])[H:17].[C:2](=[C:3]([C:4]([H:13])([H:14])[H:15])[H:12])([H:10])[H:11].[O:5]=[C:6]([H:16])[H:18]"
C       -0.33139613      -1.97195817       0.69880207
C       -1.25528558      -0.21543883      -0.43588526
C       -0.31475842       0.83015429      -0.61164839
C       -0.70433503       2.22805267      -0.20902177
O        1.38103853       0.75117222       0.47701770
C        2.07533208      -0.29782105       0.16951207
H       -0.02575845      -2.92156727       0.25341337
H        0.13855831      -1.75135725       1.65950890
H       -1.32342245      -2.28922661       1.03733470
H       -2.05775774      -0.03970775       0.27695697
H       -1.64028676      -0.64953658      -1.35493966
H        0.10446382       0.83158759      -1.62277767
H       -1.36666830       2.69146626      -0.94396594
H        0.19595458       2.84064360      -0.13489928
H       -1.22633226       2.22733894       0.74994533
H        2.88387961      -0.54650101       0.87034944
H        1.08227177      -1.42837966       0.00877943
H        2.38450241      -0.28892139      -0.88848200
18
Frame=13 idx=006293 GeodesicLength=1.451742617621184 rxn_smarts="[C:1]([C:2]([C@@:3]([C:4]([H:13])([H:14])[H:15])([O:5][C:6]([H:16])([H:17])[H:18])[H:12])([H:10])[H:11])([H:7])([H:8])[H:9]>>[C:1]([H:7])([H:8])([H:9])[H:17].[C:2](=[C:3]([C:4]([H:13])([H:14])[H:15])[H:12])([H:10])[H:11].[O:5]=[C:6]([H:16])[H:18]"
C       -0.34329180      -1.97159641       0.69760732
C       -1.27539214      -0.21915223      -0.44336131
C       -0.31600555       0.81474842      -0.59934884
C       -0.69709999       2.21869133      -0.20891131
O        1.37524347       0.72649665       0.53329791
C        2.08925601      -0.28922362       0.16443429
H       -0.01887025      -2.93522415       0.29609653
H        0.11377920      -1.70737445       1.65361663
H       -1.32339464      -2.31135307       1.05254041
H       -2.08085435      -0.03676564       0.26506701
H       -1.66965069      -0.61905589      -1.37463001
H        0.11189133       0.81290095      -1.60789306
H       -1.33184746       2.69221142      -0.96148511
H        0.21077560       2.81709459      -0.11227189
H       -1.24561589       2.22720729       0.73507434
H        2.92603947      -0.53911183       0.83061517
H        1.10594639      -1.46150364      -0.02069746
H        2.36909130      -0.21898973      -0.89975064
18
Frame=14 idx=006293 GeodesicLength=1.561518669895374 rxn_smarts="[C:1]([C:2]([C@@:3]([C:4]([H:13])([H:14])[H:15])([O:5][C:6]([H:16])([H:17])[H:18])[H:12])([H:10])[H:11])([H:7])([H:8])[H:9]>>[C:1]([H:7])([H:8])([H:9])[H:17].[C:2](=[C:3]([C:4]([H:13])([H:14])[H:15])[H:12])([H:10])[H:11].[O:5]=[C:6]([H:16])[H:18]"
C       -0.35541694      -1.97213514       0.69499198
C       -1.29668168      -0.22275449      -0.45057168
C       -0.31806251       0.79817383      -0.58765563
C       -0.68842276       2.20853441      -0.20921150
O        1.36965866       0.70007627       0.58700205
C        2.10247594      -0.27918481       0.16016439
H       -0.01072026      -2.94670523       0.33720640
H        0.08851532      -1.66626544       1.64488796
H       -1.32212945      -2.33429372       1.06781047
H       -2.10344395      -0.03313004       0.25514197
H       -1.70150924      -0.58618106      -1.39291843
H        0.11741689       0.79223378      -1.59400714
H       -1.29543070       2.69204254      -0.97808970
H        0.22689983       2.79187709      -0.09114124
H       -1.26180188       2.22746538       0.71970316
H        2.96585000      -0.52593616       0.79244851
H        1.13020519      -1.49432478      -0.04958060
H        2.35259753      -0.14949243      -0.90618097
18
Frame=15 idx=006293 GeodesicLength=1.6718214712585033 rxn_smarts="[C:1]([C:2]([C@@:3]([C:4]([H:13])([H:14])[H:15])([O:5][C:6]([H:16])([H:17])[H:18])[H:12])([H:10])[H:11])([H:7])([H:8])[H:9]>>[C:1]([H:7])([H:8])([H:9])[H:17].[C:2](=[C:3]([C:4]([H:13])([H:14])[H:15])[H:12])([H:10])[H:11].[O:5]=[C:6]([H:16])[H:18]"
C       -0.36784454      -1.97352005       0.69105287
C       -1.31916420      -0.22621408      -0.45753376
C       -0.32091531       0.78042342      -0.57651145
C       -0.67835071       2.19752411      -0.20995184
O        1.36430392       0.67201879       0.63842759
C        2.11501815      -0.26770473       0.15664038
H       -0.00143672      -2.95595525       0.37668506
H        0.06268903      -1.62788412       1.63360488
H       -1.31961488      -2.35790826       1.08319081
H       -2.12562100      -0.02880832       0.24708311
H       -1.73561336      -0.55084066      -1.40967829
H        0.12119513       0.76955144      -1.58101212
H       -1.25742800       2.69079643      -0.99396862
H        0.24428999       2.76494991      -0.07148288
H       -1.27503690       2.22810230       0.70382083
H        3.00342175      -0.50727090       0.75586331
H        1.15521200      -1.52692281      -0.07808083
H        2.33489564      -0.08033723      -0.90814905
18
Frame=16 idx=006293 GeodesicLength=1.7827761631695038 rxn_smarts="[C:1]([C:2]([C@@:3]([C:4]([H:13])([H:14])[H:15])([O:5][C:6]([H:16])([H:17])[H:18])[H:12])([H:10])[H:11])([H:7])([H:8])[H:9]>>[C:1]([H:7])([H:8])([H:9])[H:17].[C:2](=[C:3]([C:4]([H:13])([H:14])[H:15])[H:12])([H:10])[H:11].[O:5]=[C:6]([H:16])[H:18]"
C       -0.38063723      -1.97569773       0.68586653
C       -1.34288472      -0.22949022      -0.46423971
C       -0.32456805       0.76146622      -0.56585934
C       -0.66690015       2.18559363      -0.21117995
O        1.35918946       0.64237870       0.68784775
C        2.12689216      -0.25475561       0.15383519
H        0.00884593      -2.96289715       0.41434159
H        0.03626932      -1.59212212       1.62000812
H       -1.31582149      -2.38207016       1.09870533
H       -2.14747593      -0.02378461       0.24084729
H       -1.77175933      -0.51296693      -1.42474585
H        0.12334805       0.74475440      -1.56880317
H       -1.21783731       2.68829098      -1.00931202
H        0.26295667       2.73624544      -0.05333099
H       -1.28539068       2.22912584       0.68741197
H        3.03880190      -0.48329839       0.72090157
H        1.18112715      -1.55936033      -0.10637349
H        2.31584425      -0.01141198      -0.90592082
