14
Frame=0 idx=005649 GeodesicLength=0.0 rxn_smarts="[C:1](#[C:2][C:3]([C:4]1([H:10])[C:5]([H:11])([H:12])[C:6]1([H:13])[H:14])([H:8])[H:9])[H:7]>>[C:1](=[C:2]=[C:3]([C:4]1([H:10])[C:5]([H:11])([H:12])[C:6]1([H:13])[H:14])[H:9])([H:7])[H:8]"
C        2.88123211      -1.07854025      -0.44227462
C        1.86487580      -0.76841095       0.30956652
C        0.61588731      -0.26823167       0.61951391
C       -0.29215778       0.33986944      -0.35994983
C       -1.39688060       1.23685198       0.14988388
C       -1.73953895      -0.09099028      -0.42497833
H        3.67825876      -0.35078900      -0.59516952
H        1.31460805      -1.70035070       0.77475771
H        0.23498057      -0.41507410       1.62688147
H        0.17365539       0.60903801      -1.29930008
H       -1.61080842       2.12572555      -0.42775346
H       -1.47711465       1.36756783       1.22159573
H       -2.05097229      -0.87594817       0.25188585
H       -2.19602525      -0.13071765      -1.40465926
14
Frame=1 idx=005649 GeodesicLength=0.09784113675301681 rxn_smarts="[C:1](#[C:2][C:3]([C:4]1([H:10])[C:5]([H:11])([H:12])[C:6]1([H:13])[H:14])([H:8])[H:9])[H:7]>>[C:1](=[C:2]=[C:3]([C:4]1([H:10])[C:5]([H:11])([H:12])[C:6]1([H:13])[H:14])[H:9])([H:7])[H:8]"
C        2.83614701      -1.13361929      -0.44981160
C        1.87458012      -0.72775958       0.32288344
C        0.62553980      -0.23147007       0.63715738
C       -0.28313496       0.37936410      -0.34183927
C       -1.43124549       1.22224590       0.16117096
C       -1.70974343      -0.10521068      -0.45022497
H        3.67605122      -0.47474968      -0.66627423
H        1.30418580      -1.67970386       0.79456763
H        0.27940536      -0.32796089       1.66276026
H        0.19033825       0.69091644      -1.26437328
H       -1.66657582       2.11504685      -0.40207877
H       -1.54231224       1.32680701       1.23291225
H       -2.00806164      -0.91506421       0.20284835
H       -2.14517399      -0.13884205      -1.43969815
14
Frame=2 idx=005649 GeodesicLength=0.19634576880634289 rxn_smarts="[C:1](#[C:2][C:3]([C:4]1([H:10])[C:5]([H:11])([H:12])[C:6]1([H:13])[H:14])([H:8])[H:9])[H:7]>>[C:1](=[C:2]=[C:3]([C:4]1([H:10])[C:5]([H:11])([H:12])[C:6]1([H:13])[H:14])[H:9])([H:7])[H:8]"
C        2.78865145      -1.18740847      -0.45348625
C        1.88339637      -0.68872604       0.32782932
C        0.63678566      -0.19314059       0.65192969
C       -0.27543216       0.41955565      -0.32465418
C       -1.46481836       1.20469432       0.17278195
C       -1.67785647      -0.11822481      -0.47563814
H        3.66517009      -0.60355743      -0.72793636
H        1.29364335      -1.65717924       0.81714926
H        0.32981627      -0.23461813       1.69341941
H        0.20200358       0.77531787      -1.22922428
H       -1.72408963       2.10088816      -0.37451469
H       -1.60402059       1.27962239       1.24364030
H       -1.95945965      -0.95348497       0.15243328
H       -2.09378993      -0.14373870      -1.47372929
14
Frame=3 idx=005649 GeodesicLength=0.29548061583863205 rxn_smarts="[C:1](#[C:2][C:3]([C:4]1([H:10])[C:5]([H:11])([H:12])[C:6]1([H:13])[H:14])([H:8])[H:9])[H:7]>>[C:1](=[C:2]=[C:3]([C:4]1([H:10])[C:5]([H:11])([H:12])[C:6]1([H:13])[H:14])[H:9])([H:7])[H:8]"
C        2.73808155      -1.23806557      -0.45459886
C        1.89159739      -0.65066900       0.32617198
C        0.64900309      -0.15432001       0.66437826
C       -0.26911647       0.45937638      -0.30833588
C       -1.49681427       1.18422896       0.18454374
C       -1.64447760      -0.12971391      -0.50111873
H        3.64586730      -0.73518723      -0.77956570
H        1.28346994      -1.63336065       0.84191557
H        0.38512244      -0.13684276       1.71818726
H        0.20876601       0.86005609      -1.19390974
H       -1.78163156       2.08316067      -0.34546955
H       -1.66082339       1.22660285       1.25360438
H       -1.90642348      -0.99023952       0.10086660
H       -2.04262096      -0.14502629      -1.50666933
14
Frame=4 idx=005649 GeodesicLength=0.39520218308061417 rxn_smarts="[C:1](#[C:2][C:3]([C:4]1([H:10])[C:5]([H:11])([H:12])[C:6]1([H:13])[H:14])([H:8])[H:9])[H:7]>>[C:1](=[C:2]=[C:3]([C:4]1([H:10])[C:5]([H:11])([H:12])[C:6]1([H:13])[H:14])[H:9])([H:7])[H:8]"
C        2.68730632      -1.28588630      -0.45027024
C        1.89899801      -0.61380098       0.31832103
C        0.66182809      -0.11575458       0.67421308
C       -0.26435046       0.49802556      -0.29333001
C       -1.52662666       1.16105360       0.19650096
C       -1.61052088      -0.13933168      -0.52653373
H        3.61836590      -0.86675630      -0.82174831
H        1.27329302      -1.60896141       0.86773281
H        0.44463528      -0.03604603       1.73576494
H        0.21035136       0.94374899      -1.15905862
H       -1.83829197       2.06204809      -0.31474923
H       -1.71141834       1.16837785       1.26293013
H       -1.85025825      -1.02452529       0.04838891
H       -1.99331141      -0.14219153      -1.53816171
14
Frame=5 idx=005649 GeodesicLength=0.49550431311549686 rxn_smarts="[C:1](#[C:2][C:3]([C:4]1([H:10])[C:5]([H:11])([H:12])[C:6]1([H:13])[H:14])([H:8])[H:9])[H:7]>>[C:1](=[C:2]=[C:3]([C:4]1([H:10])[C:5]([H:11])([H:12])[C:6]1([H:13])[H:14])[H:9])([H:7])[H:8]"
C        2.63562501      -1.33058466      -0.44173835
C        1.90551347      -0.57810458       0.30489333
C        0.67536392      -0.07718917       0.68184002
C       -0.26091386       0.53551351      -0.27945318
C       -1.55414806       1.13519285       0.20870946
C       -1.57603053      -0.14707246      -0.55193716
H        3.58317853      -0.99793654      -0.85413585
H        1.26296037      -1.58386114       0.89472058
H        0.50764857       0.06683415       1.74564693
H        0.20713607       1.02618037      -1.12441640
H       -1.89385305       2.03740358      -0.28231890
H       -1.75557250       1.10526224       1.27168680
H       -1.79103917      -1.05617375      -0.00516995
H       -1.94586878      -0.13546440      -1.56832733
14
Frame=6 idx=005649 GeodesicLength=0.5966287704087572 rxn_smarts="[C:1](#[C:2][C:3]([C:4]1([H:10])[C:5]([H:11])([H:12])[C:6]1([H:13])[H:14])([H:8])[H:9])[H:7]>>[C:1](=[C:2]=[C:3]([C:4]1([H:10])[C:5]([H:11])([H:12])[C:6]1([H:13])[H:14])[H:9])([H:7])[H:8]"
C        2.58252198      -1.37261077      -0.42930902
C        1.91093634      -0.54368002       0.28601958
C        0.68988952      -0.03801959       0.68735165
C       -0.25861822       0.57224539      -0.26656726
C       -1.57945313       1.10641538       0.22136858
C       -1.54080888      -0.15289566      -0.57760781
H        3.54027744      -1.12927490      -0.87671402
H        1.25224091      -1.55750897       0.92339909
H        0.57398496       0.17169148       1.74728058
H        0.19926912       1.10792742      -1.08961885
H       -1.94873110       2.00881267      -0.24766676
H       -1.79324081       1.03690588       1.28004399
H       -1.72817812      -1.08521512      -0.06050952
H       -1.90009001      -0.12479319      -1.59747022
14
Frame=7 idx=005649 GeodesicLength=0.6984945504673321 rxn_smarts="[C:1](#[C:2][C:3]([C:4]1([H:10])[C:5]([H:11])([H:12])[C:6]1([H:13])[H:14])([H:8])[H:9])[H:7]>>[C:1](=[C:2]=[C:3]([C:4]1([H:10])[C:5]([H:11])([H:12])[C:6]1([H:13])[H:14])[H:9])([H:7])[H:8]"
C        2.53068373      -1.41192775      -0.41113866
C        1.91502694      -0.51086538       0.26125622
C        0.70533389       0.00132673       0.68995071
C       -0.25765698       0.60776324      -0.25519986
C       -1.60209117       1.07518841       0.23459004
C       -1.50594332      -0.15649111      -0.60321383
H        3.49172353      -1.25886709      -0.88821875
H        1.24061698      -1.53039520       0.95219822
H        0.64260819       0.27613281       1.73966007
H        0.18632769       1.18799693      -1.05547270
H       -2.00228533       1.97661121      -0.21054567
H       -1.82339445       0.96438139       1.28817643
H       -1.66300556      -1.11085004      -0.11709198
H       -1.85794414      -0.11000414      -1.62495024
14
Frame=8 idx=005649 GeodesicLength=0.8010642823523855 rxn_smarts="[C:1](#[C:2][C:3]([C:4]1([H:10])[C:5]([H:11])([H:12])[C:6]1([H:13])[H:14])([H:8])[H:9])[H:7]>>[C:1](=[C:2]=[C:3]([C:4]1([H:10])[C:5]([H:11])([H:12])[C:6]1([H:13])[H:14])[H:9])([H:7])[H:8]"
C        2.47906788      -1.44675291      -0.39049554
C        1.91775274      -0.47957688       0.23076662
C        0.72142005       0.04007390       0.68962656
C       -0.25806940       0.64168819      -0.24520911
C       -1.62187848       1.04190455       0.24843881
C       -1.47220222      -0.15783848      -0.62843528
H        3.44048591      -1.38629675      -0.88508380
H        1.22823223      -1.50322297       0.97973640
H        0.71322135       0.37898330       1.72261395
H        0.16856592       1.26521142      -1.02213078
H       -2.05370772       1.94112587      -0.17104779
H       -1.84581672       0.88876331       1.29614198
H       -1.59681571      -1.13264622      -0.17449078
H       -1.82025582      -0.09141635      -1.65043123
14
Frame=9 idx=005649 GeodesicLength=0.9041934191798995 rxn_smarts="[C:1](#[C:2][C:3]([C:4]1([H:10])[C:5]([H:11])([H:12])[C:6]1([H:13])[H:14])([H:8])[H:9])[H:7]>>[C:1](=[C:2]=[C:3]([C:4]1([H:10])[C:5]([H:11])([H:12])[C:6]1([H:13])[H:14])[H:9])([H:7])[H:8]"
C        2.43101166      -1.47848371      -0.36303731
C        1.91865952      -0.45087071       0.19507217
C        0.73811057       0.07782970       0.68630389
C       -0.25956496       0.67377570      -0.23670749
C       -1.63851150       1.00684979       0.26281633
C       -1.43997314      -0.15682455      -0.65351660
H        3.38553478      -1.50843806      -0.87147984
H        1.21388983      -1.47642852       1.00658441
H        0.78517279       0.47929358       1.69597012
H        0.14661443       1.33924606      -0.98952356
H       -2.10238803       1.90266309      -0.12904065
H       -1.86050595       0.81056414       1.30371767
H       -1.53044865      -1.15029204      -0.23311914
H       -1.78760136      -0.06888448      -1.67404000
14
Frame=10 idx=005649 GeodesicLength=1.008139033684467 rxn_smarts="[C:1](#[C:2][C:3]([C:4]1([H:10])[C:5]([H:11])([H:12])[C:6]1([H:13])[H:14])([H:8])[H:9])[H:7]>>[C:1](=[C:2]=[C:3]([C:4]1([H:10])[C:5]([H:11])([H:12])[C:6]1([H:13])[H:14])[H:9])([H:7])[H:8]"
C        2.38388358      -1.50652949      -0.33086399
C        1.91772110      -0.42483583       0.15533313
C        0.75579169       0.11520077       0.68084964
C       -0.26159790       0.70457449      -0.22889204
C       -1.65205205       0.96978894       0.27746533
C       -1.40829482      -0.15372277      -0.67860028
H        3.32490752      -1.62566177      -0.84918352
H        1.19742956      -1.44940330       1.03411470
H        0.85818793       0.57698600       1.66066501
H        0.12144432       1.41056328      -0.95660972
H       -2.14845251       1.86057004      -0.08513121
H       -1.86813959       0.72965362       1.31039292
H       -1.46274436      -1.16395264      -0.29334565
H       -1.75808447      -0.04323134      -1.69619432
14
Frame=11 idx=005649 GeodesicLength=1.1128806921740708 rxn_smarts="[C:1](#[C:2][C:3]([C:4]1([H:10])[C:5]([H:11])([H:12])[C:6]1([H:13])[H:14])([H:8])[H:9])[H:7]>>[C:1](=[C:2]=[C:3]([C:4]1([H:10])[C:5]([H:11])([H:12])[C:6]1([H:13])[H:14])[H:9])([H:7])[H:8]"
C        2.34033045      -1.53131919      -0.29132835
C        1.91429652      -0.40235042       0.11078349
C        0.77448401       0.15189376       0.67241581
C       -0.26431326       0.73403944      -0.22202936
C       -1.66243444       0.93082982       0.29262129
C       -1.37794097      -0.14821298      -0.70388706
H        3.26020688      -1.73736826      -0.81821090
H        1.17791671      -1.42216691       1.06208200
H        0.93236063       0.67144608       1.61581383
H        0.09287834       1.47924791      -0.92341435
H       -2.19174608       1.81499911      -0.03844956
H       -1.86848852       0.64595405       1.31619914
H       -1.39457333      -1.17318792      -0.35581686
H       -1.73297693      -0.01380450      -1.71677913
14
Frame=12 idx=005649 GeodesicLength=1.2179560260399387 rxn_smarts="[C:1](#[C:2][C:3]([C:4]1([H:10])[C:5]([H:11])([H:12])[C:6]1([H:13])[H:14])([H:8])[H:9])[H:7]>>[C:1](=[C:2]=[C:3]([C:4]1([H:10])[C:5]([H:11])([H:12])[C:6]1([H:13])[H:14])[H:9])([H:7])[H:8]"
C        2.30079693      -1.55090725      -0.24723912
C        1.90827982      -0.38348005       0.06120565
C        0.79392572       0.18682730       0.66074705
C       -0.26777209       0.76173753      -0.21596400
C       -1.66960232       0.89084977       0.30824809
C       -1.34994387      -0.14030522      -0.72876256
H        3.19544057      -1.84256250      -0.77509222
H        1.15498147      -1.39605961       1.08819038
H        1.00694573       0.76033604       1.56174129
H        0.06142827       1.54414010      -0.89012932
H       -2.23133459       1.76692747       0.01055216
H       -1.86176332       0.56121504       1.32105228
H       -1.32811550      -1.17756311      -0.41943917
H       -1.71326682       0.01884448      -1.73511052
14
Frame=13 idx=005649 GeodesicLength=1.3231961212391856 rxn_smarts="[C:1](#[C:2][C:3]([C:4]1([H:10])[C:5]([H:11])([H:12])[C:6]1([H:13])[H:14])([H:8])[H:9])[H:7]>>[C:1](=[C:2]=[C:3]([C:4]1([H:10])[C:5]([H:11])([H:12])[C:6]1([H:13])[H:14])[H:9])([H:7])[H:8]"
C        2.26861353      -1.56525868      -0.19585595
C        1.89856821      -0.36971707       0.00542366
C        0.81400219       0.21920506       0.64489050
C       -0.27211643       0.78747038      -0.21095331
C       -1.67359032       0.85007338       0.32469827
C       -1.32547423      -0.12954647      -0.75352312
H        3.13340347      -1.94039132      -0.71865199
H        1.12723828      -1.37174417       1.11177193
H        1.08246216       0.84327265       1.49690948
H        0.02719361       1.60529278      -0.85654695
H       -2.26691473       1.71688665       0.06315584
H       -1.84790821       0.47533706       1.32499201
H       -1.26491811      -1.17668632      -0.48527817
H       -1.70055941       0.05580606      -1.75103220
14
Frame=14 idx=005649 GeodesicLength=1.4283946720154082 rxn_smarts="[C:1](#[C:2][C:3]([C:4]1([H:10])[C:5]([H:11])([H:12])[C:6]1([H:13])[H:14])([H:8])[H:9])[H:7]>>[C:1](=[C:2]=[C:3]([C:4]1([H:10])[C:5]([H:11])([H:12])[C:6]1([H:13])[H:14])[H:9])([H:7])[H:8]"
C        2.24367544      -1.57223917      -0.13791937
C        1.88531372      -0.36116095      -0.05451001
C        0.83466937       0.24858668       0.62609552
C       -0.27670495       0.81099544      -0.20625356
C       -1.67441108       0.80889599       0.34128561
C       -1.30396532      -0.11654235      -0.77775399
H        3.07147921      -2.02955871      -0.65298408
H        1.09456166      -1.34982110       1.13329075
H        1.15774966       0.91939344       1.42275228
H       -0.00818043       1.66194278      -0.82205019
H       -2.29790137       1.66512485       0.11757815
H       -1.82797163       0.38965615       1.32724225
H       -1.20522001      -1.17087561      -0.55229139
H       -1.69309426       0.09560257      -1.76448197
14
Frame=15 idx=005649 GeodesicLength=1.5333633985945099 rxn_smarts="[C:1](#[C:2][C:3]([C:4]1([H:10])[C:5]([H:11])([H:12])[C:6]1([H:13])[H:14])([H:8])[H:9])[H:7]>>[C:1](=[C:2]=[C:3]([C:4]1([H:10])[C:5]([H:11])([H:12])[C:6]1([H:13])[H:14])[H:9])([H:7])[H:8]"
C        2.22890060      -1.56906222      -0.07284826
C        1.86831617      -0.35814697      -0.11810229
C        0.85573797       0.27409897       0.60466928
C       -0.28128072       0.83192698      -0.20158650
C       -1.67230326       0.76797435       0.35769755
C       -1.28572594      -0.10158069      -0.80110832
H        3.00896867      -2.10966215      -0.57960845
H        1.05703702      -1.33156597       1.15158933
H        1.23163941       0.98719981       1.34017218
H       -0.04351404       1.71345996      -0.78642403
H       -2.32377199       1.61263034       0.17289203
H       -1.80305890       0.30547157       1.32749384
H       -1.15052283      -1.16038098      -0.61954617
H       -1.69042217       0.13763697      -1.77529019
14
Frame=16 idx=005649 GeodesicLength=1.6377653275952713 rxn_smarts="[C:1](#[C:2][C:3]([C:4]1([H:10])[C:5]([H:11])([H:12])[C:6]1([H:13])[H:14])([H:8])[H:9])[H:7]>>[C:1](=[C:2]=[C:3]([C:4]1([H:10])[C:5]([H:11])([H:12])[C:6]1([H:13])[H:14])[H:9])([H:7])[H:8]"
C        2.22387167      -1.55429030      -0.00649297
C        1.84718538      -0.36185559      -0.18622117
C        0.87663586       0.29351597       0.57987333
C       -0.28582694       0.84950592      -0.19729010
C       -1.66754264       0.72891220       0.37425441
C       -1.27263037      -0.08441583      -0.82299563
H        2.95488224      -2.17717328      -0.48942815
H        1.01490686      -1.32086505       1.16206413
H        1.30303365       1.04367315       1.24939126
H       -0.07744202       1.75870475      -0.75035785
H       -2.34334934       1.56223850       0.22952967
H       -1.77417699       0.22499555       1.32623540
H       -1.10484031      -1.14531569      -0.68604604
H       -1.69470704       0.18236969      -1.78251633
