8
Frame=0 idx=003772 GeodesicLength=0.0 rxn_smarts="[n:1]1([H:6])[c:2]([H:7])[n:3][c:4]([H:8])[n:5]1>>[n:1]1([H:6])[c-:2][n+:3]([H:7])[c:4]([H:8])[n:5]1"
N       -0.78531579       0.79097656       0.01548699
C       -1.05770923      -0.51247195       0.19324134
N        0.19293017      -1.11037864       0.23674163
C        1.09858895      -0.08163399       0.07526106
N        0.53287802       1.08218150       0.01350939
H       -1.45045199       1.54143572      -0.04799442
H       -0.69862222      -1.48964943      -0.55599744
H        2.16770210      -0.22045974       0.06975145
8
Frame=1 idx=003772 GeodesicLength=0.03859582165061302 rxn_smarts="[n:1]1([H:6])[c:2]([H:7])[n:3][c:4]([H:8])[n:5]1>>[n:1]1([H:6])[c-:2][n+:3]([H:7])[c:4]([H:8])[n:5]1"
N       -0.78314768       0.79547209       0.01780696
C       -1.05421050      -0.50926460       0.18057113
N        0.19375187      -1.10541009       0.22311169
C        1.10006367      -0.07752315       0.07578708
N        0.53517773       1.08740081       0.02073126
H       -1.44901927       1.54519662      -0.04547339
H       -0.71167282      -1.51850022      -0.54514266
H        2.16905700      -0.21737145       0.07260794
8
Frame=2 idx=003772 GeodesicLength=0.07716253223115038 rxn_smarts="[n:1]1([H:6])[c:2]([H:7])[n:3][c:4]([H:8])[n:5]1>>[n:1]1([H:6])[c-:2][n+:3]([H:7])[c:4]([H:8])[n:5]1"
N       -0.78090484       0.80011556       0.02111045
C       -1.05050900      -0.50599428       0.16682005
N        0.19480753      -1.10042381       0.20720155
C        1.10166507      -0.07327448       0.07568659
N        0.53753711       1.09274192       0.02866770
H       -1.44752358       1.54895925      -0.04351471
H       -0.72562547      -1.54812037      -0.53219773
H        2.17055318      -0.21400379       0.07622610
8
Frame=3 idx=003772 GeodesicLength=0.11567378157088887 rxn_smarts="[n:1]1([H:6])[c:2]([H:7])[n:3][c:4]([H:8])[n:5]1>>[n:1]1([H:6])[c-:2][n+:3]([H:7])[c:4]([H:8])[n:5]1"
N       -0.77866691       0.80498391       0.02320981
C       -1.04701142      -0.50246991       0.14946120
N        0.19560962      -1.09510403       0.19061847
C        1.10318822      -0.06883634       0.07714169
N        0.53989277       1.09818633       0.03655621
H       -1.44590442       1.55335353      -0.03939817
H       -0.73901847      -1.57930533      -0.51665661
H        2.17191061      -0.21080816       0.07906739
8
Frame=4 idx=003772 GeodesicLength=0.1541252818792129 rxn_smarts="[n:1]1([H:6])[c:2]([H:7])[n:3][c:4]([H:8])[n:5]1>>[n:1]1([H:6])[c-:2][n+:3]([H:7])[c:4]([H:8])[n:5]1"
N       -0.77635372       0.80994428       0.02721972
C       -1.04311054      -0.49888373       0.13090238
N        0.19686965      -1.08980824       0.17015025
C        1.10491852      -0.06425382       0.07754757
N        0.54231482       1.10371039       0.04477290
H       -1.44425139       1.55756453      -0.03615312
H       -0.75389138      -1.61110849      -0.49812928
H        2.17350404      -0.20716494       0.08368959
8
Frame=5 idx=003772 GeodesicLength=0.19255592053148618 rxn_smarts="[n:1]1([H:6])[c:2]([H:7])[n:3][c:4]([H:8])[n:5]1>>[n:1]1([H:6])[c-:2][n+:3]([H:7])[c:4]([H:8])[n:5]1"
N       -0.77407653       0.81519388       0.03141938
C       -1.03936253      -0.49491716       0.10713522
N        0.19787789      -1.08409760       0.14822337
C        1.10651037      -0.05950001       0.08056639
N        0.54470889       1.10935843       0.05408019
H       -1.44242762       1.56231768      -0.03197122
H       -0.76814154      -1.64456638      -0.47566533
H        2.17491108      -0.20378884       0.08621200
8
Frame=6 idx=003772 GeodesicLength=0.23100188413380424 rxn_smarts="[n:1]1([H:6])[c:2]([H:7])[n:3][c:4]([H:8])[n:5]1>>[n:1]1([H:6])[c-:2][n+:3]([H:7])[c:4]([H:8])[n:5]1"
N       -0.77182511       0.82061376       0.03612782
C       -1.03544399      -0.49045503       0.07735847
N        0.19892980      -1.07801734       0.12305777
C        1.10802268      -0.05463419       0.08623658
N        0.54707131       1.11509280       0.06497538
H       -1.44043809       1.56744807      -0.02709085
H       -0.78255687      -1.67966005      -0.44770069
H        2.17624026      -0.20038802       0.08703552
8
Frame=7 idx=003772 GeodesicLength=0.2692633508340462 rxn_smarts="[n:1]1([H:6])[c:2]([H:7])[n:3][c:4]([H:8])[n:5]1>>[n:1]1([H:6])[c-:2][n+:3]([H:7])[c:4]([H:8])[n:5]1"
N       -0.76941154       0.82600648       0.03802814
C       -1.03079690      -0.48528453       0.03958729
N        0.20051371      -1.07148618       0.09099377
C        1.10959383      -0.04976216       0.09190919
N        0.54952512       1.12085256       0.07449656
H       -1.43866811       1.57290560      -0.01611031
H       -0.79846317      -1.71669749      -0.41062969
H        2.17770706      -0.19653427       0.09172505
8
Frame=8 idx=003772 GeodesicLength=0.3068112948013703 rxn_smarts="[n:1]1([H:6])[c:2]([H:7])[n:3][c:4]([H:8])[n:5]1>>[n:1]1([H:6])[c-:2][n+:3]([H:7])[c:4]([H:8])[n:5]1"
N       -0.76678648       0.83141705       0.03437197
C       -1.02512610      -0.47885182      -0.01365122
N        0.20275843      -1.06395993       0.04875938
C        1.11126622      -0.04482421       0.08989927
N        0.55203242       1.12671928       0.08265299
H       -1.43752999       1.57849289       0.00740354
H       -0.81577355      -1.75616354      -0.35658830
H        2.17915905      -0.19282972       0.10715237
8
Frame=9 idx=003772 GeodesicLength=0.3416103232248897 rxn_smarts="[n:1]1([H:6])[c:2]([H:7])[n:3][c:4]([H:8])[n:5]1>>[n:1]1([H:6])[c-:2][n+:3]([H:7])[c:4]([H:8])[n:5]1"
N       -0.76417593       0.83567112       0.02769286
C       -1.01745747      -0.47128820      -0.07987723
N        0.20709075      -1.05555566      -0.01406712
C        1.11338355      -0.04012037       0.08101234
N        0.55407990       1.13170210       0.09271950
H       -1.43761073       1.58046569       0.03840534
H       -0.83501654      -1.79065719      -0.27993721
H        2.17970648      -0.19021750       0.13405153
8
Frame=10 idx=003772 GeodesicLength=0.3727549533516123 rxn_smarts="[n:1]1([H:6])[c:2]([H:7])[n:3][c:4]([H:8])[n:5]1>>[n:1]1([H:6])[c-:2][n+:3]([H:7])[c:4]([H:8])[n:5]1"
N       -0.76256219       0.83738525       0.01946399
C       -1.00913074      -0.46355035      -0.15405225
N        0.21214722      -1.04699381      -0.08795919
C        1.11463522      -0.03755663       0.07154951
N        0.55493148       1.13425249       0.10477361
H       -1.43945406       1.57727995       0.07183522
H       -0.84840261      -1.80937974      -0.18911986
H        2.17783568      -0.19143716       0.16350897
8
Frame=11 idx=003772 GeodesicLength=0.406177689220179 rxn_smarts="[n:1]1([H:6])[c:2]([H:7])[n:3][c:4]([H:8])[n:5]1>>[n:1]1([H:6])[c-:2][n+:3]([H:7])[c:4]([H:8])[n:5]1"
N       -0.76213198       0.83616724       0.01222058
C       -1.00080148      -0.45625219      -0.22497240
N        0.21661909      -1.03935455      -0.15588515
C        1.11443608      -0.03795680       0.06419126
N        0.55434389       1.13360379       0.11690284
H       -1.44296898       1.56877053       0.10149188
H       -0.85321725      -1.80856955      -0.10206108
H        2.17372063      -0.19640848       0.18811207
8
Frame=12 idx=003772 GeodesicLength=0.4419404696826332 rxn_smarts="[n:1]1([H:6])[c:2]([H:7])[n:3][c:4]([H:8])[n:5]1>>[n:1]1([H:6])[c-:2][n+:3]([H:7])[c:4]([H:8])[n:5]1"
N       -0.76243820       0.83362884       0.00578233
C       -0.99387687      -0.45045765      -0.28006499
N        0.21979343      -1.03266625      -0.20990311
C        1.11303602      -0.03984243       0.05934923
N        0.55334162       1.13183018       0.12220469
H       -1.44665713       1.55819399       0.12693900
H       -0.85121645      -1.79695005      -0.03336561
H        2.16801759      -0.20373662       0.20905847
8
Frame=13 idx=003772 GeodesicLength=0.4787601237205653 rxn_smarts="[n:1]1([H:6])[c:2]([H:7])[n:3][c:4]([H:8])[n:5]1>>[n:1]1([H:6])[c-:2][n+:3]([H:7])[c:4]([H:8])[n:5]1"
N       -0.76307465       0.83030488       0.00253439
C       -0.98690288      -0.44544073      -0.32531767
N        0.22210006      -1.02792574      -0.24606368
C        1.11084166      -0.04294716       0.06254081
N        0.55231081       1.12986687       0.12646233
H       -1.45039208       1.54793795       0.14454875
H       -0.84947106      -1.78252563       0.01734337
H        2.16458813      -0.20927043       0.21795171
8
Frame=14 idx=003772 GeodesicLength=0.515733901463178 rxn_smarts="[n:1]1([H:6])[c:2]([H:7])[n:3][c:4]([H:8])[n:5]1>>[n:1]1([H:6])[c-:2][n+:3]([H:7])[c:4]([H:8])[n:5]1"
N       -0.76394308       0.82666966       0.00173472
C       -0.98087904      -0.44116455      -0.36110374
N        0.22389450      -1.02347632      -0.27660066
C        1.10858960      -0.04611200       0.06495455
N        0.55127876       1.12786813       0.13016347
H       -1.45375791       1.53898844       0.15702209
H       -0.84641554      -1.76802498       0.05870829
H        2.16123271      -0.21474838       0.22512127
8
Frame=15 idx=003772 GeodesicLength=0.5527510038828534 rxn_smarts="[n:1]1([H:6])[c:2]([H:7])[n:3][c:4]([H:8])[n:5]1>>[n:1]1([H:6])[c-:2][n+:3]([H:7])[c:4]([H:8])[n:5]1"
N       -0.76472196       0.82303157       0.00033252
C       -0.97463411      -0.43712656      -0.39347190
N        0.22549633      -1.01973454      -0.30133756
C        1.10631976      -0.04940506       0.06814473
N        0.55027179       1.12581749       0.13378874
H       -1.45713678       1.52977768       0.16829661
H       -0.84409818      -1.75288016       0.09453858
H        2.15850315      -0.21948042       0.22970829
8
Frame=16 idx=003772 GeodesicLength=0.5898153989370769 rxn_smarts="[n:1]1([H:6])[c:2]([H:7])[n:3][c:4]([H:8])[n:5]1>>[n:1]1([H:6])[c-:2][n+:3]([H:7])[c:4]([H:8])[n:5]1"
N       -0.76556450       0.81941203      -0.00054616
C       -0.96904998      -0.43341663      -0.42147801
N        0.22683003      -1.01591665      -0.32468799
C        1.10416007      -0.05249735       0.06946018
N        0.54931490       1.12387995       0.13644662
H       -1.46028924       1.52103272       0.17837878
H       -0.84069019      -1.73785279       0.12689761
H        2.15528891      -0.22464127       0.23552896
