13
Frame=0 idx=006411 GeodesicLength=0.0 rxn_smarts="[O:1]=[C:2]([C:3]1([C:6](=[O:7])[H:13])[C:4]([H:9])([H:10])[C:5]1([H:11])[H:12])[H:8]>>[O:1]=[C:2]([C@:3]12[C@:4]([H:9])([C:5]1([H:11])[H:12])[O:7][C:6]2([H:10])[H:13])[H:8]"
O        2.04596828      -1.45857499      -0.68271482
C        1.60735312      -0.34293147      -0.57383096
C        0.19022480      -0.05586796      -0.27699909
C       -1.14599651      -1.15811235       1.38807160
C       -0.77752407      -1.10881719      -0.03501523
C       -0.21597079       1.32299527      -0.10730342
O       -1.40350415       1.64836908       0.22292978
H        2.24921185       0.54887130      -0.70940388
H       -1.02310994      -0.14793543       1.81983146
H        0.60558039       1.56847460       0.67461967
H       -1.78616269      -0.65103382      -0.25784199
H       -0.65036352      -2.06505519      -0.53323674
H        0.30429319       1.89961820      -0.92910638
13
Frame=1 idx=006411 GeodesicLength=0.17632638145976762 rxn_smarts="[O:1]=[C:2]([C:3]1([C:6](=[O:7])[H:13])[C:4]([H:9])([H:10])[C:5]1([H:11])[H:12])[H:8]>>[O:1]=[C:2]([C@:3]12[C@:4]([H:9])([C:5]1([H:11])[H:12])[O:7][C:6]2([H:10])[H:13])[H:8]"
O        2.03804265      -1.46505744      -0.71860130
C        1.60309745      -0.35026460      -0.58810213
C        0.18666741      -0.05960469      -0.29034137
C       -1.03999335      -1.09589727       1.38715773
C       -0.78650308      -1.11173164      -0.05648289
C       -0.21453036       1.32295242      -0.11096514
O       -1.41711805       1.62294450       0.19698640
H        2.25334641       0.53850873      -0.70457694
H       -1.08380719      -0.08613801       1.82173035
H        0.58273303       1.51509490       0.74491233
H       -1.80177128      -0.67021786      -0.25908327
H       -0.64011151      -2.08206178      -0.51908173
H        0.31994786       1.92147274      -0.90355203
13
Frame=2 idx=006411 GeodesicLength=0.35315946702237266 rxn_smarts="[O:1]=[C:2]([C:3]1([C:6](=[O:7])[H:13])[C:4]([H:9])([H:10])[C:5]1([H:11])[H:12])[H:8]>>[O:1]=[C:2]([C@:3]12[C@:4]([H:9])([C:5]1([H:11])[H:12])[O:7][C:6]2([H:10])[H:13])[H:8]"
O        2.03236558      -1.47098012      -0.74242303
C        1.59876501      -0.35646361      -0.60501173
C        0.18366400      -0.06164497      -0.30399029
C       -0.94731679      -1.02581687       1.37863834
C       -0.79412540      -1.11350413      -0.07306248
C       -0.21061206       1.32482789      -0.11137820
O       -1.42578140       1.59987939       0.18013842
H        2.25586398       0.52893554      -0.71089686
H       -1.14505434      -0.04359931       1.82260117
H        0.56425162       1.46130802       0.80969488
H       -1.81388260      -0.68821965      -0.26547120
H       -0.62789329      -2.09716769      -0.49764133
H        0.32975571       1.94244549      -0.88119769
13
Frame=3 idx=006411 GeodesicLength=0.530547375630549 rxn_smarts="[O:1]=[C:2]([C:3]1([C:6](=[O:7])[H:13])[C:4]([H:9])([H:10])[C:5]1([H:11])[H:12])[H:8]>>[O:1]=[C:2]([C@:3]12[C@:4]([H:9])([C:5]1([H:11])[H:12])[O:7][C:6]2([H:10])[H:13])[H:8]"
O        2.02944989      -1.47693552      -0.74941358
C        1.59404353      -0.36176478      -0.62332315
C        0.18092589      -0.06189305      -0.31713227
C       -0.86942074      -0.95254518       1.36307639
C       -0.80128887      -1.11379445      -0.08653268
C       -0.20501854       1.32868839      -0.10936718
O       -1.43032853       1.57918174       0.17301699
H        2.25631355       0.52027445      -0.72791025
H       -1.19982916      -0.01893152       1.82379677
H        0.55102609       1.40867291       0.86839581
H       -1.82358875      -0.70404089      -0.27777608
H       -0.61526167      -2.10908309      -0.47268292
H        0.33297730       1.96217099      -0.86414785
13
Frame=4 idx=006411 GeodesicLength=0.7084063073060116 rxn_smarts="[O:1]=[C:2]([C:3]1([C:6](=[O:7])[H:13])[C:4]([H:9])([H:10])[C:5]1([H:11])[H:12])[H:8]>>[O:1]=[C:2]([C@:3]12[C@:4]([H:9])([C:5]1([H:11])[H:12])[O:7][C:6]2([H:10])[H:13])[H:8]"
O        2.02829984      -1.48284992      -0.74418350
C        1.58945636      -0.36665074      -0.63996783
C        0.17871993      -0.06062317      -0.32820529
C       -0.80538690      -0.87942790       1.34251945
C       -0.80805738      -1.11282760      -0.09748583
C       -0.19817893       1.33437901      -0.10574317
O       -1.43178013       1.56071130       0.17349272
H        2.25491099       0.51225234      -0.75331720
H       -1.24686770      -0.00822261       1.82552076
H        0.54241496       1.35851103       0.92209542
H       -1.83114754      -0.71777905      -0.29567468
H       -0.60287859      -2.11777932      -0.44601958
H        0.33049509       1.98030665      -0.85303125
13
Frame=5 idx=006411 GeodesicLength=0.8866576523402782 rxn_smarts="[O:1]=[C:2]([C:3]1([C:6](=[O:7])[H:13])[C:4]([H:9])([H:10])[C:5]1([H:11])[H:12])[H:8]>>[O:1]=[C:2]([C@:3]12[C@:4]([H:9])([C:5]1([H:11])[H:12])[O:7][C:6]2([H:10])[H:13])[H:8]"
O        2.02833832      -1.48813757      -0.72706297
C        1.58499197      -0.37135834      -0.65329919
C        0.17672643      -0.05807620      -0.33742329
C       -0.75337837      -0.80914964       1.31737115
C       -0.81553493      -1.11024405      -0.10762990
C       -0.19106062       1.34146363      -0.10208917
O       -1.43104018       1.54359468       0.18050496
H        2.25241795       0.50435529      -0.78136431
H       -1.28049462      -0.00882167       1.82985342
H        0.53778748       1.31177503       0.97017368
H       -1.83776907      -0.72897862      -0.31836945
H       -0.59254158      -2.12249382      -0.42101255
H        0.32155723       1.99607128      -0.84965238
13
Frame=6 idx=006411 GeodesicLength=1.0651877508813885 rxn_smarts="[O:1]=[C:2]([C:3]1([C:6](=[O:7])[H:13])[C:4]([H:9])([H:10])[C:5]1([H:11])[H:12])[H:8]>>[O:1]=[C:2]([C@:3]12[C@:4]([H:9])([C:5]1([H:11])[H:12])[O:7][C:6]2([H:10])[H:13])[H:8]"
O        2.02880626      -1.49283141      -0.70358571
C        1.58088175      -0.37615473      -0.66342209
C        0.17526966      -0.05448404      -0.34417531
C       -0.71080403      -0.74215451       1.29004798
C       -0.82303109      -1.10657078      -0.11650023
C       -0.18352436       1.34994059      -0.09823680
O       -1.42862056       1.52813140       0.19158043
H        2.24896173       0.49609202      -0.81225611
H       -1.30599984      -0.01749430       1.83494494
H        0.53637791       1.26812924       1.01493378
H       -1.84288575      -0.73836519      -0.34504727
H       -0.58342206      -2.12448193      -0.39646994
H        0.30799038       2.01024365      -0.85181365
13
Frame=7 idx=006411 GeodesicLength=1.243989540252088 rxn_smarts="[O:1]=[C:2]([C:3]1([C:6](=[O:7])[H:13])[C:4]([H:9])([H:10])[C:5]1([H:11])[H:12])[H:8]>>[O:1]=[C:2]([C@:3]12[C@:4]([H:9])([C:5]1([H:11])[H:12])[O:7][C:6]2([H:10])[H:13])[H:8]"
O        2.02963719      -1.49650591      -0.67358045
C        1.57678723      -0.38109221      -0.67115278
C        0.17407423      -0.04998301      -0.34908554
C       -0.67583481      -0.67880246       1.26111684
C       -0.83088445      -1.10180031      -0.12468956
C       -0.17589467       1.35958113      -0.09461862
O       -1.42492466       1.51403766       0.20564554
H        2.24458897       0.48710234      -0.84467714
H       -1.32280379      -0.03253763       1.84081605
H        0.53765741       1.22691414       1.05688448
H       -1.84682064      -0.74606810      -0.37515429
H       -0.57587123      -2.12391894      -0.37299652
H        0.29028922       2.02307329      -0.85850801
13
Frame=8 idx=006411 GeodesicLength=1.4229819556362555 rxn_smarts="[O:1]=[C:2]([C:3]1([C:6](=[O:7])[H:13])[C:4]([H:9])([H:10])[C:5]1([H:11])[H:12])[H:8]>>[O:1]=[C:2]([C@:3]12[C@:4]([H:9])([C:5]1([H:11])[H:12])[O:7][C:6]2([H:10])[H:13])[H:8]"
O        2.03040461      -1.49908919      -0.63908476
C        1.57275531      -0.38623431      -0.67641645
C        0.17304649      -0.04472898      -0.35252504
C       -0.64689621      -0.61895274       1.23126071
C       -0.83913460      -1.09604302      -0.13235127
C       -0.16849322       1.37022284      -0.09163563
O       -1.42043253       1.50115353       0.22146833
H        2.23965687       0.47709759      -0.87702332
H       -1.33113344      -0.05227579       1.84745095
H        0.54086697       1.18772281       1.09662985
H       -1.84962696      -0.75240484      -0.40814136
H       -0.56995369      -2.12116536      -0.35077074
H        0.26894038       2.03469747      -0.86886126
13
Frame=9 idx=006411 GeodesicLength=1.6020752253875779 rxn_smarts="[O:1]=[C:2]([C:3]1([C:6](=[O:7])[H:13])[C:4]([H:9])([H:10])[C:5]1([H:11])[H:12])[H:8]>>[O:1]=[C:2]([C@:3]12[C@:4]([H:9])([C:5]1([H:11])[H:12])[O:7][C:6]2([H:10])[H:13])[H:8]"
O        2.03038975      -1.50073141      -0.60219863
C        1.56891935      -0.39147835      -0.67861370
C        0.17206395      -0.03887561      -0.35499725
C       -0.62287944      -0.56246689       1.20064440
C       -0.84797909      -1.08932440      -0.13981042
C       -0.16173361       1.38162972      -0.08990279
O       -1.41559171       1.48916795       0.23803590
H        2.23486862       0.46606184      -0.90654548
H       -1.32956338      -0.07512391       1.85543179
H        0.54501545       1.15021012       1.13441034
H       -1.85147053      -0.75761500      -0.44347047
H       -0.56595268      -2.11640396      -0.33028353
H        0.24391330       2.04494990      -0.88270015
13
Frame=10 idx=006411 GeodesicLength=1.7813125523289994 rxn_smarts="[O:1]=[C:2]([C:3]1([C:6](=[O:7])[H:13])[C:4]([H:9])([H:10])[C:5]1([H:11])[H:12])[H:8]>>[O:1]=[C:2]([C@:3]12[C@:4]([H:9])([C:5]1([H:11])[H:12])[O:7][C:6]2([H:10])[H:13])[H:8]"
O        2.02993225      -1.50112779      -0.56224754
C        1.56490742      -0.39691425      -0.67920129
C        0.17106003      -0.03240599      -0.35665451
C       -0.60269808      -0.50872964       1.16990899
C       -0.85723113      -1.08173378      -0.14680898
C       -0.15548337       1.39381100      -0.08906987
O       -1.41040120       1.47828164       0.25489372
H        2.22964048       0.45379516      -0.93549169
H       -1.32087289      -0.10087989       1.86338021
H        0.55021280       1.11346633       1.17096174
H       -1.85205550      -0.76203217      -0.48089794
H       -0.56338873      -2.10999225      -0.31059562
H        0.21637792       2.05446162      -0.89817721
13
Frame=11 idx=006411 GeodesicLength=1.9606513058166868 rxn_smarts="[O:1]=[C:2]([C:3]1([C:6](=[O:7])[H:13])[C:4]([H:9])([H:10])[C:5]1([H:11])[H:12])[H:8]>>[O:1]=[C:2]([C@:3]12[C@:4]([H:9])([C:5]1([H:11])[H:12])[O:7][C:6]2([H:10])[H:13])[H:8]"
O        2.02874944      -1.50022346      -0.51998786
C        1.56059981      -0.40253452      -0.67844642
C        0.16990802      -0.02540019      -0.35780470
C       -0.58566697      -0.45737869       1.13921821
C       -0.86697312      -1.07332695      -0.15337239
C       -0.14995997       1.40664278      -0.08936062
O       -1.40512994       1.46842058       0.27149932
H        2.22417216       0.44032465      -0.96295638
H       -1.30481864      -0.12878246       1.87110333
H        0.55600000       1.07696073       1.20649691
H       -1.85136841      -0.76597260      -0.52009217
H       -0.56227659      -2.10211195      -0.29159151
H        0.18676423       2.06338207      -0.91470573
13
Frame=12 idx=006411 GeodesicLength=2.140073357076655 rxn_smarts="[O:1]=[C:2]([C:3]1([C:6](=[O:7])[H:13])[C:4]([H:9])([H:10])[C:5]1([H:11])[H:12])[H:8]>>[O:1]=[C:2]([C@:3]12[C@:4]([H:9])([C:5]1([H:11])[H:12])[O:7][C:6]2([H:10])[H:13])[H:8]"
O        2.02660530      -1.49808957      -0.47622371
C        1.55597629      -0.40830988      -0.67639288
C        0.16855533      -0.01789641      -0.35861646
C       -0.57124349      -0.40802368       1.10873348
C       -0.87722203      -1.06412350      -0.15946754
C       -0.14529257       1.42006033      -0.09090001
O       -1.39995807       1.45958054       0.28746820
H        2.21862788       0.42571045      -0.98847330
H       -1.28152960      -0.15831582       1.87827644
H        0.56198387       1.04019886       1.24129649
H       -1.84934829      -0.76972172      -0.56069404
H       -0.56256385      -2.09288945      -0.27309520
H        0.15540922       2.07181985      -0.93191146
13
Frame=13 idx=006411 GeodesicLength=2.319576731132921 rxn_smarts="[O:1]=[C:2]([C:3]1([C:6](=[O:7])[H:13])[C:4]([H:9])([H:10])[C:5]1([H:11])[H:12])[H:8]>>[O:1]=[C:2]([C@:3]12[C@:4]([H:9])([C:5]1([H:11])[H:12])[O:7][C:6]2([H:10])[H:13])[H:8]"
O        2.02326902      -1.49485749      -0.43148131
C        1.55104296      -0.41418305      -0.67295144
C        0.16694257      -0.00992683      -0.35927674
C       -0.55906642      -0.36037759       1.07846400
C       -0.88806074      -1.05411299      -0.16518459
C       -0.14161280       1.43400528      -0.09384057
O       -1.39503648       1.45175988       0.30255893
H        2.21324534       0.41008871      -1.01138896
H       -1.25055290      -0.18895444       1.88475262
H        0.56773453       1.00264934       1.27557641
H       -1.84603627      -0.77348281      -0.60234153
H       -0.56427782      -2.08239126      -0.25517049
H        0.12240899       2.07978325      -0.94971633
13
Frame=14 idx=006411 GeodesicLength=2.4991910531445685 rxn_smarts="[O:1]=[C:2]([C:3]1([C:6](=[O:7])[H:13])[C:4]([H:9])([H:10])[C:5]1([H:11])[H:12])[H:8]>>[O:1]=[C:2]([C@:3]12[C@:4]([H:9])([C:5]1([H:11])[H:12])[O:7][C:6]2([H:10])[H:13])[H:8]"
O        2.01878443      -1.49034239      -0.38563527
C        1.54563340      -0.42018449      -0.66855950
C        0.16504559      -0.00146523      -0.35976164
C       -0.54876343      -0.31403597       1.04864921
C       -0.89944656      -1.04327192      -0.17033217
C       -0.13887806       1.44849248      -0.09808393
O       -1.39035852       1.44508168       0.31669693
H        2.20778978       0.39345903      -1.03240150
H       -1.21273826      -0.22069543       1.88959911
H        0.57317536       0.96365684       1.30961329
H       -1.84123051      -0.77753097      -0.64477364
H       -0.56726991      -2.07066739      -0.23734549
H        0.08825669       2.08750375      -0.96766540
13
Frame=15 idx=006411 GeodesicLength=2.678942991225883 rxn_smarts="[O:1]=[C:2]([C:3]1([C:6](=[O:7])[H:13])[C:4]([H:9])([H:10])[C:5]1([H:11])[H:12])[H:8]>>[O:1]=[C:2]([C@:3]12[C@:4]([H:9])([C:5]1([H:11])[H:12])[O:7][C:6]2([H:10])[H:13])[H:8]"
O        2.01301456      -1.48459058      -0.33895614
C        1.53972534      -0.42628248      -0.66321811
C        0.16283343       0.00748162      -0.36014774
C       -0.54009128      -0.26874556       1.01932597
C       -0.91143997      -1.03155798      -0.17493209
C       -0.13714741       1.46350152      -0.10373299
O       -1.38597544       1.43960593       0.32983123
H        2.20242426       0.37598129      -1.05105020
H       -1.16779407      -0.25319967       1.89235344
H        0.57799866       0.92260468       1.34354508
H       -1.83497935      -0.78204648      -0.68754713
H       -0.57155913      -2.05772440      -0.21963658
H        0.05299040       2.09497211      -0.98583474
13
Frame=16 idx=006411 GeodesicLength=2.858874223444529 rxn_smarts="[O:1]=[C:2]([C:3]1([C:6](=[O:7])[H:13])[C:4]([H:9])([H:10])[C:5]1([H:11])[H:12])[H:8]>>[O:1]=[C:2]([C@:3]12[C@:4]([H:9])([C:5]1([H:11])[H:12])[O:7][C:6]2([H:10])[H:13])[H:8]"
O        2.00598769      -1.47747396      -0.29148523
C        1.53324660      -0.43247328      -0.65711385
C        0.16032703       0.01693338      -0.36033749
C       -0.53275399      -0.22424078       0.99071371
C       -0.92400318      -1.01892200      -0.17882253
C       -0.13637779       1.47903952      -0.11073572
O       -1.38183880       1.43542971       0.34202162
H        2.19702130       0.35772056      -1.06768026
H       -1.11630045      -0.28624337       1.89204189
H        0.58206121       0.87877671       1.37755105
H       -1.82714791      -0.78725171      -0.73026655
H       -0.57704379      -2.04355403      -0.20178101
H        0.01682208       2.10225925      -1.00410563
