13
Frame=0 idx=009484 GeodesicLength=0.0 rxn_smarts="[O:1]([C@@:2]1([H:9])[C:3]([H:10])([H:11])[C@:4]1([O:5][C:6](=[O:7])[H:13])[H:12])[H:8]>>[O:1]([C:2]([C:3]([C-:4]=[O+:5][C:6](=[O:7])[H:13])([H:10])[H:11])([H:9])[H:12])[H:8]"
O       -0.98171348       1.15299546       0.78241300
C       -1.01037678      -0.21240188       0.59453746
C       -1.15603509      -0.62950248      -0.84288475
C        0.28249491      -0.98299972      -0.58851769
O        1.03888271       0.12025351      -0.99754895
C        2.05562129       0.53061879      -0.22944180
O        2.17972061       0.28853139       0.93460691
H       -0.47553285       1.35295892       1.57388204
H       -1.59760211      -0.79058690       1.30919612
H       -1.80978479      -1.47489020      -1.02070396
H       -1.34173332       0.20868978      -1.50802102
H        0.08477999      -0.72595422       0.81093234
H        2.73127896       1.16228760      -0.81844973
13
Frame=1 idx=009484 GeodesicLength=0.08173575920661123 rxn_smarts="[O:1]([C@@:2]1([H:9])[C:3]([H:10])([H:11])[C@:4]1([O:5][C:6](=[O:7])[H:13])[H:12])[H:8]>>[O:1]([C:2]([C:3]([C-:4]=[O+:5][C:6](=[O:7])[H:13])([H:10])[H:11])([H:9])[H:12])[H:8]"
O       -1.01279827       1.14611439       0.79919541
C       -1.02712037      -0.21928167       0.60261399
C       -1.15547188      -0.62524455      -0.83977491
C        0.28309952      -0.96031480      -0.57268808
O        1.04192320       0.13126979      -0.99633052
C        2.06692501       0.54146105      -0.23647390
O        2.20304596       0.30498329       0.92672798
H       -0.45904922       1.34946524       1.55724992
H       -1.63133093      -0.79775045       1.30239237
H       -1.79242879      -1.47973712      -1.03544603
H       -1.34450788       0.21531264      -1.50122457
H        0.07177775      -0.74838168       0.83628831
H        2.75593591       1.14210387      -0.84252996
13
Frame=2 idx=009484 GeodesicLength=0.16280871493836369 rxn_smarts="[O:1]([C@@:2]1([H:9])[C:3]([H:10])([H:11])[C@:4]1([O:5][C:6](=[O:7])[H:13])[H:12])[H:8]>>[O:1]([C:2]([C:3]([C-:4]=[O+:5][C:6](=[O:7])[H:13])([H:10])[H:11])([H:9])[H:12])[H:8]"
O       -1.04278998       1.13863191       0.81727763
C       -1.04381551      -0.22643055       0.61105317
C       -1.15455362      -0.62036510      -0.83629049
C        0.28364559      -0.93712690      -0.55589354
O        1.04551042       0.14159436      -0.99541396
C        2.07934398       0.55130210      -0.24455524
O        2.22530535       0.32436184       0.91871513
H       -0.44496231       1.34604815       1.53995187
H       -1.66505349      -0.80532891       1.29506000
H       -1.77425822      -1.48339498      -1.05024311
H       -1.34683158       0.22289021      -1.49360962
H        0.05814624      -0.77271388       0.86136105
H        2.78031313       1.12053175      -0.86741288
13
Frame=3 idx=009484 GeodesicLength=0.24330756499770062 rxn_smarts="[O:1]([C@@:2]1([H:9])[C:3]([H:10])([H:11])[C@:4]1([O:5][C:6](=[O:7])[H:13])[H:12])[H:8]>>[O:1]([C:2]([C:3]([C-:4]=[O+:5][C:6](=[O:7])[H:13])([H:10])[H:11])([H:9])[H:12])[H:8]"
O       -1.07172473       1.13058045       0.83663619
C       -1.06050433      -0.23382427       0.61982330
C       -1.15325289      -0.61485555      -0.83243007
C        0.28415101      -0.91336996      -0.53805355
O        1.04968801       0.15111319      -0.99486957
C        2.09289018       0.56006928      -0.25378952
O        2.24643107       0.34707457       0.91051725
H       -0.43337427       1.34257912       1.52243170
H       -1.69879839      -0.81326545       1.28714044
H       -1.75519549      -1.48585412      -1.06509034
H       -1.34868850       0.23141403      -1.48518408
H        0.04383062      -0.79897028       0.88600856
H        2.80454772       1.09730900      -0.89314031
13
Frame=4 idx=009484 GeodesicLength=0.3232629323071644 rxn_smarts="[O:1]([C@@:2]1([H:9])[C:3]([H:10])([H:11])[C@:4]1([O:5][C:6](=[O:7])[H:13])[H:12])[H:8]>>[O:1]([C:2]([C:3]([C-:4]=[O+:5][C:6](=[O:7])[H:13])([H:10])[H:11])([H:9])[H:12])[H:8]"
O       -1.09958022       1.12200304       0.85721517
C       -1.07720998      -0.24142770       0.62888210
C       -1.15153741      -0.60871715      -0.82819272
C        0.28462497      -0.88900357      -0.51909137
O        1.05451777       0.15961565      -0.99479787
C        2.10742548       0.56781667      -0.26420699
O        2.26636903       0.37347849       0.90202039
H       -0.42435145       1.33892632       1.50518646
H       -1.73259559      -0.82145380       1.27856972
H       -1.73517030      -1.48710181      -1.07996071
H       -1.35003863       0.24085647      -1.47596611
H        0.02876940      -0.82720091       0.91005911
H        2.82877695       1.07220832      -0.91971717
13
Frame=5 idx=009484 GeodesicLength=0.4027303797194989 rxn_smarts="[O:1]([C@@:2]1([H:9])[C:3]([H:10])([H:11])[C@:4]1([O:5][C:6](=[O:7])[H:13])[H:12])[H:8]>>[O:1]([C:2]([C:3]([C-:4]=[O+:5][C:6](=[O:7])[H:13])([H:10])[H:11])([H:9])[H:12])[H:8]"
O       -1.12642372       1.11291498       0.87899388
C       -1.09395267      -0.24922316       0.63819396
C       -1.14937233      -0.60193339      -0.82357879
C        0.28509988      -0.86391768      -0.49894914
O        1.06006037       0.16696054      -0.99529844
C        2.12282549       0.57471464      -0.27584721
O        2.28503051       0.40405752       0.89303570
H       -0.41797086       1.33496436       1.48873138
H       -1.76642690      -0.82985194       1.26929778
H       -1.71407949      -1.48712990      -1.09483876
H       -1.35087410       0.25122110      -1.46596466
H        0.01294118      -0.85742800       0.93329913
H        2.85314264       1.04465095      -0.94707481
13
Frame=6 idx=009484 GeodesicLength=0.4816958687401706 rxn_smarts="[O:1]([C@@:2]1([H:9])[C:3]([H:10])([H:11])[C@:4]1([O:5][C:6](=[O:7])[H:13])[H:12])[H:8]>>[O:1]([C:2]([C:3]([C-:4]=[O+:5][C:6](=[O:7])[H:13])([H:10])[H:11])([H:9])[H:12])[H:8]"
O       -1.15217614       1.10338946       0.90184986
C       -1.11072780      -0.25714784       0.64770306
C       -1.14672298      -0.59451992      -0.81858382
C        0.28556531      -0.83813085      -0.47754462
O        1.06642765       0.17271470      -0.99648878
C        2.13883878       0.58087917      -0.28864143
O        2.30240542       0.43900045       0.88330061
H       -0.41413178       1.33059397       1.47353547
H       -1.80031710      -0.83826334       1.25926885
H       -1.69188746      -1.48592099      -1.10965444
H       -1.35109818       0.26245378      -1.45522415
H       -0.00372401      -0.88973358       0.95549477
H        2.87754830       1.01468498      -0.97501537
13
Frame=7 idx=009484 GeodesicLength=0.5601907281522662 rxn_smarts="[O:1]([C@@:2]1([H:9])[C:3]([H:10])([H:11])[C@:4]1([O:5][C:6](=[O:7])[H:13])[H:12])[H:8]>>[O:1]([C:2]([C:3]([C-:4]=[O+:5][C:6](=[O:7])[H:13])([H:10])[H:11])([H:9])[H:12])[H:8]"
O       -1.17688865       1.09346096       0.92572357
C       -1.12753451      -0.26516563       0.65737363
C       -1.14356010      -0.58647096      -0.81319966
C        0.28602352      -0.81158870      -0.45482242
O        1.07371154       0.17650041      -0.99846366
C        2.15525159       0.58648876      -0.30255550
O        2.31844663       0.47859907       0.87248077
H       -0.41274143       1.32575547       1.46001662
H       -1.83423737      -0.84658277       1.24845133
H       -1.66853349      -1.48345492      -1.12434677
H       -1.35065456       0.27453884      -1.44376740
H       -0.02125324      -0.92416414       0.97636326
H        2.90197009       0.98208360      -1.00325379
13
Frame=8 idx=009484 GeodesicLength=0.6382493850278886 rxn_smarts="[O:1]([C@@:2]1([H:9])[C:3]([H:10])([H:11])[C@:4]1([O:5][C:6](=[O:7])[H:13])[H:12])[H:8]>>[O:1]([C:2]([C:3]([C-:4]=[O+:5][C:6](=[O:7])[H:13])([H:10])[H:11])([H:9])[H:12])[H:8]"
O       -1.20056154       1.08320017       0.95051714
C       -1.14436599      -0.27321287       0.66717192
C       -1.13986200      -0.57779250      -0.80741419
C        0.28645854      -0.78433022      -0.43071010
O        1.08206574       0.17769466      -1.00129959
C        2.17185418       0.59161253      -0.31751374
O        2.33314152       0.52292799       0.86019039
H       -0.41358967       1.32042651       1.44848561
H       -1.86818396      -0.85462408       1.23683739
H       -1.64402759      -1.47970126      -1.13882195
H       -1.34942354       0.28745194      -1.43164734
H       -0.03969691      -0.96079019       0.99561000
H        2.92619124       0.94713733      -1.03140554
13
Frame=9 idx=009484 GeodesicLength=0.7158054018206517 rxn_smarts="[O:1]([C@@:2]1([H:9])[C:3]([H:10])([H:11])[C@:4]1([O:5][C:6](=[O:7])[H:13])[H:12])[H:8]>>[O:1]([C:2]([C:3]([C-:4]=[O+:5][C:6](=[O:7])[H:13])([H:10])[H:11])([H:9])[H:12])[H:8]"
O       -1.22328383       1.07258672       0.97618879
C       -1.16120471      -0.28127585       0.67705940
C       -1.13558331      -0.56843889      -0.80118771
C        0.28684429      -0.75623757      -0.40512250
O        1.09155203       0.17581356      -1.00492729
C        2.18840691       0.59649784      -0.33342600
O        2.34628513       0.57250228       0.84585288
H       -0.41661077       1.31448523       1.43941580
H       -1.90207688      -0.86235930       1.22434081
H       -1.61830008      -1.47458703      -1.15304341
H       -1.34727955       0.30122764      -1.41878542
H       -0.05905090      -0.99958120       1.01282437
H        2.95030167       0.90936656      -1.05918972
13
Frame=10 idx=009484 GeodesicLength=0.7929652310469641 rxn_smarts="[O:1]([C@@:2]1([H:9])[C:3]([H:10])([H:11])[C@:4]1([O:5][C:6](=[O:7])[H:13])[H:12])[H:8]>>[O:1]([C:2]([C:3]([C-:4]=[O+:5][C:6](=[O:7])[H:13])([H:10])[H:11])([H:9])[H:12])[H:8]"
O       -1.24516286       1.06165407       1.00272852
C       -1.17803723      -0.28931504       0.68704245
C       -1.13071966      -0.55837394      -0.79450528
C        0.28716553      -0.72738135      -0.37802354
O        1.10237750       0.16997387      -1.00932340
C        2.20475129       0.60112099      -0.35029696
O        2.35774583       0.62742947       0.82893410
H       -0.42158288       1.30799048       1.43297752
H       -1.93586695      -0.86967581       1.21101566
H       -1.59143664      -1.46801228      -1.16691636
H       -1.34406675       0.31593536      -1.40522627
H       -0.07929663      -1.04057272       1.02765038
H        2.97412944       0.86922691      -1.08605683
13
Frame=11 idx=009484 GeodesicLength=0.8697547921097699 rxn_smarts="[O:1]([C@@:2]1([H:9])[C:3]([H:10])([H:11])[C@:4]1([O:5][C:6](=[O:7])[H:13])[H:12])[H:8]>>[O:1]([C:2]([C:3]([C-:4]=[O+:5][C:6](=[O:7])[H:13])([H:10])[H:11])([H:9])[H:12])[H:8]"
O       -1.26639469       1.05032331       1.03023501
C       -1.19482063      -0.29735700       0.69713171
C       -1.12524879      -0.54749014      -0.78733650
C        0.28740432      -0.69770469      -0.34940984
O        1.11467093       0.15939628      -1.01428771
C        2.22065871       0.60567598      -0.36814737
O        2.36715179       0.68823412       0.80870550
H       -0.42841913       1.30095652       1.42940130
H       -1.96939431      -0.87665415       1.19686902
H       -1.56347696      -1.45979590      -1.18041141
H       -1.33962002       0.33174937      -1.39089163
H       -0.10030599      -1.08370510       1.03962272
H        2.99779479       0.82637140      -1.11148081
13
Frame=12 idx=009484 GeodesicLength=0.9461996272977935 rxn_smarts="[O:1]([C@@:2]1([H:9])[C:3]([H:10])([H:11])[C@:4]1([O:5][C:6](=[O:7])[H:13])[H:12])[H:8]>>[O:1]([C:2]([C:3]([C-:4]=[O+:5][C:6](=[O:7])[H:13])([H:10])[H:11])([H:9])[H:12])[H:8]"
O       -1.28706126       1.03855579       1.05874924
C       -1.21152295      -0.30539196       0.70733089
C       -1.11914428      -0.53568021      -0.77964680
C        0.28753163      -0.66734909      -0.31922305
O        1.12868135       0.14287018      -1.01938603
C        2.23597217       0.61003432      -0.38695780
O        2.37409685       0.75520243       0.78424861
H       -0.43690273       1.29338592       1.42879447
H       -2.00259192      -0.88324835       1.18190258
H       -1.53460216      -1.44970434      -1.19349921
H       -1.33358659       0.34886955      -1.37572386
H       -0.12200803      -1.12890633       1.04832399
H        3.02113793       0.78136208      -1.13491302
13
Frame=13 idx=009484 GeodesicLength=1.0222725537738246 rxn_smarts="[O:1]([C@@:2]1([H:9])[C:3]([H:10])([H:11])[C@:4]1([O:5][C:6](=[O:7])[H:13])[H:12])[H:8]>>[O:1]([C:2]([C:3]([C-:4]=[O+:5][C:6](=[O:7])[H:13])([H:10])[H:11])([H:9])[H:12])[H:8]"
O       -1.30750127       1.02600696       1.08862536
C       -1.22803602      -0.31360940       0.71765078
C       -1.11234771      -0.52264512      -0.77138985
C        0.28754370      -0.63603386      -0.28751883
O        1.14436124       0.11984269      -1.02393457
C        2.25030073       0.61476174      -0.40695212
O        2.37759018       0.83009081       0.75394298
H       -0.44719758       1.28507819       1.43170854
H       -2.03510563      -0.88994468       1.16597059
H       -1.50476409      -1.43730302      -1.20638153
H       -1.32577724       0.36776809      -1.35935572
H       -0.14398004      -1.17592319       1.05308452
H        3.04491373       0.73191079      -1.15545015
13
Frame=14 idx=009484 GeodesicLength=1.098050533004619 rxn_smarts="[O:1]([C@@:2]1([H:9])[C:3]([H:10])([H:11])[C@:4]1([O:5][C:6](=[O:7])[H:13])[H:12])[H:8]>>[O:1]([C:2]([C:3]([C-:4]=[O+:5][C:6](=[O:7])[H:13])([H:10])[H:11])([H:9])[H:12])[H:8]"
O       -1.32756238       1.01269441       1.11990634
C       -1.24430098      -0.32195230       0.72808527
C       -1.10480947      -0.50826737      -0.76258311
C        0.28747242      -0.60438790      -0.25428238
O        1.16215937       0.08845342      -1.02687936
C        2.26340806       0.61945626      -0.42816758
O        2.37697572       0.91259148       0.71635742
H       -0.45878478       1.27607695       1.43792520
H       -2.06697372      -0.89646093       1.14912687
H       -1.47443073      -1.42223700      -1.21905456
H       -1.31550563       0.38874651      -1.34183935
H       -0.16616916      -1.22471574       1.05364187
H        3.06852130       0.68000221      -1.17223660
13
Frame=15 idx=009484 GeodesicLength=1.1732587527826768 rxn_smarts="[O:1]([C@@:2]1([H:9])[C:3]([H:10])([H:11])[C@:4]1([O:5][C:6](=[O:7])[H:13])[H:12])[H:8]>>[O:1]([C:2]([C:3]([C-:4]=[O+:5][C:6](=[O:7])[H:13])([H:10])[H:11])([H:9])[H:12])[H:8]"
O       -1.34697282       0.99842324       1.15263895
C       -1.26018266      -0.33044674       0.73852801
C       -1.09637175      -0.49237247      -0.75316692
C        0.28735453      -0.57295426      -0.21951059
O        1.18224485       0.04751232      -1.02644017
C        2.27466893       0.62438671      -0.45073836
O        2.37124210       1.00247771       0.66956911
H       -0.47110256       1.26624278       1.44712830
H       -2.09810733      -0.90267018       1.13120238
H       -1.44394420      -1.40406221      -1.23151395
H       -1.30193020       0.41212938      -1.32293634
H       -0.18854503      -1.27509543       1.04958961
H        3.09164615       0.62642914      -1.18435003
13
Frame=16 idx=009484 GeodesicLength=1.2478064700444924 rxn_smarts="[O:1]([C@@:2]1([H:9])[C:3]([H:10])([H:11])[C@:4]1([O:5][C:6](=[O:7])[H:13])[H:12])[H:8]>>[O:1]([C:2]([C:3]([C-:4]=[O+:5][C:6](=[O:7])[H:13])([H:10])[H:11])([H:9])[H:12])[H:8]"
O       -1.36529942       0.98317327       1.18678174
C       -1.27562274      -0.33902557       0.74883057
C       -1.08673629      -0.47488158      -0.74313571
C        0.28734145      -0.54271420      -0.18301858
O        1.20479457      -0.00390160      -1.02005419
C        2.28354992       0.62931442      -0.47471622
O        2.35940952       1.09866831       0.61152271
H       -0.48341544       1.25542333       1.45896462
H       -2.12867975      -0.90810697       1.11189399
H       -1.41354703      -1.38246105      -1.24388936
H       -1.28392171       0.43815745      -1.30251764
H       -0.21138054      -1.32696251       1.04084414
H        3.11350746       0.57331669      -1.19150608
