13
Frame=0 idx=001057 GeodesicLength=0.0 rxn_smarts="[C:1]([C@@:2]([O:3][H:11])([C:4](=[O:5])[N:6]([H:12])[H:13])[H:10])([H:7])([H:8])[H:9]>>[C:1]([C@@:2]([O:3][H:11])([O+:5]=[C-:4][N:6]([H:12])[H:13])[H:10])([H:7])([H:8])[H:9]"
C       -1.72404893       0.24551247      -0.25045568
C       -0.61943956      -0.14185835       0.67850322
O       -0.30986611      -1.44018460       0.81993058
C        0.98740153       0.41021677      -0.40937477
O        0.69455812       1.29451273       0.46867779
N        2.29234267       0.09046790      -0.46967791
H       -1.66284560       1.30636863      -0.47505297
H       -2.67051822       0.04494613       0.26307427
H       -1.68702156      -0.32354292      -1.17664356
H       -0.68635397       0.27912727       1.67458173
H       -0.20799794      -1.82484233      -0.05937507
H        2.63851737      -0.50402618      -1.19864499
H        2.95527216       0.56330247       0.13445741
13
Frame=1 idx=001057 GeodesicLength=0.06085784206335938 rxn_smarts="[C:1]([C@@:2]([O:3][H:11])([C:4](=[O:5])[N:6]([H:12])[H:13])[H:10])([H:7])([H:8])[H:9]>>[C:1]([C@@:2]([O:3][H:11])([O+:5]=[C-:4][N:6]([H:12])[H:13])[H:10])([H:7])([H:8])[H:9]"
C       -1.73411666       0.25347956      -0.24229683
C       -0.61506803      -0.14402982       0.66657169
O       -0.33844051      -1.45435202       0.80070821
C        1.00354564       0.37575348      -0.38762781
O        0.68172661       1.29736788       0.43624598
N        2.31441974       0.09530363      -0.45890824
H       -1.68295652       1.31855911      -0.44931799
H       -2.67526571       0.03932229       0.27481729
H       -1.70253141      -0.29772918      -1.17971203
H       -0.67552887       0.26707571       1.66813412
H       -0.20819768      -1.83187956      -0.07756074
H        2.65839254      -0.55446959      -1.14022917
H        2.97402087       0.63559850       0.08917550
13
Frame=2 idx=001057 GeodesicLength=0.12097672330029047 rxn_smarts="[C:1]([C@@:2]([O:3][H:11])([C:4](=[O:5])[N:6]([H:12])[H:13])[H:10])([H:7])([H:8])[H:9]>>[C:1]([C@@:2]([O:3][H:11])([O+:5]=[C-:4][N:6]([H:12])[H:13])[H:10])([H:7])([H:8])[H:9]"
C       -1.74346061       0.26151276      -0.23453523
C       -0.61134029      -0.14632420       0.65515905
O       -0.36778809      -1.46778214       0.78205285
C        1.02047486       0.34150830      -0.36150534
O        0.66938108       1.29857388       0.40376046
N        2.33558590       0.10025076      -0.44992090
H       -1.70239185       1.33065579      -0.42265890
H       -2.67995264       0.03342832       0.28439508
H       -1.71588399      -0.27102526      -1.18310235
H       -0.66584378       0.25525125       1.66187015
H       -0.20749088      -1.83909789      -0.09352348
H        2.68015230      -0.59949909      -1.07952388
H        2.98855799       0.70254752       0.03753250
13
Frame=3 idx=001057 GeodesicLength=0.18024169520845304 rxn_smarts="[C:1]([C@@:2]([O:3][H:11])([C:4](=[O:5])[N:6]([H:12])[H:13])[H:10])([H:7])([H:8])[H:9]>>[C:1]([C@@:2]([O:3][H:11])([O+:5]=[C-:4][N:6]([H:12])[H:13])[H:10])([H:7])([H:8])[H:9]"
C       -1.75169476       0.26964597      -0.22758922
C       -0.60852864      -0.14883131       0.64476821
O       -0.39799596      -1.48055683       0.76430590
C        1.03834241       0.30776513      -0.32914619
O        0.65782989       1.29777884       0.37319586
N        2.35554823       0.10514996      -0.44280245
H       -1.72038129       1.34259556      -0.39561329
H       -2.68463813       0.02745976       0.29067073
H       -1.72609413      -0.24349223      -1.18714282
H       -0.65858296       0.24333245       1.65635931
H       -0.20567020      -1.84651487      -0.10671431
H        2.70254529      -0.63894164      -1.01793568
H        2.99932026       0.76460921      -0.02235604
13
Frame=4 idx=001057 GeodesicLength=0.2384127521376259 rxn_smarts="[C:1]([C@@:2]([O:3][H:11])([C:4](=[O:5])[N:6]([H:12])[H:13])[H:10])([H:7])([H:8])[H:9]>>[C:1]([C@@:2]([O:3][H:11])([O+:5]=[C-:4][N:6]([H:12])[H:13])[H:10])([H:7])([H:8])[H:9]"
C       -1.75872697       0.27763144      -0.22158491
C       -0.60634359      -0.15111088       0.63552626
O       -0.42805340      -1.49214599       0.74767313
C        1.05706959       0.27556811      -0.29012573
O        0.64689967       1.29580001       0.34436258
N        2.37348518       0.11086779      -0.43985567
H       -1.73717272       1.35402035      -0.36875415
H       -2.68916544       0.02104161       0.29356956
H       -1.73283147      -0.21569802      -1.19176478
H       -0.65385240       0.23188167       1.65169281
H       -0.20173114      -1.85370554      -0.11664944
H        2.72439819      -0.67216203      -0.95818177
H        3.00602449       0.81801149      -0.08590788
13
Frame=5 idx=001057 GeodesicLength=0.2957846310695498 rxn_smarts="[C:1]([C@@:2]([O:3][H:11])([C:4](=[O:5])[N:6]([H:12])[H:13])[H:10])([H:7])([H:8])[H:9]>>[C:1]([C@@:2]([O:3][H:11])([O+:5]=[C-:4][N:6]([H:12])[H:13])[H:10])([H:7])([H:8])[H:9]"
C       -1.76395631       0.28565087      -0.21701006
C       -0.60510595      -0.15346658       0.62814545
O       -0.45858296      -1.50297861       0.73247856
C        1.07731620       0.24451150      -0.24113113
O        0.63680101       1.29207656       0.31921177
N        2.38862960       0.11707646      -0.44205124
H       -1.75179331       1.36508946      -0.34240253
H       -2.69350947       0.01461702       0.29163721
H       -1.73455518      -0.18725931      -1.19750621
H       -0.65312050       0.22032471       1.64865730
H       -0.19548113      -1.86083961      -0.12259151
H        2.74509202      -0.69948677      -0.90160034
H        3.00826598       0.86468430      -0.15583728
13
Frame=6 idx=001057 GeodesicLength=0.35207802824435386 rxn_smarts="[C:1]([C@@:2]([O:3][H:11])([C:4](=[O:5])[N:6]([H:12])[H:13])[H:10])([H:7])([H:8])[H:9]>>[C:1]([C@@:2]([O:3][H:11])([O+:5]=[C-:4][N:6]([H:12])[H:13])[H:10])([H:7])([H:8])[H:9]"
C       -1.76561355       0.29387859      -0.21510215
C       -0.60521309      -0.15620150       0.62433842
O       -0.48984056      -1.51342908       0.71962962
C        1.10025394       0.21501583      -0.17525568
O        0.62828678       1.28623680       0.30354215
N        2.39856936       0.12348356      -0.45128343
H       -1.76220364       1.37597453      -0.31736668
H       -2.69717890       0.00808504       0.28095932
H       -1.72683191      -0.15750615      -1.20567168
H       -0.65979026       0.20768169       1.64905436
H       -0.18608538      -1.86783454      -0.12299207
H        2.76155004      -0.72157765      -0.85038058
H        3.00409719       0.90619290      -0.23947161
13
Frame=7 idx=001057 GeodesicLength=0.40625758309469534 rxn_smarts="[C:1]([C@@:2]([O:3][H:11])([C:4](=[O:5])[N:6]([H:12])[H:13])[H:10])([H:7])([H:8])[H:9]>>[C:1]([C@@:2]([O:3][H:11])([O+:5]=[C-:4][N:6]([H:12])[H:13])[H:10])([H:7])([H:8])[H:9]"
C       -1.76021692       0.30220091      -0.21796295
C       -0.60635373      -0.15907137       0.62669908
O       -0.52009104      -1.52324025       0.71085530
C        1.12787622       0.18931846      -0.08205112
O        0.62234197       1.27930483       0.30605202
N        2.39708237       0.12917381      -0.47054836
H       -1.76555236       1.38651912      -0.29551848
H       -2.69824056       0.00044191       0.25530585
H       -1.70163942      -0.12608698      -1.21807475
H       -0.67844088       0.19345179       1.65527399
H       -0.17103766      -1.87390446      -0.11530047
H        2.76621225      -0.73859626      -0.81134112
H        2.98805975       0.94048849      -0.34338899
13
Frame=8 idx=001057 GeodesicLength=0.45950588269053283 rxn_smarts="[C:1]([C@@:2]([O:3][H:11])([C:4](=[O:5])[N:6]([H:12])[H:13])[H:10])([H:7])([H:8])[H:9]>>[C:1]([C@@:2]([O:3][H:11])([O+:5]=[C-:4][N:6]([H:12])[H:13])[H:10])([H:7])([H:8])[H:9]"
C       -1.74679864       0.31066856      -0.22446751
C       -0.60508121      -0.16100609       0.63307959
O       -0.54197497      -1.53129305       0.70123700
C        1.16008589       0.17362909       0.03446636
O        0.61807616       1.27494236       0.32378000
N        2.37756763       0.12952069      -0.49375663
H       -1.76357531       1.39668803      -0.27499407
H       -2.69335749      -0.01008079       0.21765654
H       -1.65930371      -0.09151873      -1.23362006
H       -0.70424908       0.17699177       1.66532137
H       -0.14711256      -1.87587290      -0.10634236
H        2.75614101      -0.75612317      -0.77320708
H        2.94958228       0.96345423      -0.46915315
13
Frame=9 idx=001057 GeodesicLength=0.5180454836701803 rxn_smarts="[C:1]([C@@:2]([O:3][H:11])([C:4](=[O:5])[N:6]([H:12])[H:13])[H:10])([H:7])([H:8])[H:9]>>[C:1]([C@@:2]([O:3][H:11])([O+:5]=[C-:4][N:6]([H:12])[H:13])[H:10])([H:7])([H:8])[H:9]"
C       -1.73317127       0.31779303      -0.22936091
C       -0.59755209      -0.15855511       0.63586775
O       -0.54575210      -1.53386536       0.68420828
C        1.18984254       0.17627637       0.14276520
O        0.61206723       1.27958263       0.33391328
N        2.34635835       0.12059285      -0.50744595
H       -1.76829207       1.40445517      -0.25210254
H       -2.68351185      -0.02747809       0.18439340
H       -1.61889505      -0.05647464      -1.24681143
H       -0.72198884       0.16221248       1.67183112
H       -0.11380189      -1.86980052      -0.10738165
H        2.73404656      -0.77789916      -0.72731752
H        2.90065049       0.96316036      -0.58255904
13
Frame=10 idx=001057 GeodesicLength=0.5803174196599885 rxn_smarts="[C:1]([C@@:2]([O:3][H:11])([C:4](=[O:5])[N:6]([H:12])[H:13])[H:10])([H:7])([H:8])[H:9]>>[C:1]([C@@:2]([O:3][H:11])([O+:5]=[C-:4][N:6]([H:12])[H:13])[H:10])([H:7])([H:8])[H:9]"
C       -1.72626182       0.32461220      -0.22906473
C       -0.58596599      -0.15307800       0.63152600
O       -0.53796760      -1.53272890       0.65730396
C        1.21336151       0.19082292       0.22582409
O        0.60388502       1.28834685       0.32411642
N        2.31896767       0.10391485      -0.50570519
H       -1.78371893       1.41070229      -0.22296205
H       -2.67403993      -0.04861499       0.16485250
H       -1.59480915      -0.01963884      -1.25527769
H       -0.72628824       0.14872867       1.67211674
H       -0.07743910      -1.85760774      -0.12216216
H        2.72063311      -0.80203696      -0.66051793
H        2.84964344       0.94657766      -0.68004997
13
Frame=11 idx=001057 GeodesicLength=0.6441178932316741 rxn_smarts="[C:1]([C@@:2]([O:3][H:11])([C:4](=[O:5])[N:6]([H:12])[H:13])[H:10])([H:7])([H:8])[H:9]>>[C:1]([C@@:2]([O:3][H:11])([O+:5]=[C-:4][N:6]([H:12])[H:13])[H:10])([H:7])([H:8])[H:9]"
C       -1.72685576       0.33026162      -0.22422454
C       -0.57258118      -0.14501610       0.62127244
O       -0.52289220      -1.52842259       0.62371555
C        1.23095736       0.21384061       0.28718629
O        0.59354979       1.29913677       0.29421340
N        2.29931378       0.08418426      -0.49308379
H       -1.80808003       1.41451604      -0.19010695
H       -2.66681978      -0.07192709       0.15879687
H       -1.58838926       0.01550194      -1.25925620
H       -0.72004317       0.13759716       1.66725993
H       -0.04036638      -1.84088066      -0.14694933
H        2.71214888      -0.82533161      -0.58551013
H        2.81005794       0.91653966      -0.75331354
13
Frame=12 idx=001057 GeodesicLength=0.7091494913324276 rxn_smarts="[C:1]([C@@:2]([O:3][H:11])([C:4](=[O:5])[N:6]([H:12])[H:13])[H:10])([H:7])([H:8])[H:9]>>[C:1]([C@@:2]([O:3][H:11])([O+:5]=[C-:4][N:6]([H:12])[H:13])[H:10])([H:7])([H:8])[H:9]"
C       -1.73210123       0.33510662      -0.21640653
C       -0.55862547      -0.13555909       0.60740964
O       -0.50389952      -1.52213519       0.58559405
C        1.24421600       0.24231961       0.33477150
O        0.58242640       1.30919409       0.25174942
N        2.28524004       0.06357169      -0.47354607
H       -1.83637899       1.41640193      -0.15499741
H       -2.66106845      -0.09562985       0.16137468
H       -1.59406759       0.04894484      -1.26007763
H       -0.70772003       0.12747758       1.65927611
H       -0.00320556      -1.82093557      -0.17834155
H        2.70638516      -0.84634906      -0.50500561
H        2.77879924       0.87759240      -0.81180061
13
Frame=13 idx=001057 GeodesicLength=0.7750405095548581 rxn_smarts="[C:1]([C@@:2]([O:3][H:11])([C:4](=[O:5])[N:6]([H:12])[H:13])[H:10])([H:7])([H:8])[H:9]>>[C:1]([C@@:2]([O:3][H:11])([O+:5]=[C-:4][N:6]([H:12])[H:13])[H:10])([H:7])([H:8])[H:9]"
C       -1.74000635       0.33963076      -0.20651458
C       -0.54468251      -0.12549189       0.59120563
O       -0.48309943      -1.51459914       0.54386521
C        1.25402373       0.27418650       0.37261760
O        0.57144558       1.31681368       0.20153228
N        2.27523999       0.04296061      -0.44878861
H       -1.86554662       1.41699935      -0.11798146
H       -2.65600325      -0.11874420       0.16937124
H       -1.60796152       0.08136787      -1.25851025
H       -0.69171353       0.11740004       1.64920594
H        0.03371958      -1.79862994      -0.21440268
H        2.70366644      -0.86362567      -0.41882166
H        2.75091790       0.83173204      -0.86277867
13
Frame=14 idx=001057 GeodesicLength=0.8425522563667629 rxn_smarts="[C:1]([C@@:2]([O:3][H:11])([C:4](=[O:5])[N:6]([H:12])[H:13])[H:10])([H:7])([H:8])[H:9]>>[C:1]([C@@:2]([O:3][H:11])([O+:5]=[C-:4][N:6]([H:12])[H:13])[H:10])([H:7])([H:8])[H:9]"
C       -1.74959903       0.34357385      -0.19486263
C       -0.53074052      -0.11485886       0.57326880
O       -0.46045216      -1.50576268       0.49891313
C        1.26089691       0.30977409       0.40303821
O        0.56061040       1.32200204       0.14477379
N        2.26804803       0.02341642      -0.41952701
H       -1.89436648       1.41622081      -0.07958475
H       -2.65100221      -0.14153437       0.18170211
H       -1.62822005       0.11226795      -1.25469192
H       -0.67288719       0.10715305       1.63751519
H        0.07082637      -1.77375450      -0.25463432
H        2.69982432      -0.87757234      -0.32936758
H        2.72706162       0.77907453      -0.90654303
13
Frame=15 idx=001057 GeodesicLength=0.9114001935273873 rxn_smarts="[C:1]([C@@:2]([O:3][H:11])([C:4](=[O:5])[N:6]([H:12])[H:13])[H:10])([H:7])([H:8])[H:9]>>[C:1]([C@@:2]([O:3][H:11])([O+:5]=[C-:4][N:6]([H:12])[H:13])[H:10])([H:7])([H:8])[H:9]"
C       -1.75991326       0.34705102      -0.18184435
C       -0.51694387      -0.10400084       0.55416745
O       -0.43685218      -1.49589731       0.45135714
C        1.26511060       0.34821232       0.42693745
O        0.55023695       1.32413484       0.08343785
N        2.26259201       0.00555504      -0.38698208
H       -1.92151957       1.41436934      -0.04024190
H       -2.64560784      -0.16365634       0.19708844
H       -1.65297309       0.14167536      -1.24885361
H       -0.65194930       0.09648010       1.62459977
H        0.10802868      -1.74683793      -0.29778518
H        2.69414770      -0.88764500      -0.23775401
H        2.70564317       0.72055939      -0.94412697
13
Frame=16 idx=001057 GeodesicLength=0.9814990526350572 rxn_smarts="[C:1]([C@@:2]([O:3][H:11])([C:4](=[O:5])[N:6]([H:12])[H:13])[H:10])([H:7])([H:8])[H:9]>>[C:1]([C@@:2]([O:3][H:11])([O+:5]=[C-:4][N:6]([H:12])[H:13])[H:10])([H:7])([H:8])[H:9]"
C       -1.77018384       0.35006703      -0.16779848
C       -0.50329604      -0.09312544       0.53435412
O       -0.41279991      -1.48514304       0.40180683
C        1.26692649       0.38899029       0.44497224
O        0.54047870       1.32298645       0.01902642
N        2.25803586      -0.01005056      -0.35200297
H       -1.94617520       1.41161306      -0.00043971
H       -2.63940073      -0.18503518       0.21455639
H       -1.68065000       0.16950723      -1.24118269
H       -0.62928627       0.08530955       1.61074933
H        0.14536086      -1.71827143      -0.34274500
H        2.68517753      -0.89393004      -0.14570979
H        2.68581256       0.65708208      -0.97558668
