13
Frame=0 idx=002753 GeodesicLength=0.0 rxn_smarts="[C:1]1([H:7])([H:8])[N:2]([H:9])[C@:3]1([C@@:4]1([H:11])[C:5]([H:12])([H:13])[O:6]1)[H:10]>>[C:1]1([H:7])([H:8])[N+:2]([H:9])([H:10])[C-:3]1[C@@:4]1([H:11])[C:5]([H:12])([H:13])[O:6]1"
C       -1.70295512      -0.36003103      -0.23127549
N       -1.27339017       0.95268763       0.26065449
C       -0.47565103       0.01638225      -0.94767759
C        0.77581798      -0.55159021      -0.38033611
C        1.81368662       0.20465175       0.30052430
O        0.95844020      -0.66334849       1.04270746
H       -1.61797012      -1.12372607       0.53674515
H       -2.65876751      -0.35293240      -0.74442607
H       -0.67598161       0.83779450       1.07691918
H       -0.74803297       1.32606546      -0.71102761
H        1.08654763      -1.44124386      -0.92620315
H        2.85045883      -0.11181949       0.24024778
H        1.66779725       1.26711002       0.48314768
13
Frame=1 idx=002753 GeodesicLength=0.05336940204953709 rxn_smarts="[C:1]1([H:7])([H:8])[N:2]([H:9])[C@:3]1([C@@:4]1([H:11])[C:5]([H:12])([H:13])[O:6]1)[H:10]>>[C:1]1([H:7])([H:8])[N+:2]([H:9])([H:10])[C-:3]1[C@@:4]1([H:11])[C:5]([H:12])([H:13])[O:6]1"
C       -1.70493834      -0.36354143      -0.22892636
N       -1.26607630       0.94795267       0.25744059
C       -0.47640524       0.02014204      -0.93931934
C        0.77683436      -0.55050390      -0.37967631
C        1.81579567       0.20372676       0.30199539
O        0.96078455      -0.66511462       1.04318561
H       -1.62183118      -1.12778830       0.53880103
H       -2.65958173      -0.35260895      -0.74406088
H       -0.67756167       0.83675253       1.08027137
H       -0.75591250       1.33737432      -0.72849165
H        1.08631626      -1.43912090      -0.92776665
H        2.85236711      -0.11323157       0.24044352
H        1.67020899       1.26596135       0.48610368
13
Frame=2 idx=002753 GeodesicLength=0.10674014109985742 rxn_smarts="[C:1]1([H:7])([H:8])[N:2]([H:9])[C@:3]1([C@@:4]1([H:11])[C:5]([H:12])([H:13])[O:6]1)[H:10]>>[C:1]1([H:7])([H:8])[N+:2]([H:9])([H:10])[C-:3]1[C@@:4]1([H:11])[C:5]([H:12])([H:13])[O:6]1"
C       -1.70682676      -0.36694763      -0.22657693
N       -1.25875853       0.94332363       0.25428765
C       -0.47709712       0.02395179      -0.93103265
C        0.77785927      -0.54939978      -0.37904524
C        1.81791404       0.20278889       0.30347199
O        0.96311640      -0.66689823       1.04363490
H       -1.62565817      -1.13175688       0.54084827
H       -2.66030293      -0.35221367      -0.74366057
H       -0.67926943       0.83574445       1.08363124
H       -0.76397671       1.34824244      -0.74593105
H        1.08609027      -1.43696556      -0.92937284
H        2.85428080      -0.11466341       0.24064703
H        1.67262887       1.26479396       0.48909819
13
Frame=3 idx=002753 GeodesicLength=0.16010510949430312 rxn_smarts="[C:1]1([H:7])([H:8])[N:2]([H:9])[C@:3]1([C@@:4]1([H:11])[C:5]([H:12])([H:13])[O:6]1)[H:10]>>[C:1]1([H:7])([H:8])[N+:2]([H:9])([H:10])[C-:3]1[C@@:4]1([H:11])[C:5]([H:12])([H:13])[O:6]1"
C       -1.70862104      -0.37024797      -0.22422807
N       -1.25145225       0.93879179       0.25120751
C       -0.47772694       0.02780853      -0.92281407
C        0.77889185      -0.54827431      -0.37844010
C        1.82003966       0.20183716       0.30495216
O        0.96543249      -0.66869411       1.04405142
H       -1.62945286      -1.13563040       0.54287856
H       -2.66093050      -0.35174885      -0.74322455
H       -0.68109632       0.83477129       1.08698650
H       -0.77220740       1.35867211      -0.76333788
H        1.08587076      -1.43477179      -0.93101421
H        2.85619763      -0.11611576       0.24085585
H        1.67505492       1.26360230       0.49212688
13
Frame=4 idx=002753 GeodesicLength=0.2134735758990445 rxn_smarts="[C:1]1([H:7])([H:8])[N:2]([H:9])[C@:3]1([C@@:4]1([H:11])[C:5]([H:12])([H:13])[O:6]1)[H:10]>>[C:1]1([H:7])([H:8])[N+:2]([H:9])([H:10])[C-:3]1[C@@:4]1([H:11])[C:5]([H:12])([H:13])[O:6]1"
C       -1.71032422      -0.37344526      -0.22187940
N       -1.24416721       0.93435698       0.24820884
C       -0.47829991       0.03170889      -0.91466815
C        0.77992998      -0.54712572      -0.37786299
C        1.82217237       0.20087231       0.30643932
O        0.96773184      -0.67050825       1.04443677
H       -1.63321705      -1.13941504       0.54489418
H       -2.66147078      -0.35122372      -0.74275207
H       -0.68302576       0.83384541       1.09033087
H       -0.78059314       1.36867316      -0.78072340
H        1.08565807      -1.43253728      -0.93269765
H        2.85811665      -0.11759007       0.24106941
H        1.67748918       1.26238859       0.49520426
13
Frame=5 idx=002753 GeodesicLength=0.2668408483798782 rxn_smarts="[C:1]1([H:7])([H:8])[N:2]([H:9])[C@:3]1([C@@:4]1([H:11])[C:5]([H:12])([H:13])[O:6]1)[H:10]>>[C:1]1([H:7])([H:8])[N+:2]([H:9])([H:10])[C-:3]1[C@@:4]1([H:11])[C:5]([H:12])([H:13])[O:6]1"
C       -1.71193870      -0.37654133      -0.21953355
N       -1.23691631       0.93001333       0.24530515
C       -0.47881863       0.03565150      -0.90659285
C        0.78097106      -0.54595394      -0.37731173
C        1.82431123       0.19989538       0.30793122
O        0.97001442      -0.67233570       1.04479250
H       -1.63695215      -1.14311825       0.54688602
H       -2.66192432      -0.35064022      -0.74224973
H       -0.68504728       0.83296789       1.09366180
H       -0.78911462       1.37825653      -0.79807940
H        1.08544677      -1.43026563      -0.93441691
H        2.86003683      -0.11908526       0.24128874
H        1.67993168       1.26115572       0.49831874
13
Frame=6 idx=002753 GeodesicLength=0.3202057647576683 rxn_smarts="[C:1]1([H:7])([H:8])[N:2]([H:9])[C@:3]1([C@@:4]1([H:11])[C:5]([H:12])([H:13])[O:6]1)[H:10]>>[C:1]1([H:7])([H:8])[N+:2]([H:9])([H:10])[C-:3]1[C@@:4]1([H:11])[C:5]([H:12])([H:13])[O:6]1"
C       -1.71346848      -0.37953802      -0.21719233
N       -1.22971112       0.92575506       0.24250764
C       -0.47928609       0.03963556      -0.89858665
C        0.78201327      -0.54475798      -0.37678456
C        1.82645580       0.19890751       0.30942672
O        0.97228021      -0.67417428       1.04512009
H       -1.64066078      -1.14674582       0.54884812
H       -2.66229495      -0.35000148      -0.74172209
H       -0.68715122       0.83214018       1.09697746
H       -0.79775158       1.38743176      -0.81540441
H        1.08523436      -1.42795784      -0.93616703
H        2.86195823      -0.12059971       0.24151130
H        1.68238235       1.25990505       0.50146574
13
Frame=7 idx=002753 GeodesicLength=0.3735622364583882 rxn_smarts="[C:1]1([H:7])([H:8])[N:2]([H:9])[C@:3]1([C@@:4]1([H:11])[C:5]([H:12])([H:13])[O:6]1)[H:10]>>[C:1]1([H:7])([H:8])[N+:2]([H:9])([H:10])[C-:3]1[C@@:4]1([H:11])[C:5]([H:12])([H:13])[O:6]1"
C       -1.71491601      -0.38243674      -0.21485776
N       -1.22256081       0.92157628       0.23982687
C       -0.47970455       0.04365889      -0.89064670
C        0.78305426      -0.54353770      -0.37627919
C        1.82860326       0.19791013       0.31092379
O        0.97452858      -0.67602045       1.04542024
H       -1.64434407      -1.15030225       0.55077359
H       -2.66258319      -0.34930926      -0.74117291
H       -0.68933017       0.83136108       1.10027691
H       -0.80648110       1.39620901      -0.83269499
H        1.08501805      -1.42561614      -0.93794172
H        2.86387777      -0.12213088       0.24173271
H        1.68483800       1.25863802       0.50463916
13
Frame=8 idx=002753 GeodesicLength=0.42691547082130604 rxn_smarts="[C:1]1([H:7])([H:8])[N:2]([H:9])[C@:3]1([C@@:4]1([H:11])[C:5]([H:12])([H:13])[O:6]1)[H:10]>>[C:1]1([H:7])([H:8])[N+:2]([H:9])([H:10])[C-:3]1[C@@:4]1([H:11])[C:5]([H:12])([H:13])[O:6]1"
C       -1.71628439      -0.38524099      -0.21252838
N       -1.21547135       0.91747476       0.23726837
C       -0.48007761       0.04771953      -0.88277245
C        0.78409351      -0.54229058      -0.37579701
C        1.83075352       0.19690304       0.31242479
O        0.97675901      -0.67787894       1.04569216
H       -1.64800493      -1.15379313       0.55266315
H       -2.66279609      -0.34856532      -0.74059709
H       -0.69157191       0.83063555       1.10355854
H       -0.81529630       1.40459595      -0.84996816
H        1.08480129      -1.42323453      -0.93974760
H        2.86579567      -0.12367999       0.24195853
H        1.68729958       1.25735464       0.50784517
13
Frame=9 idx=002753 GeodesicLength=0.48026672469847276 rxn_smarts="[C:1]1([H:7])([H:8])[N:2]([H:9])[C@:3]1([C@@:4]1([H:11])[C:5]([H:12])([H:13])[O:6]1)[H:10]>>[C:1]1([H:7])([H:8])[N+:2]([H:9])([H:10])[C-:3]1[C@@:4]1([H:11])[C:5]([H:12])([H:13])[O:6]1"
C       -1.71757712      -0.38795197      -0.21020368
N       -1.20844636       0.91344483       0.23483907
C       -0.48040870       0.05181608      -0.87495929
C        0.78512969      -0.54101379      -0.37533581
C        1.83290679       0.19588708       0.31392989
O        0.97897319      -0.67974891       1.04593434
H       -1.65164599      -1.15722201       0.55451175
H       -2.66293670      -0.34776860      -0.73999534
H       -0.69386901       0.82996012       1.10682284
H       -0.82418628       1.41259750      -0.86723399
H        1.08458172      -1.42080842      -0.94158110
H        2.86771166      -0.12524563       0.24218822
H        1.68976712       1.25605374       0.51108309
13
Frame=10 idx=002753 GeodesicLength=0.533614350443879 rxn_smarts="[C:1]1([H:7])([H:8])[N:2]([H:9])[C@:3]1([C@@:4]1([H:11])[C:5]([H:12])([H:13])[O:6]1)[H:10]>>[C:1]1([H:7])([H:8])[N+:2]([H:9])([H:10])[C-:3]1[C@@:4]1([H:11])[C:5]([H:12])([H:13])[O:6]1"
C       -1.71879761      -0.39057243      -0.20788348
N       -1.20149206       0.90948470       0.23254623
C       -0.48070062       0.05594718      -0.86720462
C        0.78616062      -0.53970740      -0.37489472
C        1.83506082       0.19486357       0.31543881
O        0.98117037      -0.68163063       1.04614883
H       -1.65526868      -1.16059357       0.55631881
H       -2.66300692      -0.34692412      -0.73937112
H       -0.69621340       0.82933528       1.11007229
H       -0.83313161       1.42022451      -0.88450052
H        1.08435679      -1.41833913      -0.94344315
H        2.86962377      -0.12682519       0.24241578
H        1.69223853       1.25473724       0.51435685
13
Frame=11 idx=002753 GeodesicLength=0.5869563561063009 rxn_smarts="[C:1]1([H:7])([H:8])[N:2]([H:9])[C@:3]1([C@@:4]1([H:11])[C:5]([H:12])([H:13])[O:6]1)[H:10]>>[C:1]1([H:7])([H:8])[N+:2]([H:9])([H:10])[C-:3]1[C@@:4]1([H:11])[C:5]([H:12])([H:13])[O:6]1"
C       -1.71995021      -0.39310454      -0.20556889
N       -1.19461350       0.90558937       0.23039858
C       -0.48095636       0.06011243      -0.85950481
C        0.78718462      -0.53837153      -0.37447168
C        1.83721457       0.19383433       0.31695029
O        0.98335196      -0.68352268       1.04633744
H       -1.65887557      -1.16391380       0.55807935
H       -2.66301026      -0.34603152      -0.73872837
H       -0.69859950       0.82875745       1.11331209
H       -0.84211338       1.42748660      -0.90177379
H        1.08412394      -1.41582869      -0.94532936
H        2.87153156      -0.12841497       0.24263729
H        1.69471213       1.25340756       0.51766186
13
Frame=12 idx=002753 GeodesicLength=0.6402949459476674 rxn_smarts="[C:1]1([H:7])([H:8])[N:2]([H:9])[C@:3]1([C@@:4]1([H:11])[C:5]([H:12])([H:13])[O:6]1)[H:10]>>[C:1]1([H:7])([H:8])[N+:2]([H:9])([H:10])[C-:3]1[C@@:4]1([H:11])[C:5]([H:12])([H:13])[O:6]1"
C       -1.72103720      -0.39555000      -0.20325651
N       -1.18781223       0.90175708       0.22839911
C       -0.48117943       0.06431074      -0.85185656
C        0.78820080      -0.53700332      -0.37406778
C        1.83936620       0.19279885       0.31846633
O        0.98551739      -0.68542976       1.04649704
H       -1.66246636      -1.16718416       0.55979555
H       -2.66295018      -0.34509223      -0.73806212
H       -0.70101957       0.82822801       1.11654384
H       -0.85112364       1.43438676      -0.91907538
H        1.08388503      -1.41326973      -0.94724608
H        2.87343314      -0.13001430       0.24285378
H        1.69718607       1.25206207       0.52100878
13
Frame=13 idx=002753 GeodesicLength=0.6936241654414678 rxn_smarts="[C:1]1([H:7])([H:8])[N:2]([H:9])[C@:3]1([C@@:4]1([H:11])[C:5]([H:12])([H:13])[O:6]1)[H:10]>>[C:1]1([H:7])([H:8])[N+:2]([H:9])([H:10])[C-:3]1[C@@:4]1([H:11])[C:5]([H:12])([H:13])[O:6]1"
C       -1.72206271      -0.39790944      -0.20094836
N       -1.18109124       0.89798269       0.22655843
C       -0.48137134       0.06854314      -0.84425339
C        0.78920754      -0.53560335      -0.37367949
C        1.84151523       0.19175933       0.31998374
O        0.98766978      -0.68734805       1.04662974
H       -1.66604400      -1.17041223       0.56145686
H       -2.66282872      -0.34410231      -0.73737752
H       -0.70346878       0.82773783       1.11977504
H       -0.86014612       1.44093308      -0.93640929
H        1.08363340      -1.41066689      -0.94918444
H        2.87532932      -0.13161753       0.24306384
H        1.69965764       1.25070372       0.52438485
13
Frame=14 idx=002753 GeodesicLength=0.7469517760636066 rxn_smarts="[C:1]1([H:7])([H:8])[N:2]([H:9])[C@:3]1([C@@:4]1([H:11])[C:5]([H:12])([H:13])[O:6]1)[H:10]>>[C:1]1([H:7])([H:8])[N+:2]([H:9])([H:10])[C-:3]1[C@@:4]1([H:11])[C:5]([H:12])([H:13])[O:6]1"
C       -1.72303025      -0.40018556      -0.19864242
N       -1.17445035       0.89426385       0.22487999
C       -0.48153520       0.07280943      -0.83669176
C        0.79020401      -0.53416880      -0.37330689
C        1.84366153       0.19071673       0.32150507
O        0.98981008      -0.68928197       1.04673458
H       -1.66961097      -1.17360176       0.56306413
H       -2.66265208      -0.34305992      -0.73666964
H       -0.70594055       0.82728578       1.12301090
H       -0.86917364       1.44712691      -0.95380129
H        1.08337003      -1.40801356      -0.95114992
H        2.87721950      -0.13322305       0.24326599
H        1.70212788       1.24933191       0.52780126
13
Frame=15 idx=002753 GeodesicLength=0.8002789643137509 rxn_smarts="[C:1]1([H:7])([H:8])[N:2]([H:9])[C@:3]1([C@@:4]1([H:11])[C:5]([H:12])([H:13])[O:6]1)[H:10]>>[C:1]1([H:7])([H:8])[N+:2]([H:9])([H:10])[C-:3]1[C@@:4]1([H:11])[C:5]([H:12])([H:13])[O:6]1"
C       -1.72394176      -0.40237939      -0.19633397
N       -1.16788954       0.89060140       0.22336598
C       -0.48167398       0.07710829      -0.82916843
C        0.79119079      -0.53269628      -0.37295104
C        1.84580440       0.18967008       0.32303399
O        0.99193791      -0.69123760       1.04680950
H       -1.67316944      -1.17675266       0.56462328
H       -2.66242308      -0.34196422      -0.73593228
H       -0.70843057       0.82687067       1.12625476
H       -0.87820440       1.45296732      -0.97127960
H        1.08310134      -1.40529852      -0.95315345
H        2.87910291      -0.13483330       0.24346016
H        1.70459542       1.24794420       0.53127109
13
Frame=16 idx=002753 GeodesicLength=0.8536016008138599 rxn_smarts="[C:1]1([H:7])([H:8])[N:2]([H:9])[C@:3]1([C@@:4]1([H:11])[C:5]([H:12])([H:13])[O:6]1)[H:10]>>[C:1]1([H:7])([H:8])[N+:2]([H:9])([H:10])[C-:3]1[C@@:4]1([H:11])[C:5]([H:12])([H:13])[O:6]1"
C       -1.72480054      -0.40449240      -0.19402240
N       -1.16140994       0.88699116       0.22202476
C       -0.48179062       0.08144158      -0.82167701
C        0.79216500      -0.53118459      -0.37261035
C        1.84794221       0.18862143       0.32456916
O        0.99405465      -0.69321372       1.04685405
H       -1.67672234      -1.17986817       0.56613103
H       -2.66214174      -0.34081493      -0.73517072
H       -0.71093302       0.82648576       1.12951486
H       -0.88722248       1.45845698      -0.98885504
H        1.08282248      -1.40252073      -0.95519246
H        2.88097755      -0.13644452       0.24364363
H        1.70705879       1.24654216       0.53479049
