16
Frame=0 idx=008595 GeodesicLength=0.0 rxn_smarts="[C:1]1([H:8])([H:9])[C@@:2]2([H:10])[C@@:3]3([H:11])[C:4]([H:12])([H:13])[C@:5]([H:14])([C:6]3([H:15])[H:16])[N:7]12>>[C-:1]1([H:9])[C@@:2]2([H:10])[C@@:3]3([H:11])[C:4]([H:12])([H:13])[C@:5]([H:14])([C:6]3([H:15])[H:16])[N+:7]12[H:8]"
C        1.88583730       0.87520749       0.36364421
C        1.12392870      -0.36261067       0.60947644
C       -0.38559127      -0.36954285       0.92983451
C       -0.90361190      -1.17569960      -0.29990067
C       -0.41924678       0.10276689      -1.03001373
C       -0.93409907       0.87012781       0.19335727
N        1.04507672      -0.10639050      -0.83633287
H        1.94621301       0.58906659      -0.98705117
H        1.27405855       1.76659940       0.50652936
H        1.65467586      -1.26600250       0.90505527
H       -0.66755507      -0.61453499       1.95055003
H       -0.39222793      -2.10501757      -0.55274802
H       -1.98528453      -1.30652867      -0.31685042
H       -0.67096397       0.34887021      -2.05824485
H       -0.54913302       1.86300792       0.41193625
H       -2.02207661       0.89068097       0.21075842
16
Frame=1 idx=008595 GeodesicLength=0.056999222876200066 rxn_smarts="[C:1]1([H:8])([H:9])[C@@:2]2([H:10])[C@@:3]3([H:11])[C:4]([H:12])([H:13])[C@:5]([H:14])([C:6]3([H:15])[H:16])[N:7]12>>[C-:1]1([H:9])[C@@:2]2([H:10])[C@@:3]3([H:11])[C:4]([H:12])([H:13])[C@:5]([H:14])([C:6]3([H:15])[H:16])[N+:7]12[H:8]"
C        1.87846068       0.87601858       0.35296817
C        1.12068774      -0.36096872       0.61344816
C       -0.38873870      -0.37100975       0.93184687
C       -0.90328657      -1.17546660      -0.30050464
C       -0.42045632       0.10523399      -1.02740626
C       -0.93772546       0.86937753       0.19723814
N        1.04378543      -0.09708303      -0.83127028
H        1.97580481       0.57092986      -0.99491576
H        1.27503328       1.77224210       0.49782358
H        1.65456858      -1.26333807       0.90601523
H       -0.67194413      -0.61859763       1.95162149
H       -0.38990143      -2.10344201      -0.55454539
H       -1.98470953      -1.30822649      -0.31926718
H       -0.67185329       0.35353660      -2.05520997
H       -0.55396753       1.86198151       0.41919038
H       -2.02575755       0.88881215       0.21296746
16
Frame=2 idx=008595 GeodesicLength=0.1139821058153628 rxn_smarts="[C:1]1([H:8])([H:9])[C@@:2]2([H:10])[C@@:3]3([H:11])[C:4]([H:12])([H:13])[C@:5]([H:14])([C:6]3([H:15])[H:16])[N:7]12>>[C-:1]1([H:9])[C@@:2]2([H:10])[C@@:3]3([H:11])[C:4]([H:12])([H:13])[C@:5]([H:14])([C:6]3([H:15])[H:16])[N+:7]12[H:8]"
C        1.87114231       0.87693891       0.34211433
C        1.11749339      -0.35914242       0.61724287
C       -0.39180757      -0.37242888       0.93377592
C       -0.90289472      -1.17521371      -0.30114447
C       -0.42173858       0.10772938      -1.02486744
C       -0.94136568       0.86865340       0.20107277
N        1.04248208      -0.08761246      -0.82645504
H        2.00485363       0.55194450      -1.00172131
H        1.27607025       1.77785418       0.48930396
H        1.65453601      -1.26045745       0.90679690
H       -0.67616223      -0.62261574       1.95262519
H       -0.38744499      -2.10179538      -0.55640870
H       -1.98405578      -1.30995916      -0.32165692
H       -0.67292077       0.35821806      -2.05221740
H       -0.55874054       1.86095526       0.42634744
H       -2.02944679       0.88693150       0.21519190
16
Frame=3 idx=008595 GeodesicLength=0.1709500623022862 rxn_smarts="[C:1]1([H:8])([H:9])[C@@:2]2([H:10])[C@@:3]3([H:11])[C:4]([H:12])([H:13])[C@:5]([H:14])([C:6]3([H:15])[H:16])[N:7]12>>[C-:1]1([H:9])[C@@:2]2([H:10])[C@@:3]3([H:11])[C:4]([H:12])([H:13])[C@:5]([H:14])([C:6]3([H:15])[H:16])[N+:7]12[H:8]"
C        1.86389283       0.87794351       0.33111988
C        1.11435284      -0.35715115       0.62085431
C       -0.39479065      -0.37380237       0.93561974
C       -0.90244208      -1.17494525      -0.30181584
C       -0.42308010       0.11023709      -1.02240205
C       -0.94499967       0.86795298       0.20484970
N        1.04117501      -0.07802731      -0.82188976
H        2.03325398       0.53228418      -1.00748903
H        1.27718712       1.78341593       0.48098453
H        1.65457294      -1.25738123       0.90741222
H       -0.68020550      -0.62658275       1.95356055
H       -0.38487993      -2.10009290      -0.55832279
H       -1.98333075      -1.31171713      -0.32401483
H       -0.67415413       0.36289092      -2.04927361
H       -0.56342774       1.85992694       0.43338668
H       -2.03312417       0.88504854       0.21742030
16
Frame=4 idx=008595 GeodesicLength=0.2278956561481575 rxn_smarts="[C:1]1([H:8])([H:9])[C@@:2]2([H:10])[C@@:3]3([H:11])[C:4]([H:12])([H:13])[C@:5]([H:14])([C:6]3([H:15])[H:16])[N:7]12>>[C-:1]1([H:9])[C@@:2]2([H:10])[C@@:3]3([H:11])[C:4]([H:12])([H:13])[C@:5]([H:14])([C:6]3([H:15])[H:16])[N+:7]12[H:8]"
C        1.85672224       0.87900732       0.32001878
C        1.11127155      -0.35501649       0.62428033
C       -0.39768319      -0.37513315       0.93737814
C       -0.90193534      -1.17466575      -0.30251407
C       -0.42446743       0.11274194      -1.02001329
C       -0.94860915       0.86727373       0.20855921
N        1.03987163      -0.06837493      -0.81757294
H        2.06092035       0.51212521      -1.01225082
H        1.27839992       1.78890881       0.47287171
H        1.65467311      -1.25413313       0.90787461
H       -0.68407366      -0.63049299       1.95442858
H       -0.38222820      -2.09835008      -0.56027266
H       -1.98254290      -1.31349122      -0.32633681
H       -0.67553927       0.36753340      -2.04638368
H       -0.56800808       1.85889487       0.44029082
H       -2.03677156       0.88317245       0.21964210
16
Frame=5 idx=008595 GeodesicLength=0.28483069793449756 rxn_smarts="[C:1]1([H:8])([H:9])[C@@:2]2([H:10])[C@@:3]3([H:11])[C:4]([H:12])([H:13])[C@:5]([H:14])([C:6]3([H:15])[H:16])[N:7]12>>[C-:1]1([H:9])[C@@:2]2([H:10])[C@@:3]3([H:11])[C:4]([H:12])([H:13])[C@:5]([H:14])([C:6]3([H:15])[H:16])[N+:7]12[H:8]"
C        1.84963524       0.88010626       0.30884232
C        1.10825219      -0.35276052       0.62752388
C       -0.40048334      -0.37642504       0.93905301
C       -0.90138221      -1.17437909      -0.30323448
C       -0.42588819       0.11523082      -1.01770174
C       -0.95217866       0.86661249       0.21219504
N        1.03857775      -0.05870001      -0.81349849
H        2.08779941       0.49163705      -1.01605487
H        1.27972053       1.79431648       0.46496079
H        1.65482964      -1.25073684       0.90820028
H       -0.68777062      -0.63434339       1.95523168
H       -0.37951183      -2.09658092      -0.56224426
H       -1.98170155      -1.31527243      -0.32862036
H       -0.67706050       0.37212789      -2.04355038
H       -0.57246428       1.85785629       0.44704898
H       -2.04037358       0.88131095       0.22184860
16
Frame=6 idx=008595 GeodesicLength=0.3417315162273657 rxn_smarts="[C:1]1([H:8])([H:9])[C@@:2]2([H:10])[C@@:3]3([H:11])[C:4]([H:12])([H:13])[C@:5]([H:14])([C:6]3([H:15])[H:16])[N:7]12>>[C-:1]1([H:9])[C@@:2]2([H:10])[C@@:3]3([H:11])[C:4]([H:12])([H:13])[C@:5]([H:14])([C:6]3([H:15])[H:16])[N+:7]12[H:8]"
C        1.84263638       0.88121800       0.29762541
C        1.10529728      -0.35040540       0.63058770
C       -0.40319016      -0.37768220       0.94064648
C       -0.90079090      -1.17408957      -0.30397231
C       -0.42733142       0.11769107      -1.01546805
C       -0.95569445       0.86596651       0.21575138
N        1.03729771      -0.04904561      -0.80965960
H        2.11385034       0.47098442      -1.01894820
H        1.28116263       1.79962398       0.45724115
H        1.65503568      -1.24721692       0.90840296
H       -0.69130121      -0.63813148       1.95597249
H       -0.37675305      -2.09480009      -0.56422395
H       -1.98081681      -1.31705262      -0.33086217
H       -0.67870331       0.37665799      -2.04077600
H       -0.57678195       1.85681006       0.45365030
H       -2.04391677       0.87947187       0.22403240
16
Frame=7 idx=008595 GeodesicLength=0.3986025657807282 rxn_smarts="[C:1]1([H:8])([H:9])[C@@:2]2([H:10])[C@@:3]3([H:11])[C:4]([H:12])([H:13])[C@:5]([H:14])([C:6]3([H:15])[H:16])[N:7]12>>[C-:1]1([H:9])[C@@:2]2([H:10])[C@@:3]3([H:11])[C:4]([H:12])([H:13])[C@:5]([H:14])([C:6]3([H:15])[H:16])[N+:7]12[H:8]"
C        1.83572513       0.88232137       0.28639727
C        1.10240685      -0.34797241       0.63347829
C       -0.40580514      -0.37890916       0.94216245
C       -0.90017054      -1.17380078      -0.30472281
C       -0.42878784       0.12011230      -1.01331090
C       -0.95914560       0.86533288       0.21922575
N        1.03603356      -0.03945006      -0.80604697
H        2.13906688       0.45031730      -1.02098861
H        1.28273199       1.80481981       0.44969539
H        1.65528422      -1.24359692       0.90849725
H       -0.69467309      -0.64185652       1.95665517
H       -0.37397364      -2.09302060      -0.56619959
H       -1.97989943      -1.31882427      -0.33305995
H       -0.68045284       0.38111124      -2.03806149
H       -0.58095002       1.85575422       0.46009022
H       -2.04739048       0.87766160       0.22618852
16
Frame=8 idx=008595 GeodesicLength=0.45544044816934165 rxn_smarts="[C:1]1([H:8])([H:9])[C@@:2]2([H:10])[C@@:3]3([H:11])[C:4]([H:12])([H:13])[C@:5]([H:14])([C:6]3([H:15])[H:16])[N:7]12>>[C-:1]1([H:9])[C@@:2]2([H:10])[C@@:3]3([H:11])[C:4]([H:12])([H:13])[C@:5]([H:14])([C:6]3([H:15])[H:16])[N+:7]12[H:8]"
C        1.82890151       0.88340026       0.27518350
C        1.09957963      -0.34548144       0.63620351
C       -0.40833141      -0.38011067       0.94360535
C       -0.89952960      -1.17351590      -0.30548187
C       -0.43025068       0.12248667      -1.01122769
C       -0.96252511       0.86470881       0.22261757
N        1.03478553      -0.02994436      -0.80264864
H        2.16346308       0.42976230      -1.02223346
H        1.28443439       1.80989589       0.44230019
H        1.65556825      -1.23989926       0.90849575
H       -0.69789547      -0.64551975       1.95728383
H       -0.37119249      -2.09125328      -0.56816144
H       -1.97895946      -1.32058151      -0.33521192
H       -0.68229663       0.38547929      -2.03540572
H       -0.58496353       1.85468800       0.46636708
H       -2.05078802       0.87588495       0.22831396
16
Frame=9 idx=008595 GeodesicLength=0.5123006124163892 rxn_smarts="[C:1]1([H:8])([H:9])[C@@:2]2([H:10])[C@@:3]3([H:11])[C:4]([H:12])([H:13])[C@:5]([H:14])([C:6]3([H:15])[H:16])[N:7]12>>[C-:1]1([H:9])[C@@:2]2([H:10])[C@@:3]3([H:11])[C:4]([H:12])([H:13])[C@:5]([H:14])([C:6]3([H:15])[H:16])[N+:7]12[H:8]"
C        1.82216224       0.88444347       0.26399737
C        1.09681132      -0.34294924       0.63877516
C       -0.41077443      -0.38129130       0.94498091
C       -0.89887614      -1.17323598      -0.30624623
C       -0.43171642       0.12481061      -1.00921299
C       -0.96583107       0.86409116       0.22593072
N        1.03355083      -0.02054922      -0.79944832
H        2.18709556       0.40940875      -1.02274945
H        1.28626329       1.81485174       0.43502721
H        1.65588020      -1.23614353       0.90841196
H       -0.70097887      -0.64912468       1.95786280
H       -0.36842540      -2.08950427      -0.57010331
H       -1.97800588      -1.32231933      -0.33731845
H       -0.68422347       0.38976035      -2.03280488
H       -0.58882406       1.85360853       0.47248824
H       -2.05410771       0.87414295       0.23040926
16
Frame=10 idx=008595 GeodesicLength=0.5691302710589928 rxn_smarts="[C:1]1([H:8])([H:9])[C@@:2]2([H:10])[C@@:3]3([H:11])[C:4]([H:12])([H:13])[C@:5]([H:14])([C:6]3([H:15])[H:16])[N:7]12>>[C-:1]1([H:9])[C@@:2]2([H:10])[C@@:3]3([H:11])[C:4]([H:12])([H:13])[C@:5]([H:14])([C:6]3([H:15])[H:16])[N+:7]12[H:8]"
C        1.81550292       0.88543723       0.25286660
C        1.09410131      -0.34039175       0.64119687
C       -0.41313687      -0.38245509       0.94629264
C       -0.89821884      -1.17296466      -0.30701202
C       -0.43318154       0.12707733      -1.00726595
C       -0.96905805       0.86347842       0.22916470
N        1.03232737      -0.01128996      -0.79643998
H        2.20998979       0.38936137      -1.02257539
H        1.28822550       1.81967984       0.42785232
H        1.65621549      -1.23234739       0.90825111
H       -0.70393046      -0.65267201       1.95839662
H       -0.36568978      -2.08778433      -0.57201722
H       -1.97704889      -1.32403385      -0.33937597
H       -0.68622586       0.39394723      -2.03025917
H       -0.59252742       1.85251689       0.47845109
H       -2.05734469       0.87244073       0.23247374
16
Frame=11 idx=008595 GeodesicLength=0.6259315751804982 rxn_smarts="[C:1]1([H:8])([H:9])[C@@:2]2([H:10])[C@@:3]3([H:11])[C:4]([H:12])([H:13])[C@:5]([H:14])([C:6]3([H:15])[H:16])[N:7]12>>[C-:1]1([H:9])[C@@:2]2([H:10])[C@@:3]3([H:11])[C:4]([H:12])([H:13])[C@:5]([H:14])([C:6]3([H:15])[H:16])[N+:7]12[H:8]"
C        1.80891777       0.88637417       0.24180542
C        1.09144594      -0.33782184       0.64347610
C       -0.41542340      -0.38360579       0.94754499
C       -0.89756540      -1.17270334      -0.30777632
C       -0.43464549       0.12928398      -1.00538291
C       -0.97220542       0.86286829       0.23232280
N        1.03111068      -0.00218107      -0.79361305
H        2.23220440       0.36968837      -1.02175690
H        1.29031896       1.82437867       0.42074838
H        1.65656897      -1.22852562       0.90801985
H       -0.70675853      -0.65616494       1.95888896
H       -0.36299927      -2.08609915      -0.57389860
H       -1.97609708      -1.32572171      -0.34138304
H       -0.68829790       0.39803865      -2.02776580
H       -0.59607577       1.85141151       0.48426095
H       -2.06049848       0.87077983       0.23450919
16
Frame=12 idx=008595 GeodesicLength=0.6827062902659662 rxn_smarts="[C:1]1([H:8])([H:9])[C@@:2]2([H:10])[C@@:3]3([H:11])[C:4]([H:12])([H:13])[C@:5]([H:14])([C:6]3([H:15])[H:16])[N:7]12>>[C-:1]1([H:9])[C@@:2]2([H:10])[C@@:3]3([H:11])[C:4]([H:12])([H:13])[C@:5]([H:14])([C:6]3([H:15])[H:16])[N+:7]12[H:8]"
C        1.80240155       0.88724775       0.23082332
C        1.08884167      -0.33525126       0.64561903
C       -0.41763873      -0.38474671       0.94874219
C       -0.89692335      -1.17245358      -0.30853656
C       -0.43610908       0.13142849      -1.00356064
C       -0.97527364       0.86225914       0.23540855
N        1.02989550       0.00676610      -0.79095851
H        2.25380468       0.35044653      -1.02033185
H        1.29253922       1.82894818       0.41369095
H        1.65693605      -1.22469183       0.90772206
H       -0.70947058      -0.65960606       1.95934403
H       -0.36036640      -2.08445385      -0.57574414
H       -1.97515897      -1.32738069      -0.34333766
H       -0.69043569       0.40203413      -2.02532234
H       -0.59947216       1.85029220       0.48992287
H       -2.06357006       0.86916145       0.23651868
16
Frame=13 idx=008595 GeodesicLength=0.7394717711893088 rxn_smarts="[C:1]1([H:8])([H:9])[C@@:2]2([H:10])[C@@:3]3([H:11])[C:4]([H:12])([H:13])[C@:5]([H:14])([C:6]3([H:15])[H:16])[N:7]12>>[C-:1]1([H:9])[C@@:2]2([H:10])[C@@:3]3([H:11])[C:4]([H:12])([H:13])[C@:5]([H:14])([C:6]3([H:15])[H:16])[N+:7]12[H:8]"
C        1.79594842       0.88805494       0.21992655
C        1.08628441      -0.33268867       0.64763171
C       -0.41978774      -0.38588090       0.94988823
C       -0.89629927      -1.17221579      -0.30929084
C       -0.43757510       0.13351101      -1.00179536
C       -0.97826563       0.86164944       0.23842698
N        1.02867542       0.01554588      -0.78846715
H        2.27486757       0.33166823      -1.01833501
H        1.29487872       1.83339200       0.40665447
H        1.65731281      -1.22085624       0.90735994
H       -0.71207358      -0.66299935       1.95976535
H       -0.35780096      -2.08285104      -0.57755269
H       -1.97424176      -1.32900956      -0.34523851
H       -0.69263784       0.40593629      -2.02292533
H       -0.60272296       1.84915840       0.49544484
H       -2.06656252       0.86758537       0.23850682
16
Frame=14 idx=008595 GeodesicLength=0.7962316164867589 rxn_smarts="[C:1]1([H:8])([H:9])[C@@:2]2([H:10])[C@@:3]3([H:11])[C:4]([H:12])([H:13])[C@:5]([H:14])([C:6]3([H:15])[H:16])[N:7]12>>[C-:1]1([H:9])[C@@:2]2([H:10])[C@@:3]3([H:11])[C:4]([H:12])([H:13])[C@:5]([H:14])([C:6]3([H:15])[H:16])[N+:7]12[H:8]"
C        1.78955247       0.88879371       0.20911677
C        1.08377055      -0.33014230       0.64951858
C       -0.42187491      -0.38701083       0.95098655
C       -0.89569942      -1.17199100      -0.31003729
C       -0.43904684       0.13553142      -1.00008428
C       -0.98118410       0.86103818       0.24138219
N        1.02744404       0.02415480      -0.78613188
H        2.29546334       0.31338394      -1.01579051
H        1.29733367       1.83771091       0.39961838
H        1.65769586      -1.21702877       0.90693352
H       -0.71457331      -0.66634730       1.96015653
H       -0.35531193      -2.08129371      -0.57932349
H       -1.97335240      -1.33060768      -0.34708341
H       -0.69490429       0.40974648      -2.02057237
H       -0.60583365       1.84801052       0.50083271
H       -2.06947906       0.86605164       0.24047803
16
Frame=15 idx=008595 GeodesicLength=0.8529954149573069 rxn_smarts="[C:1]1([H:8])([H:9])[C@@:2]2([H:10])[C@@:3]3([H:11])[C:4]([H:12])([H:13])[C@:5]([H:14])([C:6]3([H:15])[H:16])[N:7]12>>[C-:1]1([H:9])[C@@:2]2([H:10])[C@@:3]3([H:11])[C:4]([H:12])([H:13])[C@:5]([H:14])([C:6]3([H:15])[H:16])[N+:7]12[H:8]"
C        1.78320847       0.88946298       0.19839549
C        1.08129653      -0.32761809       0.65128332
C       -0.42390429      -0.38813865       0.95204024
C       -0.89512921      -1.17177938      -0.31077462
C       -0.44052856       0.13749085      -0.99842444
C       -0.98403289       0.86042447       0.24427894
N        1.02619457       0.03259275      -0.78394620
H        2.31566564       0.29560785      -1.01271950
H        1.29989658       1.84190914       0.39256192
H        1.65808229      -1.21321702       0.90644151
H       -0.71697449      -0.66965322       1.96052051
H       -0.35290644      -2.07978304      -0.58105711
H       -1.97249675      -1.33217474      -0.34887062
H       -0.69723669       0.41346788      -2.01826055
H       -0.60881103       1.84684868       0.50609353
H       -2.07232375       0.86455955       0.24243758
16
Frame=16 idx=008595 GeodesicLength=0.9097722885578485 rxn_smarts="[C:1]1([H:8])([H:9])[C@@:2]2([H:10])[C@@:3]3([H:11])[C:4]([H:12])([H:13])[C@:5]([H:14])([C:6]3([H:15])[H:16])[N:7]12>>[C-:1]1([H:9])[C@@:2]2([H:10])[C@@:3]3([H:11])[C:4]([H:12])([H:13])[C@:5]([H:14])([C:6]3([H:15])[H:16])[N+:7]12[H:8]"
C        1.77691209       0.89006230       0.18775744
C        1.07885917      -0.32512165       0.65292802
C       -0.42587941      -0.38926600       0.95305183
C       -0.89459406      -1.17158129      -0.31150159
C       -0.44202533       0.13939036      -0.99681357
C       -0.98681585       0.85980771       0.24712156
N        1.02491987       0.04086100      -0.78190548
H        2.33554645       0.27835134      -1.00913212
H        1.30256042       1.84598990       0.38546871
H        1.65846970      -1.20942819       0.90588041
H       -0.71928052      -0.67291920       1.96086020
H       -0.35059137      -2.07832022      -0.58275462
H       -1.97168077      -1.33371092      -0.35059752
H       -0.69963819       0.41710300      -2.01598763
H       -0.61166141       1.84567329       0.51123341
H       -2.07510077       0.86310857       0.24439096
