9
Frame=0 idx=001711 GeodesicLength=0.0 rxn_smarts="[O:1]([C:2]([C:3]#[C:4][C:5]#[N:6])([H:8])[H:9])[H:7]>>[O:1]([C:2]([C:3](=[C-:4])[N+:6]#[C:5])([H:8])[H:9])[H:7]"
O       -1.53887492       0.87346512      -0.51128674
C       -0.97724352      -0.07495727       0.35672803
C        0.33838940      -0.56559095      -0.07273316
C        1.26858732      -1.30866219      -0.52858407
C        2.72228439      -0.25878663      -0.43042189
N        1.71282366       0.31384050      -0.04986200
H       -0.98771734       1.65963060      -0.51784788
H       -1.64218387      -0.94025253       0.37145794
H       -0.89606508       0.30131335       1.38254974
9
Frame=1 idx=001711 GeodesicLength=0.09549639915302281 rxn_smarts="[O:1]([C:2]([C:3]#[C:4][C:5]#[N:6])([H:8])[H:9])[H:7]>>[O:1]([C:2]([C:3](=[C-:4])[N+:6]#[C:5])([H:8])[H:9])[H:7]"
O       -1.56218039       0.87188004      -0.50083469
C       -0.97752701      -0.07355753       0.35469859
C        0.34100352      -0.53864780      -0.09630203
C        1.25261572      -1.31320273      -0.52975702
C        2.74647221      -0.30180822      -0.37114946
N        1.74693538       0.33877139      -0.10335694
H       -1.02264648       1.66607736      -0.50804548
H       -1.63257723      -0.94642726       0.37242380
H       -0.89209571       0.29691476       1.38232322
9
Frame=2 idx=001711 GeodesicLength=0.19051743786028613 rxn_smarts="[O:1]([C:2]([C:3]#[C:4][C:5]#[N:6])([H:8])[H:9])[H:7]>>[O:1]([C:2]([C:3](=[C-:4])[N+:6]#[C:5])([H:8])[H:9])[H:7]"
O       -1.58244681       0.87091367      -0.49090878
C       -0.97747293      -0.07259258       0.35207388
C        0.34348293      -0.51334634      -0.11895308
C        1.23699150      -1.31963829      -0.52459493
C        2.76271638      -0.33657918      -0.31754165
N        1.78291682       0.35962356      -0.15605588
H       -1.05366883       1.67232338      -0.49704673
H       -1.62379163      -0.95201180       0.37122248
H       -0.88872744       0.29130757       1.38180468
9
Frame=3 idx=001711 GeodesicLength=0.2854288219442943 rxn_smarts="[O:1]([C:2]([C:3]#[C:4][C:5]#[N:6])([H:8])[H:9])[H:7]>>[O:1]([C:2]([C:3](=[C-:4])[N+:6]#[C:5])([H:8])[H:9])[H:7]"
O       -1.60002095       0.87039950      -0.48163347
C       -0.97742244      -0.07204748       0.34915701
C        0.34597128      -0.48968750      -0.13950611
C        1.22117933      -1.32693897      -0.51457138
C        2.77355761      -0.36405680      -0.27022849
N        1.82062836       0.37663914      -0.20719533
H       -1.08092374       1.67814343      -0.48541204
H       -1.61612834      -0.95712602       0.36810321
H       -0.88684110       0.28467469       1.38128661
9
Frame=4 idx=001711 GeodesicLength=0.38005529702065777 rxn_smarts="[O:1]([C:2]([C:3]#[C:4][C:5]#[N:6])([H:8])[H:9])[H:7]>>[O:1]([C:2]([C:3](=[C-:4])[N+:6]#[C:5])([H:8])[H:9])[H:7]"
O       -1.61521327       0.87042794      -0.47269290
C       -0.97743739      -0.07197580       0.34609091
C        0.34830495      -0.46796403      -0.15817627
C        1.20512086      -1.33456439      -0.50102505
C        2.78038365      -0.38498352      -0.22648710
N        1.85922891       0.39034092      -0.25899869
H       -1.10453734       1.68353681      -0.47308895
H       -1.60976927      -0.96174693       0.36350117
H       -0.88608109       0.27692901       1.38087688
9
Frame=5 idx=001711 GeodesicLength=0.4746008663133222 rxn_smarts="[O:1]([C:2]([C:3]#[C:4][C:5]#[N:6])([H:8])[H:9])[H:7]>>[O:1]([C:2]([C:3](=[C-:4])[N+:6]#[C:5])([H:8])[H:9])[H:7]"
O       -1.62798287       0.87093337      -0.46448188
C       -0.97791062      -0.07236733       0.34310253
C        0.35075359      -0.44812442      -0.17343353
C        1.18881397      -1.34208578      -0.48411207
C        2.78478216      -0.39983424      -0.18852880
N        1.89876922       0.40083555      -0.31020318
H       -1.12442906       1.68848820      -0.46034739
H       -1.60504360      -0.96599243       0.35714524
H       -0.88775278       0.26814710       1.38085907
9
Frame=6 idx=001711 GeodesicLength=0.5692270888627878 rxn_smarts="[O:1]([C:2]([C:3]#[C:4][C:5]#[N:6])([H:8])[H:9])[H:7]>>[O:1]([C:2]([C:3](=[C-:4])[N+:6]#[C:5])([H:8])[H:9])[H:7]"
O       -1.63960079       0.87090223      -0.45713034
C       -0.97860318      -0.07283587       0.34050795
C        0.35359740      -0.42877917      -0.18568322
C        1.17143401      -1.34799324      -0.46813560
C        2.78761895      -0.41143378      -0.15452654
N        1.94037082       0.40812540      -0.35852031
H       -1.14280868       1.69253805      -0.44843369
H       -1.60077538      -0.97006522       0.35072667
H       -0.89123317       0.25954161       1.38119507
9
Frame=7 idx=001711 GeodesicLength=0.6638912328921197 rxn_smarts="[O:1]([C:2]([C:3]#[C:4][C:5]#[N:6])([H:8])[H:9])[H:7]>>[O:1]([C:2]([C:3](=[C-:4])[N+:6]#[C:5])([H:8])[H:9])[H:7]"
O       -1.64972854       0.87116582      -0.45033063
C       -0.97976008      -0.07360496       0.33809974
C        0.35661562      -0.41057340      -0.19509892
C        1.15381446      -1.35326320      -0.45049452
C        2.78942550      -0.41884449      -0.12412168
N        1.98301281       0.41256273      -0.40689521
H       -1.15888633       1.69631121      -0.43624728
H       -1.59770648      -0.97391960       0.34315468
H       -0.89678696       0.25016588       1.38193381
9
Frame=8 idx=001711 GeodesicLength=0.7584745220256659 rxn_smarts="[O:1]([C:2]([C:3]#[C:4][C:5]#[N:6])([H:8])[H:9])[H:7]>>[O:1]([C:2]([C:3](=[C-:4])[N+:6]#[C:5])([H:8])[H:9])[H:7]"
O       -1.65810578       0.87226593      -0.44373785
C       -0.98142360      -0.07481664       0.33566433
C        0.35954357      -0.39391028      -0.20237659
C        1.13644989      -1.35838218      -0.42965720
C        2.79015197      -0.42107896      -0.09597298
N        2.02600866       0.41385680      -0.45784282
H       -1.17221346       1.70019911      -0.42284883
H       -1.59618087      -0.97744184       0.33380845
H       -0.90423037       0.23930805       1.38296349
9
Frame=9 idx=001711 GeodesicLength=0.8531229688116563 rxn_smarts="[O:1]([C:2]([C:3]#[C:4][C:5]#[N:6])([H:8])[H:9])[H:7]>>[O:1]([C:2]([C:3](=[C-:4])[N+:6]#[C:5])([H:8])[H:9])[H:7]"
O       -1.66504563       0.87399207      -0.43754113
C       -0.98368089      -0.07636555       0.33331165
C        0.36257885      -0.37833057      -0.20705903
C        1.11926306      -1.36293450      -0.40621470
C        2.79048046      -0.41885538      -0.07085899
N        2.06972900       0.41183040      -0.51026045
H       -1.18338310       1.70416973      -0.40851539
H       -1.59598421      -0.98073776       0.32281749
H       -0.91395755       0.22723154       1.38432055
9
Frame=10 idx=001711 GeodesicLength=0.947944701484587 rxn_smarts="[O:1]([C:2]([C:3]#[C:4][C:5]#[N:6])([H:8])[H:9])[H:7]>>[O:1]([C:2]([C:3](=[C-:4])[N+:6]#[C:5])([H:8])[H:9])[H:7]"
O       -1.67168340       0.87542632      -0.43178355
C       -0.98619437      -0.07789395       0.33124562
C        0.36585575      -0.36271555      -0.20989813
C        1.10157087      -1.36601823      -0.38360995
C        2.79048634      -0.41432909      -0.04791894
N        2.11529865       0.40654208      -0.56131475
H       -1.19433070       1.70776238      -0.39438838
H       -1.59601006      -0.98392904       0.31180666
H       -0.92499306       0.21515508       1.38586143
9
Frame=11 idx=001711 GeodesicLength=1.0426121872243557 rxn_smarts="[O:1]([C:2]([C:3]#[C:4][C:5]#[N:6])([H:8])[H:9])[H:7]>>[O:1]([C:2]([C:3](=[C-:4])[N+:6]#[C:5])([H:8])[H:9])[H:7]"
O       -1.67685761       0.87742472      -0.42665999
C       -0.98952536      -0.07971840       0.32942158
C        0.36943422      -0.34786750      -0.20898018
C        1.08428280      -1.36826251      -0.35840441
C        2.79116218      -0.40611793      -0.02955651
N        2.16131511       0.39823108      -0.61297322
H       -1.20319746       1.71138001      -0.37953388
H       -1.59730719      -0.98694764       0.29886191
H       -0.93930669       0.20187819       1.38782469
9
Frame=12 idx=001711 GeodesicLength=1.1373356051895687 rxn_smarts="[O:1]([C:2]([C:3]#[C:4][C:5]#[N:6])([H:8])[H:9])[H:7]>>[O:1]([C:2]([C:3](=[C-:4])[N+:6]#[C:5])([H:8])[H:9])[H:7]"
O       -1.68111638       0.87987526      -0.42192960
C       -0.99345161      -0.08172793       0.32772049
C        0.37323154      -0.33336206      -0.20540574
C        1.06730536      -1.36950367      -0.33121684
C        2.79224273      -0.39458058      -0.01432538
N        2.20820290       0.38644022      -0.66535532
H       -1.21093880       1.71512017      -0.36381088
H       -1.59939695      -0.98981521       0.28437130
H       -0.95607878       0.18755380       1.38995197
9
Frame=13 idx=001711 GeodesicLength=1.2320842589326224 rxn_smarts="[O:1]([C:2]([C:3]#[C:4][C:5]#[N:6])([H:8])[H:9])[H:7]>>[O:1]([C:2]([C:3](=[C-:4])[N+:6]#[C:5])([H:8])[H:9])[H:7]"
O       -1.68529794       0.88203172      -0.41762568
C       -0.99772832      -0.08366041       0.32639467
C        0.37728958      -0.31849066      -0.19952520
C        1.05011271      -1.36922860      -0.30493043
C        2.79381036      -0.38166838      -0.00204878
N        2.25664189       0.37187313      -0.71584417
H       -1.21882544       1.71851955      -0.34839066
H       -1.60151070      -0.99261790       0.26977939
H       -0.97449214       0.17324155       1.39219085
9
Frame=14 idx=001711 GeodesicLength=1.3267912985659147 rxn_smarts="[O:1]([C:2]([C:3]#[C:4][C:5]#[N:6])([H:8])[H:9])[H:7]>>[O:1]([C:2]([C:3](=[C-:4])[N+:6]#[C:5])([H:8])[H:9])[H:7]"
O       -1.68820221       0.88507717      -0.41361303
C       -1.00272751      -0.08588093       0.32502215
C        0.38150495      -0.30409235      -0.19066582
C        1.03376835      -1.36808885      -0.27498116
C        2.79595863      -0.36465638       0.00681355
N        2.30538135       0.35331562      -0.76828146
H       -1.22520039       1.72231683      -0.33131016
H       -1.60450782      -0.99520363       0.25263206
H       -0.99597535       0.15721252       1.39438388
9
Frame=15 idx=001711 GeodesicLength=1.4215120020981713 rxn_smarts="[O:1]([C:2]([C:3]#[C:4][C:5]#[N:6])([H:8])[H:9])[H:7]>>[O:1]([C:2]([C:3](=[C-:4])[N+:6]#[C:5])([H:8])[H:9])[H:7]"
O       -1.69134580       0.88773266      -0.40987491
C       -1.00797715      -0.08795407       0.32403879
C        0.38586212      -0.28911585      -0.17982133
C        1.01721186      -1.36542415      -0.24646973
C        2.79856888      -0.34683827       0.01286212
N        2.35576764       0.33222637      -0.81827668
H       -1.23220220       1.72573994      -0.31466545
H       -1.60720760      -0.99772037       0.23569230
H       -1.01867776       0.14135373       1.39651491
9
Frame=16 idx=001711 GeodesicLength=1.5163967066506994 rxn_smarts="[O:1]([C:2]([C:3]#[C:4][C:5]#[N:6])([H:8])[H:9])[H:7]>>[O:1]([C:2]([C:3](=[C-:4])[N+:6]#[C:5])([H:8])[H:9])[H:7]"
O       -1.69457404       0.89051089      -0.40598301
C       -1.01342138      -0.09000404       0.32309057
C        0.38994026      -0.27406513      -0.16835882
C        1.00077739      -1.36164661      -0.21795066
C        2.80082591      -0.32635286       0.01742881
N        2.40786276       0.30741679      -0.86749611
H       -1.23955227       1.72914418      -0.29738368
H       -1.60985339      -1.00003962       0.21835731
H       -1.04200524       0.12503640       1.39829558
