10
Frame=0 idx=001806 GeodesicLength=0.0 rxn_smarts="[O:1]([c:2]1[c:3]([H:8])[c:4]([H:9])[n:5][n:6]1[H:10])[H:7]>>[O:1]([C:2]1=[C+:3][C:4]([H:8])([H:9])[N-:5][N:6]1[H:10])[H:7]"
O       -2.12898924       0.11391159       0.22877399
C       -0.79313285       0.12863670       0.05259155
C        0.13060623       1.16025107       0.13439257
C        1.34480215       0.35946728      -0.15344023
N        1.07727011      -0.97197214      -0.49599854
N       -0.20543787      -1.03161444      -0.32684045
H       -2.37649508       1.00352207       0.49844739
H        1.33294686       0.39917430       0.99176092
H        2.29331648       0.75974904      -0.48869181
H       -0.67488680      -1.92112547      -0.44099541
10
Frame=1 idx=001806 GeodesicLength=0.06652327221428601 rxn_smarts="[O:1]([c:2]1[c:3]([H:8])[c:4]([H:9])[n:5][n:6]1[H:10])[H:7]>>[O:1]([C:2]1=[C+:3][C:4]([H:8])([H:9])[N-:5][N:6]1[H:10])[H:7]"
O       -2.12762036       0.11416590       0.22924001
C       -0.79439129       0.13086549       0.03326733
C        0.13471696       1.15496837       0.12334602
C        1.34757353       0.35290796      -0.15152465
N        1.08032331      -0.98240185      -0.47426953
N       -0.20626221      -1.03509086      -0.33016437
H       -2.36987844       0.99638634       0.52633572
H        1.32195594       0.43802451       1.00739247
H        2.29467480       0.74854509      -0.49658257
H       -0.68109223      -1.91837094      -0.46704043
10
Frame=2 idx=001806 GeodesicLength=0.13300002807219952 rxn_smarts="[O:1]([c:2]1[c:3]([H:8])[c:4]([H:9])[n:5][n:6]1[H:10])[H:7]>>[O:1]([C:2]1=[C+:3][C:4]([H:8])([H:9])[N-:5][N:6]1[H:10])[H:7]"
O       -2.12597643       0.11458191       0.22947053
C       -0.79544091       0.13271289       0.01547641
C        0.13878955       1.14940300       0.11266464
C        1.35009593       0.34605366      -0.14907064
N        1.08247110      -0.99245064      -0.45265103
N       -0.20735406      -1.03840154      -0.33356523
H       -2.36236962       0.98873371       0.55345809
H        1.31091990       0.47781977       1.02200851
H        2.29557096       0.73666446      -0.50433460
H       -0.68670642      -1.91511721      -0.49345666
10
Frame=3 idx=001806 GeodesicLength=0.19948156116058055 rxn_smarts="[O:1]([c:2]1[c:3]([H:8])[c:4]([H:9])[n:5][n:6]1[H:10])[H:7]>>[O:1]([C:2]1=[C+:3][C:4]([H:8])([H:9])[N-:5][N:6]1[H:10])[H:7]"
O       -2.12436766       0.11507672       0.22975174
C       -0.79631533       0.13414426      -0.00021475
C        0.14295864       1.14358260       0.10336500
C        1.35256529       0.33902056      -0.14614389
N        1.08381758      -1.00199856      -0.43221682
N       -0.20875535      -1.04148265      -0.33773554
H       -2.35478321       0.98109394       0.57863316
H        1.30036258       0.51788920       1.03566349
H        2.29621084       0.72453716      -0.51203635
H       -0.69169339      -1.91186323      -0.51906605
10
Frame=4 idx=001806 GeodesicLength=0.2659508686600243 rxn_smarts="[O:1]([c:2]1[c:3]([H:8])[c:4]([H:9])[n:5][n:6]1[H:10])[H:7]>>[O:1]([C:2]1=[C+:3][C:4]([H:8])([H:9])[N-:5][N:6]1[H:10])[H:7]"
O       -2.12272566       0.11576260       0.22967559
C       -0.79701832       0.13532699      -0.01449525
C        0.14721381       1.13756596       0.09478698
C        1.35495143       0.33174105      -0.14268553
N        1.08441997      -1.01118278      -0.41253930
N       -0.21038924      -1.04429938      -0.34266774
H       -2.34683486       0.97305564       0.60304428
H        1.28991283       0.55860681       1.04834341
H        2.29662852       0.71191612      -0.51942937
H       -0.69615848      -1.90849299      -0.54403306
10
Frame=5 idx=001806 GeodesicLength=0.3324160699403458 rxn_smarts="[O:1]([c:2]1[c:3]([H:8])[c:4]([H:9])[n:5][n:6]1[H:10])[H:7]>>[O:1]([C:2]1=[C+:3][C:4]([H:8])([H:9])[N-:5][N:6]1[H:10])[H:7]"
O       -2.12108193       0.11648580       0.22964312
C       -0.79753875       0.13625183      -0.02716603
C        0.15161337       1.13131149       0.08747781
C        1.35731496       0.32427218      -0.13874174
N        1.08434347      -1.01990246      -0.39434227
N       -0.21220889      -1.04679875      -0.34862735
H       -2.33893055       0.96499205       0.62583655
H        1.27983562       0.59954381       1.06012142
H        2.29683872       0.69909528      -0.52648651
H       -0.70018601      -1.90525122      -0.56771500
10
Frame=6 idx=001806 GeodesicLength=0.398829518590243 rxn_smarts="[O:1]([c:2]1[c:3]([H:8])[c:4]([H:9])[n:5][n:6]1[H:10])[H:7]>>[O:1]([C:2]1=[C+:3][C:4]([H:8])([H:9])[N-:5][N:6]1[H:10])[H:7]"
O       -2.11935305       0.11718560       0.22968762
C       -0.79784765       0.13697273      -0.03838251
C        0.15617872       1.12476856       0.08159666
C        1.35964371       0.31661985      -0.13432426
N        1.08363631      -1.02810891      -0.37796730
N       -0.21414651      -1.04891557      -0.35566921
H       -2.33117403       0.95698341       0.64685369
H        1.27017146       0.64048427       1.07107188
H        2.29676175       0.68620221      -0.53314522
H       -0.70387072      -1.90219214      -0.58972134
10
Frame=7 idx=001806 GeodesicLength=0.4652072914742499 rxn_smarts="[O:1]([c:2]1[c:3]([H:8])[c:4]([H:9])[n:5][n:6]1[H:10])[H:7]>>[O:1]([C:2]1=[C+:3][C:4]([H:8])([H:9])[N-:5][N:6]1[H:10])[H:7]"
O       -2.11758273       0.11773772       0.23002817
C       -0.79795397       0.13750726      -0.04815249
C        0.16094404       1.11793661       0.07747203
C        1.36202176       0.30883311      -0.12949044
N        1.08243916      -1.03577137      -0.36407194
N       -0.21614915      -1.05062367      -0.36402275
H       -2.32389125       0.94937242       0.66564713
H        1.26105496       0.68109899       1.08134757
H        2.29649330       0.67353809      -0.53931420
H       -0.70737613      -1.89962916      -0.60944307
10
Frame=8 idx=001806 GeodesicLength=0.5315672125510634 rxn_smarts="[O:1]([c:2]1[c:3]([H:8])[c:4]([H:9])[n:5][n:6]1[H:10])[H:7]>>[O:1]([C:2]1=[C+:3][C:4]([H:8])([H:9])[N-:5][N:6]1[H:10])[H:7]"
O       -2.11574992       0.11812630       0.23059815
C       -0.79785213       0.13788138      -0.05667506
C        0.16591521       1.11081391       0.07497525
C        1.36446970       0.30089286      -0.12424701
N        1.08084626      -1.04297799      -0.35266059
N       -0.21817438      -1.05197143      -0.37352193
H       -2.31708930       0.94215779       0.68245287
H        1.25242201       0.72148864       1.09101657
H        2.29605818       0.66115015      -0.54495069
H       -0.71084564      -1.89756161      -0.62698755
10
Frame=9 idx=001806 GeodesicLength=0.5977918981584298 rxn_smarts="[O:1]([c:2]1[c:3]([H:8])[c:4]([H:9])[n:5][n:6]1[H:10])[H:7]>>[O:1]([C:2]1=[C+:3][C:4]([H:8])([H:9])[N-:5][N:6]1[H:10])[H:7]"
O       -2.11382254       0.11824311       0.23151197
C       -0.79751024       0.13805120      -0.06381558
C        0.17108032       1.10329505       0.07444868
C        1.36698795       0.29279441      -0.11866820
N        1.07899811      -1.04965324      -0.34421743
N       -0.22015355      -1.05289754      -0.38421790
H       -2.31100921       0.93565888       0.69676447
H        1.24443967       0.76131598       1.10020168
H        2.29535071       0.64928274      -0.55008410
H       -0.71436123      -1.89609060      -0.64192358
10
Frame=10 idx=001806 GeodesicLength=0.6639991200970636 rxn_smarts="[O:1]([c:2]1[c:3]([H:8])[c:4]([H:9])[n:5][n:6]1[H:10])[H:7]>>[O:1]([C:2]1=[C+:3][C:4]([H:8])([H:9])[N-:5][N:6]1[H:10])[H:7]"
O       -2.11178151       0.11802026       0.23294477
C       -0.79696272       0.13800391      -0.06981477
C        0.17642831       1.09543020       0.07536174
C        1.36960700       0.28446674      -0.11269956
N        1.07695768      -1.05605051      -0.33817056
N       -0.22210083      -1.05356701      -0.39579864
H       -2.30552508       0.92980104       0.70914259
H        1.23688667       0.80118216       1.10884422
H        2.29450801       0.63774817      -0.55464068
H       -0.71801753      -1.89503497      -0.65516912
10
Frame=11 idx=001806 GeodesicLength=0.7301653538728148 rxn_smarts="[O:1]([c:2]1[c:3]([H:8])[c:4]([H:9])[n:5][n:6]1[H:10])[H:7]>>[O:1]([C:2]1=[C+:3][C:4]([H:8])([H:9])[N-:5][N:6]1[H:10])[H:7]"
O       -2.10960370       0.11746791       0.23491153
C       -0.79623843       0.13774193      -0.07489157
C        0.18192502       1.08723490       0.07724859
C        1.37230499       0.27580941      -0.10626596
N        1.07475922      -1.06234424      -0.33394300
N       -0.22401853      -1.05406467      -0.40800195
H       -2.30043200       0.92439563       0.72021053
H        1.22955066       0.84163061       1.11675014
H        2.29358438       0.62629187      -0.55850516
H       -0.72183161      -1.89416335      -0.66751316
10
Frame=12 idx=001806 GeodesicLength=0.796303841486032 rxn_smarts="[O:1]([c:2]1[c:3]([H:8])[c:4]([H:9])[n:5][n:6]1[H:10])[H:7]>>[O:1]([C:2]1=[C+:3][C:4]([H:8])([H:9])[N-:5][N:6]1[H:10])[H:7]"
O       -2.10728506       0.11656921       0.23747330
C       -0.79536446       0.13724983      -0.07915496
C        0.18755216       1.07871351       0.07980943
C        1.37507014       0.26673846      -0.09929341
N        1.07242119      -1.06867359      -0.33109058
N       -0.22592069      -1.05446587      -0.42061844
H       -2.29560768       0.91931722       0.73038924
H        1.22230835       0.88313169       1.12369663
H        2.29264083       0.61470583      -0.56157593
H       -0.72581478      -1.89328629      -0.67963528
10
Frame=13 idx=001806 GeodesicLength=0.8624187187217629 rxn_smarts="[O:1]([c:2]1[c:3]([H:8])[c:4]([H:9])[n:5][n:6]1[H:10])[H:7]>>[O:1]([C:2]1=[C+:3][C:4]([H:8])([H:9])[N-:5][N:6]1[H:10])[H:7]"
O       -2.10481730       0.11537646       0.24056882
C       -0.79436911       0.13655965      -0.08282157
C        0.19330086       1.06989856       0.08269553
C        1.37787703       0.25716607      -0.09167300
N        1.06991767      -1.07516005      -0.32920287
N       -0.22783243      -1.05480579      -0.43354152
H       -2.29082869       0.91430083       0.74029475
H        1.21495367       0.92616042       1.12938089
H        2.29177465       0.60274957      -0.56363708
H       -0.72997636      -1.89224572      -0.69206394
10
Frame=14 idx=001806 GeodesicLength=0.9285238852785329 rxn_smarts="[O:1]([c:2]1[c:3]([H:8])[c:4]([H:9])[n:5][n:6]1[H:10])[H:7]>>[O:1]([C:2]1=[C+:3][C:4]([H:8])([H:9])[N-:5][N:6]1[H:10])[H:7]"
O       -2.10220070       0.11387970       0.24424199
C       -0.79327527       0.13566581      -0.08595518
C        0.19916600       1.06079155       0.08573952
C        1.38070491       0.24701288      -0.08329417
N        1.06723272      -1.08190263      -0.32794893
N       -0.22977164      -1.05512315      -0.44664887
H       -2.28598731       0.90919986       0.75027242
H        1.20740424       0.97112624       1.13346236
H        2.29104907       0.59023313      -0.56453049
H       -0.73432202      -1.89088340      -0.70533866
10
Frame=15 idx=001806 GeodesicLength=0.9946033251839593 rxn_smarts="[O:1]([c:2]1[c:3]([H:8])[c:4]([H:9])[n:5][n:6]1[H:10])[H:7]>>[O:1]([C:2]1=[C+:3][C:4]([H:8])([H:9])[N-:5][N:6]1[H:10])[H:7]"
O       -2.09941580       0.11193776       0.24869926
C       -0.79206030       0.13449496      -0.08831141
C        0.20516508       1.05128361       0.08940595
C        1.38355504       0.23626844      -0.07418753
N        1.06442145      -1.08881513      -0.32779025
N       -0.23173405      -1.05538913      -0.45997749
H       -2.28134468       0.90434656       0.75971628
H        1.19985227       1.01776772       1.13586156
H        2.29040998       0.57737472      -0.56425373
H       -0.73884899      -1.88926951      -0.71916263
10
Frame=16 idx=001806 GeodesicLength=1.0606675321146042 rxn_smarts="[O:1]([c:2]1[c:3]([H:8])[c:4]([H:9])[n:5][n:6]1[H:10])[H:7]>>[O:1]([C:2]1=[C+:3][C:4]([H:8])([H:9])[N-:5][N:6]1[H:10])[H:7]"
O       -2.09646454       0.10961086       0.25384232
C       -0.79075576       0.13310614      -0.09011481
C        0.21129771       1.04140664       0.09345066
C        1.38639440       0.22483965      -0.06419969
N        1.06143533      -1.09598304      -0.32840017
N       -0.23374791      -1.05557670      -0.47356529
H       -2.27667876       0.89941536       0.76925501
H        1.19211591       1.06651700       1.13613093
H        2.28998545       0.56393503      -0.56249461
H       -0.74358184      -1.88727095      -0.73390434
