14
Frame=0 idx=010221 GeodesicLength=0.0 rxn_smarts="[C:1]([C:2]([N:3](/[C:4](=[N:5]/[H:14])[C:6]#[N:7])[H:13])([H:11])[H:12])([H:8])([H:9])[H:10]>>[C:1]([C-:2]([N+:3](=[C:4]([N:5]([H:11])[H:14])[C:6]#[N:7])[H:13])[H:12])([H:8])([H:9])[H:10]"
C       -2.16322962       0.36189902      -0.19756394
C       -0.89331302      -0.34014512       0.19925448
N        0.22719709       0.51529355       0.30539110
C        1.40806989      -0.06562848       0.13885239
N        1.32584826      -1.38785736       0.01285931
C        2.59523037       0.70929926      -0.00076882
N        3.55613965       1.33082204      -0.10916896
H       -2.07167227       0.83920089      -1.17672894
H       -2.48965946       1.12723675       0.52043426
H       -2.97085579      -0.36625907      -0.27583820
H        0.19181057      -1.43845414      -0.31372304
H       -0.98138989      -0.97192833       1.08664669
H        0.15639206       1.52058776       0.25555781
H        2.10943213      -1.83406672      -0.44520416
14
Frame=1 idx=010221 GeodesicLength=0.05546202149758568 rxn_smarts="[C:1]([C:2]([N:3](/[C:4](=[N:5]/[H:14])[C:6]#[N:7])[H:13])([H:11])[H:12])([H:8])([H:9])[H:10]>>[C:1]([C-:2]([N+:3](=[C:4]([N:5]([H:11])[H:14])[C:6]#[N:7])[H:13])[H:12])([H:8])([H:9])[H:10]"
C       -2.16306403       0.36817574      -0.19676946
C       -0.89555558      -0.34075503       0.19548447
N        0.22569641       0.50942486       0.31204825
C        1.41059811      -0.07136478       0.15296217
N        1.33118309      -1.39305312       0.01402713
C        2.58840502       0.71353114      -0.01106083
N        3.54469631       1.33853041      -0.14068489
H       -2.06284139       0.87151916      -1.16184083
H       -2.49675837       1.11407765       0.53767619
H       -2.96939551      -0.35834657      -0.30041271
H        0.18526132      -1.44956515      -0.32592753
H       -0.98896328      -0.97704585       1.07901013
H        0.15630296       1.51424334       0.25319142
H        2.13443494      -1.83937180      -0.40770352
14
Frame=2 idx=010221 GeodesicLength=0.11090581163193067 rxn_smarts="[C:1]([C:2]([N:3](/[C:4](=[N:5]/[H:14])[C:6]#[N:7])[H:13])([H:11])[H:12])([H:8])([H:9])[H:10]>>[C:1]([C-:2]([N+:3](=[C:4]([N:5]([H:11])[H:14])[C:6]#[N:7])[H:13])[H:12])([H:8])([H:9])[H:10]"
C       -2.16265088       0.37462853      -0.19608764
C       -0.89764671      -0.34139568       0.19134166
N        0.22425080       0.50338283       0.31914750
C        1.41320394      -0.07705100       0.16704709
N        1.33678073      -1.39806386       0.01453938
C        2.58162178       0.71738453      -0.01969055
N        3.53157661       1.34632175      -0.17574361
H       -2.05366616       0.90413295      -1.14598720
H       -2.50388144       1.10029855       0.55451756
H       -2.96747184      -0.34951171      -0.32561669
H        0.17882511      -1.46030537      -0.33934900
H       -0.99651594      -0.98282402       1.07045188
H        0.15635063       1.50773984       0.25261189
H        2.15922338      -1.84473733      -0.36718226
14
Frame=3 idx=010221 GeodesicLength=0.1662916269965077 rxn_smarts="[C:1]([C:2]([N:3](/[C:4](=[N:5]/[H:14])[C:6]#[N:7])[H:13])([H:11])[H:12])([H:8])([H:9])[H:10]>>[C:1]([C-:2]([N+:3](=[C:4]([N:5]([H:11])[H:14])[C:6]#[N:7])[H:13])[H:12])([H:8])([H:9])[H:10]"
C       -2.16221317       0.38100881      -0.19515473
C       -0.89954805      -0.34194681       0.18699334
N        0.22292160       0.49742613       0.32560718
C        1.41588953      -0.08249591       0.17981517
N        1.34267227      -1.40276767       0.01382265
C        2.57479055       0.72101348      -0.02912498
N        3.51810180       1.35392495      -0.20919370
H       -2.04494652       0.93602727      -1.12926764
H       -2.51085128       1.08621763       0.57092979
H       -2.96534858      -0.34011985      -0.35003596
H        0.17227222      -1.47083962      -0.35372050
H       -1.00345558      -0.98855368       1.06161767
H        0.15650440       1.50130881       0.25204007
H        2.18321081      -1.85020354      -0.32432835
14
Frame=4 idx=010221 GeodesicLength=0.22162201154160915 rxn_smarts="[C:1]([C:2]([N:3](/[C:4](=[N:5]/[H:14])[C:6]#[N:7])[H:13])([H:11])[H:12])([H:8])([H:9])[H:10]>>[C:1]([C-:2]([N+:3](=[C:4]([N:5]([H:11])[H:14])[C:6]#[N:7])[H:13])[H:12])([H:8])([H:9])[H:10]"
C       -2.16163790       0.38736719      -0.19411928
C       -0.90124347      -0.34245449       0.18242434
N        0.22170936       0.49146011       0.33187665
C        1.41868614      -0.08778110       0.19186452
N        1.34894550      -1.40718439       0.01195303
C        2.56807916       0.72438619      -0.03806377
N        3.50375339       1.36144697      -0.24317359
H       -2.03634467       0.96741406      -1.11173617
H       -2.51769081       1.07177429       0.58682847
H       -2.96291735      -0.33008924      -0.37411226
H        0.16570484      -1.48107365      -0.36914075
H       -1.00996481      -0.99452252       1.05229421
H        0.15679338       1.49488654       0.25210850
H        2.20612725      -1.85562996      -0.27900389
14
Frame=5 idx=010221 GeodesicLength=0.2768774081976394 rxn_smarts="[C:1]([C:2]([N:3](/[C:4](=[N:5]/[H:14])[C:6]#[N:7])[H:13])([H:11])[H:12])([H:8])([H:9])[H:10]>>[C:1]([C-:2]([N+:3](=[C:4]([N:5]([H:11])[H:14])[C:6]#[N:7])[H:13])[H:12])([H:8])([H:9])[H:10]"
C       -2.16105756       0.39354372      -0.19279319
C       -0.90271561      -0.34285905       0.17773459
N        0.22065670       0.48564434       0.33735805
C        1.42161002      -0.09281739       0.20266176
N        1.35564739      -1.41123078       0.00859394
C        2.56159117       0.72753933      -0.04709532
N        3.48929483       1.36879343      -0.27536220
H       -2.02830318       0.99771394      -1.09353334
H       -2.52428631       1.05715985       0.60222725
H       -2.96036723      -0.31970412      -0.39706635
H        0.15898339      -1.49108393      -0.38545882
H       -1.01572121      -1.00034594       1.04285249
H        0.15722548       1.48859636       0.25166637
H        2.22744212      -1.86094978      -0.23178523
14
Frame=6 idx=010221 GeodesicLength=0.3319983328512776 rxn_smarts="[C:1]([C:2]([N:3](/[C:4](=[N:5]/[H:14])[C:6]#[N:7])[H:13])([H:11])[H:12])([H:8])([H:9])[H:10]>>[C:1]([C-:2]([N+:3](=[C:4]([N:5]([H:11])[H:14])[C:6]#[N:7])[H:13])[H:12])([H:8])([H:9])[H:10]"
C       -2.16051640       0.39941483      -0.19110566
C       -0.90395706      -0.34313908       0.17305410
N        0.21978734       0.48007950       0.34173102
C        1.42465660      -0.09759469       0.21213230
N        1.36281990      -1.41488051       0.00365796
C        2.55554390       0.73046150      -0.05569821
N        3.47512929       1.37600721      -0.30481122
H       -2.02101487       1.02642017      -1.07495633
H       -2.53048764       1.04264613       0.61700896
H       -2.95782694      -0.30921695      -0.41832809
H        0.15201421      -1.50095059      -0.40242594
H       -1.02058005      -1.00577383       1.03363148
H        0.15783234       1.48249282       0.24985324
H        2.24659939      -1.86596651      -0.18374361
14
Frame=7 idx=010221 GeodesicLength=0.38708003506506866 rxn_smarts="[C:1]([C:2]([N:3](/[C:4](=[N:5]/[H:14])[C:6]#[N:7])[H:13])([H:11])[H:12])([H:8])([H:9])[H:10]>>[C:1]([C-:2]([N+:3](=[C:4]([N:5]([H:11])[H:14])[C:6]#[N:7])[H:13])[H:12])([H:8])([H:9])[H:10]"
C       -2.15990571       0.40504740      -0.18922849
C       -0.90494613      -0.34335831       0.16832330
N        0.21909677       0.47467446       0.34547092
C        1.42786790      -0.10214753       0.22081333
N        1.37058224      -1.41817167      -0.00233749
C        2.54991226       0.73323221      -0.06362270
N        3.46088620       1.38318160      -0.33317453
H       -2.01411524       1.05401390      -1.05594196
H       -2.53641587       1.02799109       0.63123467
H       -2.95514508      -0.29854573      -0.43862057
H        0.14498682      -1.51067060      -0.41995157
H       -1.02476196      -1.01105984       1.02441062
H        0.15861016       1.47651517       0.24745815
H        2.26334762      -1.87070213      -0.13483368
14
Frame=8 idx=010221 GeodesicLength=0.44209316853776975 rxn_smarts="[C:1]([C:2]([N:3](/[C:4](=[N:5]/[H:14])[C:6]#[N:7])[H:13])([H:11])[H:12])([H:8])([H:9])[H:10]>>[C:1]([C-:2]([N+:3](=[C:4]([N:5]([H:11])[H:14])[C:6]#[N:7])[H:13])[H:12])([H:8])([H:9])[H:10]"
C       -2.15937548       0.41025131      -0.18704093
C       -0.90571684      -0.34345578       0.16376978
N        0.21859546       0.46963248       0.34799186
C        1.43122075      -0.10640053       0.22841948
N        1.37890939      -1.42106359      -0.00928361
C        2.54486060       0.73587104      -0.07087122
N        3.44751543       1.39022113      -0.35817014
H       -2.00801221       1.07972782      -1.03693000
H       -2.54193975       1.01359744       0.64476145
H       -2.95258113      -0.28811034      -0.45707454
H        0.13770683      -1.52043548      -0.43750632
H       -1.02805105      -1.01566639       1.01583032
H        0.15955173       1.47077949       0.24309274
H        2.27731627      -1.87494859      -0.08698887
14
Frame=9 idx=010221 GeodesicLength=0.4970660483271574 rxn_smarts="[C:1]([C:2]([N:3](/[C:4](=[N:5]/[H:14])[C:6]#[N:7])[H:13])([H:11])[H:12])([H:8])([H:9])[H:10]>>[C:1]([C-:2]([N+:3](=[C:4]([N:5]([H:11])[H:14])[C:6]#[N:7])[H:13])[H:12])([H:8])([H:9])[H:10]"
C       -2.15883033       0.41508613      -0.18469610
C       -0.90627833      -0.34347906       0.15939992
N        0.21825186       0.46488467       0.34967094
C        1.43470307      -0.11038084       0.23536228
N        1.38780890      -1.42363801      -0.01649935
C        2.54028301       0.73843759      -0.07739395
N        3.43476156       1.39715363      -0.38081913
H       -2.00238959       1.10387105      -1.01796558
H       -2.54713940       0.99938478       0.65755742
H       -2.95000937      -0.27785877      -0.47421142
H        0.13028555      -1.53031663      -0.45484433
H       -1.03068169      -1.01970934       1.00783377
H        0.16062633       1.46522599       0.23734996
H        2.28860843      -1.87866118      -0.04074442
14
Frame=10 idx=010221 GeodesicLength=0.5520614085986325 rxn_smarts="[C:1]([C:2]([N:3](/[C:4](=[N:5]/[H:14])[C:6]#[N:7])[H:13])([H:11])[H:12])([H:8])([H:9])[H:10]>>[C:1]([C-:2]([N+:3](=[C:4]([N:5]([H:11])[H:14])[C:6]#[N:7])[H:13])[H:12])([H:8])([H:9])[H:10]"
C       -2.15817526       0.41966045      -0.18234056
C       -0.90663504      -0.34347174       0.15515107
N        0.21804792       0.46032261       0.35095867
C        1.43833119      -0.11412733       0.24203493
N        1.39728157      -1.42596653      -0.02347090
C        2.53610500       0.74098519      -0.08315459
N        3.42210579       1.40399847      -0.40259360
H       -1.99690442       1.12695135      -0.99891140
H       -2.55216132       0.98511782       0.66966829
H       -2.94726545      -0.26761691      -0.49072424
H        0.12284322      -1.54029461      -0.47195784
H       -1.03289938      -1.02342563       1.00019033
H        0.16182533       1.45978007       0.23106062
H        2.29750084      -1.88191322       0.00408922
14
Frame=11 idx=010221 GeodesicLength=0.6070902947905619 rxn_smarts="[C:1]([C:2]([N:3](/[C:4](=[N:5]/[H:14])[C:6]#[N:7])[H:13])([H:11])[H:12])([H:8])([H:9])[H:10]>>[C:1]([C-:2]([N+:3](=[C:4]([N:5]([H:11])[H:14])[C:6]#[N:7])[H:13])[H:12])([H:8])([H:9])[H:10]"
C       -2.15732596       0.42405604      -0.18008208
C       -0.90679294      -0.34346069       0.15100004
N        0.21796531       0.45585960       0.35220794
C        1.44210373      -0.11766838       0.24868127
N        1.40729186      -1.42811827      -0.02975024
C        2.53221076       0.74352568      -0.08832587
N        3.40915802       1.41075711      -0.42445053
H       -1.99127456       1.14932494      -0.97963546
H       -2.55713050       0.97063065       0.68107928
H       -2.94418268      -0.25724027      -0.50714487
H        0.11544787      -1.55036397      -0.48880720
H       -1.03490005      -1.02696623       0.99274803
H        0.16313414       1.45439433       0.22489766
H        2.30429500      -1.88473056       0.04758203
14
Frame=12 idx=010221 GeodesicLength=0.6621244438214207 rxn_smarts="[C:1]([C:2]([N:3](/[C:4](=[N:5]/[H:14])[C:6]#[N:7])[H:13])([H:11])[H:12])([H:8])([H:9])[H:10]>>[C:1]([C-:2]([N+:3](=[C:4]([N:5]([H:11])[H:14])[C:6]#[N:7])[H:13])[H:12])([H:8])([H:9])[H:10]"
C       -2.15644651       0.42818503      -0.17781076
C       -0.90681964      -0.34339582       0.14705145
N        0.21796822       0.45163688       0.35297437
C        1.44596275      -0.12096008       0.25513651
N        1.41773295      -1.43008226      -0.03537417
C        2.52861794       0.74609214      -0.09289096
N        3.39666173       1.41725975      -0.44480139
H       -1.98589494       1.17050204      -0.96047992
H       -2.56192998       0.95628944       0.69177546
H       -2.94105182      -0.24698011      -0.52275596
H        0.10790589      -1.56061779      -0.50523253
H       -1.03655519      -1.03000845       0.98587492
H        0.16450823       1.44913265       0.21783619
H        2.30934035      -1.88705340       0.08869680
14
Frame=13 idx=010221 GeodesicLength=0.7171503087465959 rxn_smarts="[C:1]([C:2]([N:3](/[C:4](=[N:5]/[H:14])[C:6]#[N:7])[H:13])([H:11])[H:12])([H:8])([H:9])[H:10]>>[C:1]([C-:2]([N+:3](=[C:4]([N:5]([H:11])[H:14])[C:6]#[N:7])[H:13])[H:12])([H:8])([H:9])[H:10]"
C       -2.15546314       0.43213826      -0.17561273
C       -0.90673296      -0.34330745       0.14327279
N        0.21803440       0.44754811       0.35357787
C        1.44989509      -0.12404072       0.26152652
N        1.42854884      -1.43194267      -0.04004911
C        2.52516630       0.74867046      -0.09721746
N        3.38429826       1.42353551      -0.46443232
H       -1.98050731       1.19085630      -0.94128229
H       -2.56667985       0.94193252       0.70177023
H       -2.93771960      -0.23666640      -0.53806094
H        0.10023555      -1.57105508      -0.52125175
H       -1.03805058      -1.03271774       0.97940800
H        0.16592420       1.44392902       0.21056693
H        2.31305080      -1.88888011       0.12778428
14
Frame=14 idx=010221 GeodesicLength=0.7722214293445344 rxn_smarts="[C:1]([C:2]([N:3](/[C:4](=[N:5]/[H:14])[C:6]#[N:7])[H:13])([H:11])[H:12])([H:8])([H:9])[H:10]>>[C:1]([C-:2]([N+:3](=[C:4]([N:5]([H:11])[H:14])[C:6]#[N:7])[H:13])[H:12])([H:8])([H:9])[H:10]"
C       -2.15433228       0.43600167      -0.17354159
C       -0.90652513      -0.34321603       0.13956848
N        0.21815759       0.44352059       0.35427631
C        1.45392469      -0.12693030       0.26804813
N        1.43975060      -1.43373660      -0.04363432
C        2.52180260       0.75128336      -0.10130613
N        3.37165251       1.42955342      -0.48433664
H       -1.97496486       1.21074912      -0.92182507
H       -2.57147594       0.92735877       0.71113554
H       -2.93407981      -0.22611648      -0.55347090
H        0.09251687      -1.58159480      -0.53708193
H       -1.03949580      -1.03530939       0.97308043
H        0.16738332       1.43875746       0.20361682
H        2.31568563      -1.89032077       0.16547088
14
Frame=15 idx=010221 GeodesicLength=0.8273403984683683 rxn_smarts="[C:1]([C:2]([N:3](/[C:4](=[N:5]/[H:14])[C:6]#[N:7])[H:13])([H:11])[H:12])([H:8])([H:9])[H:10]>>[C:1]([C-:2]([N+:3](=[C:4]([N:5]([H:11])[H:14])[C:6]#[N:7])[H:13])[H:12])([H:8])([H:9])[H:10]"
C       -2.15300837       0.43983591      -0.17163760
C       -0.90619404      -0.34313358       0.13589232
N        0.21832992       0.43948704       0.35526223
C        1.45805710      -0.12964362       0.27476425
N        1.45131976      -1.43551141      -0.04597569
C        2.51843098       0.75391487      -0.10539971
N        3.35845767       1.43527664      -0.50506737
H       -1.96913005       1.23043281      -0.90191154
H       -2.57641586       0.91239942       0.71988337
H       -2.93000534      -0.21517271      -0.56932239
H        0.08477751      -1.59219826      -0.55282125
H       -1.04098448      -1.03790550       0.96673737
H        0.16887545       1.43359332       0.19743259
H        2.31748973      -1.89137492       0.20216340
14
Frame=16 idx=010221 GeodesicLength=0.8824853252279573 rxn_smarts="[C:1]([C:2]([N:3](/[C:4](=[N:5]/[H:14])[C:6]#[N:7])[H:13])([H:11])[H:12])([H:8])([H:9])[H:10]>>[C:1]([C-:2]([N+:3](=[C:4]([N:5]([H:11])[H:14])[C:6]#[N:7])[H:13])[H:12])([H:8])([H:9])[H:10]"
C       -2.15156053       0.44361585      -0.16983035
C       -0.90576779      -0.34304421       0.13225596
N        0.21854240       0.43549303       0.35632276
C        1.46226925      -0.13217534       0.28156940
N        1.46320409      -1.43726368      -0.04722155
C        2.51506923       0.75654907      -0.10951613
N        3.34498948       1.44069338      -0.52598607
H       -1.96318621       1.24974015      -0.88162733
H       -2.58143197       0.89718599       0.72805107
H       -2.92562094      -0.20390917      -0.58530183
H        0.07689799      -1.60288446      -0.56851280
H       -1.04244754      -1.04041009       0.96047376
H        0.17039480       1.42845346       0.19156122
H        2.31864775      -1.89204397       0.23776188
