13
Frame=0 idx=010434 GeodesicLength=0.0 rxn_smarts="[O:1]([C:2]([C@@:3]([C:4](=[O:5])[H:12])([C:6]#[C:7][H:13])[H:11])([H:9])[H:10])[H:8]>>[O:1]([C:2]([C@@:3]1([H:11])[C:4]([H:12])=[C:7]([H:13])[C:6]1=[O:5])([H:9])[H:10])[H:8]"
O       -2.43883931       0.03216618      -0.19259148
C       -1.34508585      -0.72283287       0.28751567
C       -0.08246240      -0.40062024      -0.47081952
C        0.74111828       0.81050438      -0.17191683
O        1.07298804       0.17085971       1.33700428
C        1.31225130      -0.49542388       0.18047945
C        2.18189301       0.14301646      -0.73773143
H       -2.37786009       0.92192724       0.15919165
H       -1.19051970      -0.58457170       1.35909238
H       -1.59688440      -1.76928271       0.10907998
H       -0.08810238      -0.64846902      -1.52629445
H        0.83637766       1.88262094      -0.14803948
H        2.97512579       0.66010550      -0.18497026
13
Frame=1 idx=010434 GeodesicLength=0.12159171504432946 rxn_smarts="[O:1]([C:2]([C@@:3]([C:4](=[O:5])[H:12])([C:6]#[C:7][H:13])[H:11])([H:9])[H:10])[H:8]>>[O:1]([C:2]([C@@:3]1([H:11])[C:4]([H:12])=[C:7]([H:13])[C:6]1=[O:5])([H:9])[H:10])[H:8]"
O       -2.43613217       0.03323844      -0.18813192
C       -1.34340976      -0.72727540       0.28473870
C       -0.07906882      -0.39647557      -0.46778460
C        0.73073186       0.82479567      -0.16409629
O        1.06238075       0.18213788       1.35637227
C        1.31272881      -0.50413045       0.18425177
C        2.18415642       0.13361478      -0.72622223
H       -2.36824665       0.92159640       0.16635732
H       -1.19835853      -0.60103068       1.35936040
H       -1.59159116      -1.77292471       0.09732248
H       -0.09380969      -0.63600401      -1.52559763
H        0.82389341       1.89765956      -0.17674524
H        2.99672553       0.64479810      -0.19982503
13
Frame=2 idx=010434 GeodesicLength=0.24317579507164894 rxn_smarts="[O:1]([C:2]([C@@:3]([C:4](=[O:5])[H:12])([C:6]#[C:7][H:13])[H:11])([H:9])[H:10])[H:8]>>[O:1]([C:2]([C@@:3]1([H:11])[C:4]([H:12])=[C:7]([H:13])[C:6]1=[O:5])([H:9])[H:10])[H:8]"
O       -2.43338377       0.03426768      -0.18364954
C       -1.34156719      -0.73153976       0.28188915
C       -0.07551603      -0.39182935      -0.46459634
C        0.72016506       0.83956579      -0.15578140
O        1.05140633       0.19341706       1.37625187
C        1.31328658      -0.51316849       0.18794909
C        2.18654109       0.12472438      -0.71411091
H       -2.35896610       0.92105758       0.17387305
H       -1.20615528      -0.61753625       1.35937171
H       -1.58593697      -1.77631418       0.08532235
H       -0.09925880      -0.62302938      -1.52462193
H        0.81054036       1.91197273      -0.20656458
H        3.01884471       0.62841220      -0.21533254
13
Frame=3 idx=010434 GeodesicLength=0.3647495678186641 rxn_smarts="[O:1]([C:2]([C@@:3]([C:4](=[O:5])[H:12])([C:6]#[C:7][H:13])[H:11])([H:9])[H:10])[H:8]>>[O:1]([C:2]([C@@:3]1([H:11])[C:4]([H:12])=[C:7]([H:13])[C:6]1=[O:5])([H:9])[H:10])[H:8]"
O       -2.43058893       0.03524556      -0.17917225
C       -1.33954531      -0.73561027       0.27896509
C       -0.07178759      -0.38665447      -0.46123038
C        0.70939846       0.85485782      -0.14694564
O        1.04003948       0.20470498       1.39667573
C        1.31393269      -0.52253072       0.19155677
C        2.18906292       0.11639142      -0.70135834
H       -2.35002823       0.92031296       0.18169835
H       -1.21391152      -0.63406404       1.35911571
H       -1.57989178      -1.77943404       0.07308498
H       -0.10441930      -0.60953160      -1.52334438
H        0.79626048       1.92544036      -0.23741178
H        3.04147863       0.61087204      -0.23163386
13
Frame=4 idx=010434 GeodesicLength=0.4863101760530335 rxn_smarts="[O:1]([C:2]([C@@:3]([C:4](=[O:5])[H:12])([C:6]#[C:7][H:13])[H:11])([H:9])[H:10])[H:8]>>[O:1]([C:2]([C@@:3]1([H:11])[C:4]([H:12])=[C:7]([H:13])[C:6]1=[O:5])([H:9])[H:10])[H:8]"
O       -2.42774146       0.03616080      -0.17473638
C       -1.33733002      -0.73947113       0.27596341
C       -0.06786482      -0.38092634      -0.45766117
C        0.69840780       0.87071703      -0.13757457
O        1.02824543       0.21602621       1.41767445
C        1.31467536      -0.53220456       0.19506282
C        2.19174056       0.10866305      -0.68791700
H       -2.34144526       0.91936227       0.18978317
H       -1.22163010      -0.65058471       1.35858014
H       -1.57342254      -1.78226823       0.06061932
H       -0.10925526      -0.59550827      -1.52174014
H        0.78100870       1.93794542      -0.26914866
H        3.06461159       0.59208844      -0.24890537
13
Frame=5 idx=010434 GeodesicLength=0.6078550008597488 rxn_smarts="[O:1]([C:2]([C@@:3]([C:4](=[O:5])[H:12])([C:6]#[C:7][H:13])[H:11])([H:9])[H:10])[H:8]>>[O:1]([C:2]([C@@:3]1([H:11])[C:4]([H:12])=[C:7]([H:13])[C:6]1=[O:5])([H:9])[H:10])[H:8]"
O       -2.42483324       0.03699849      -0.17038897
C       -1.33490610      -0.74310752       0.27287938
C       -0.06372577      -0.37462589      -0.45386106
C        0.68716341       0.88718912      -0.12766913
O        1.01597661       0.22742764       1.43927656
C        1.31552321      -0.54217217       0.19846240
C        2.19459586       0.10158538      -0.67372636
H       -2.33323080       0.91820270       0.19806475
H       -1.22931575      -0.66706432       1.35775079
H       -1.56649373      -1.78480291       0.04793743
H       -0.11372348      -0.58097183      -1.51978193
H        0.76475628       1.94938543      -0.30157078
H        3.08821351       0.57195590      -0.26737307
13
Frame=6 idx=010434 GeodesicLength=0.7293811340839307 rxn_smarts="[O:1]([C:2]([C@@:3]([C:4](=[O:5])[H:12])([C:6]#[C:7][H:13])[H:11])([H:9])[H:10])[H:8]>>[O:1]([C:2]([C@@:3]1([H:11])[C:4]([H:12])=[C:7]([H:13])[C:6]1=[O:5])([H:9])[H:10])[H:8]"
O       -2.42185465       0.03773815      -0.16618863
C       -1.33225664      -0.74650640       0.26970699
C       -0.05934533      -0.36774015      -0.44980134
C        0.67562840       0.90431877      -0.11724527
O        1.00317210       0.23897673       1.46150784
C        1.31648554      -0.55241216       0.20175695
C        2.19765547       0.09520504      -0.65870952
H       -2.32540177       0.91682702       0.20646730
H       -1.23697547      -0.68346384       1.35661218
H       -1.55906616      -1.78702821       0.03505736
H       -0.11777197      -0.56595105      -1.51744164
H        0.74750308       1.95968561      -0.33440886
H        3.11222740       0.55035050      -0.28731336
13
Frame=7 idx=010434 GeodesicLength=0.8508845548259318 rxn_smarts="[O:1]([C:2]([C@@:3]([C:4](=[O:5])[H:12])([C:6]#[C:7][H:13])[H:11])([H:9])[H:10])[H:8]>>[O:1]([C:2]([C@@:3]1([H:11])[C:4]([H:12])=[C:7]([H:13])[C:6]1=[O:5])([H:9])[H:10])[H:8]"
O       -2.41879473       0.03834836      -0.16220942
C       -1.32936264      -0.74965872       0.26643881
C       -0.05469405      -0.36026205      -0.44544934
C        0.66375767       0.92214981      -0.10633258
O        0.98975218       0.25076801       1.48439444
C        1.31757189      -0.56289763       0.20496233
C        2.20094985       0.08957047      -0.64276422
H       -2.31798030       0.91521971       0.21489491
H       -1.24462015      -0.69974043       1.35514740
H       -1.55109333      -1.78894122       0.02200284
H       -0.12133730      -0.55048842      -1.51468815
H        0.72928303       1.96881967      -0.36731872
H        3.13656788       0.52711247      -0.30907829
13
Frame=8 idx=010434 GeodesicLength=0.9723620811326477 rxn_smarts="[O:1]([C:2]([C@@:3]([C:4](=[O:5])[H:12])([C:6]#[C:7][H:13])[H:11])([H:9])[H:10])[H:8]>>[O:1]([C:2]([C@@:3]1([H:11])[C:4]([H:12])=[C:7]([H:13])[C:6]1=[O:5])([H:9])[H:10])[H:8]"
O       -2.41563902       0.03879239      -0.15853494
C       -1.32620143      -0.75256162       0.26306355
C       -0.04973585      -0.35218932      -0.44076843
C        0.65149725       0.94072542      -0.09496785
O        0.97561453       0.26292115       1.50796757
C        1.31879394      -0.57359698       0.20811309
C        2.20451972       0.08473524      -0.62574950
H       -2.31099190       0.91335707       0.22325205
H       -1.25226222      -0.71586038       1.35333673
H       -1.54252291      -1.79054628       0.00879192
H       -0.12433903      -0.53463655      -1.51148904
H        0.71016686       1.97681903      -0.39992774
H        3.16110006       0.50204083      -0.33308739
13
Frame=9 idx=010434 GeodesicLength=1.0937914821687553 rxn_smarts="[O:1]([C:2]([C@@:3]([C:4](=[O:5])[H:12])([C:6]#[C:7][H:13])[H:11])([H:9])[H:10])[H:8]>>[O:1]([C:2]([C@@:3]1([H:11])[C:4]([H:12])=[C:7]([H:13])[C:6]1=[O:5])([H:9])[H:10])[H:8]"
O       -2.41233435       0.03908950      -0.15525370
C       -1.32274896      -0.75520862       0.25955969
C       -0.04441137      -0.34356110      -0.43571279
C        0.63881528       0.96004320      -0.08318573
O        0.96063931       0.27553243       1.53227387
C        1.32017228      -0.58452587       0.21127437
C        2.20844468       0.08068930      -0.60745894
H       -2.30440472       0.91125319       0.23147225
H       -1.25992157      -0.73180791       1.35115073
H       -1.53334136      -1.79182890      -0.00458750
H       -0.12665821      -0.51848799      -1.50780601
H        0.69023151       1.98370383      -0.43189204
H        3.18551749       0.47510892      -0.35983419
13
Frame=10 idx=010434 GeodesicLength=1.2151679504382522 rxn_smarts="[O:1]([C:2]([C@@:3]([C:4](=[O:5])[H:12])([C:6]#[C:7][H:13])[H:11])([H:9])[H:10])[H:8]>>[O:1]([C:2]([C@@:3]1([H:11])[C:4]([H:12])=[C:7]([H:13])[C:6]1=[O:5])([H:9])[H:10])[H:8]"
O       -2.40887042       0.03914317      -0.15249667
C       -1.31896596      -0.75761064       0.25591368
C       -0.03866815      -0.33435287      -0.43022211
C        0.62563614       0.98016751      -0.07099248
O        0.94467252       0.28876204       1.55738192
C        1.32172529      -0.59562597       0.21453188
C        2.21277935       0.07753904      -0.58763887
H       -2.29828527       0.90883726       0.23939297
H       -1.26762249      -0.74754444       1.34856718
H       -1.52343377      -1.79282248      -0.01810198
H       -0.12817018      -0.50206523      -1.50359193
H        0.66964530       1.98966489      -0.46276044
H        3.20955761       0.44590772      -0.38998314
13
Frame=11 idx=010434 GeodesicLength=1.3364713576326606 rxn_smarts="[O:1]([C:2]([C@@:3]([C:4](=[O:5])[H:12])([C:6]#[C:7][H:13])[H:11])([H:9])[H:10])[H:8]>>[O:1]([C:2]([C@@:3]1([H:11])[C:4]([H:12])=[C:7]([H:13])[C:6]1=[O:5])([H:9])[H:10])[H:8]"
O       -2.40518654       0.03891138      -0.15042221
C       -1.31480443      -0.75977458       0.25209603
C       -0.03241400      -0.32456671      -0.42420238
C        0.61191529       1.00112745      -0.05833993
O        0.92752319       0.30273425       1.58342008
C        1.32348795      -0.60688079       0.21804339
C        2.21763396       0.07534358      -0.56589763
H       -2.29264133       0.90607486       0.24686149
H       -1.27540987      -0.76305830       1.34554769
H       -1.51270495      -1.79353990      -0.03176733
H       -0.12867487      -0.48540312      -1.49877330
H        0.64856908       1.99486883      -0.49215227
H        3.23270653       0.41416305      -0.42441362
13
Frame=12 idx=010434 GeodesicLength=1.457679073273326 rxn_smarts="[O:1]([C:2]([C@@:3]([C:4](=[O:5])[H:12])([C:6]#[C:7][H:13])[H:11])([H:9])[H:10])[H:8]>>[O:1]([C:2]([C@@:3]1([H:11])[C:4]([H:12])=[C:7]([H:13])[C:6]1=[O:5])([H:9])[H:10])[H:8]"
O       -2.40121323       0.03831765      -0.14920085
C       -1.31018026      -0.76172104       0.24805933
C       -0.02552735      -0.31414708      -0.41753865
C        0.59758900       1.02301489      -0.04513154
O        0.90894089       0.31762816       1.61056957
C        1.32551536      -0.61820066       0.22202300
C        2.22315688       0.07427572      -0.54169967
H       -2.28751472       0.90287867       0.25376102
H       -1.28330853      -0.77839100       1.34203454
H       -1.50098047      -1.79400676      -0.04564851
H       -0.12790600      -0.46846807      -1.49326535
H        0.62719637       1.99954199      -0.51980045
H        3.25423206       0.37927754      -0.46416243
13
Frame=13 idx=010434 GeodesicLength=1.578707450303376 rxn_smarts="[O:1]([C:2]([C@@:3]([C:4](=[O:5])[H:12])([C:6]#[C:7][H:13])[H:11])([H:9])[H:10])[H:8]>>[O:1]([C:2]([C@@:3]1([H:11])[C:4]([H:12])=[C:7]([H:13])[C:6]1=[O:5])([H:9])[H:10])[H:8]"
O       -2.39669107       0.03752349      -0.14919347
C       -1.30503854      -0.76340814       0.24373328
C       -0.01775630      -0.30325965      -0.40997566
C        0.58280088       1.04563920      -0.03111533
O        0.88860032       0.33336030       1.63919369
C        1.32788860      -0.62982812       0.22694423
C        2.22966011       0.07400228      -0.51415557
H       -2.28266686       0.89940006       0.25974817
H       -1.29152145      -0.79347411       1.33793549
H       -1.48826468      -1.79414732      -0.05983606
H       -0.12535310      -0.45144153      -1.48685144
H        0.60584866       2.00363265      -0.54525555
H        3.27249343       0.34200089      -0.51117178
13
Frame=14 idx=010434 GeodesicLength=1.6995497750681414 rxn_smarts="[O:1]([C:2]([C@@:3]([C:4](=[O:5])[H:12])([C:6]#[C:7][H:13])[H:11])([H:9])[H:10])[H:8]>>[O:1]([C:2]([C@@:3]1([H:11])[C:4]([H:12])=[C:7]([H:13])[C:6]1=[O:5])([H:9])[H:10])[H:8]"
O       -2.39148741       0.03630941      -0.15073781
C       -1.29916141      -0.76488913       0.23901410
C       -0.00883494      -0.29168511      -0.40128927
C        0.56748897       1.06928238      -0.01602249
O        0.86603771       0.35027901       1.66968459
C        1.33076358      -0.64145963       0.23328712
C        2.23748623       0.07501206      -0.48218292
H       -2.27823437       0.89540393       0.26458729
H       -1.30005952      -0.80842452       1.33312310
H       -1.47407595      -1.79404596      -0.07447454
H       -0.12043142      -0.43411606      -1.47936694
H        0.58487702       2.00757193      -0.56822087
H        3.28563151       0.30076168      -0.56740138
13
Frame=15 idx=010434 GeodesicLength=1.8201545949694202 rxn_smarts="[O:1]([C:2]([C@@:3]([C:4](=[O:5])[H:12])([C:6]#[C:7][H:13])[H:11])([H:9])[H:10])[H:8]>>[O:1]([C:2]([C@@:3]1([H:11])[C:4]([H:12])=[C:7]([H:13])[C:6]1=[O:5])([H:9])[H:10])[H:8]"
O       -2.38523970       0.03464134      -0.15432295
C       -1.29224412      -0.76617785       0.23375773
C        0.00171215      -0.27934221      -0.39115194
C        0.55185628       1.09405606       0.00049202
O        0.84071552       0.36858567       1.70254804
C        1.33442293      -0.65300804       0.24175404
C        2.24730740       0.07739705      -0.44433118
H       -2.27406801       0.89084811       0.26786495
H       -1.30897440      -0.82332083       1.32740400
H       -1.45794242      -1.79372892      -0.08975045
H       -0.11220518      -0.41643304      -1.47054788
H        0.56487872       2.01160484      -0.58834057
H        3.28978083       0.25487783      -0.63537581
13
Frame=16 idx=010434 GeodesicLength=1.939880369566104 rxn_smarts="[O:1]([C:2]([C@@:3]([C:4](=[O:5])[H:12])([C:6]#[C:7][H:13])[H:11])([H:9])[H:10])[H:8]>>[O:1]([C:2]([C@@:3]1([H:11])[C:4]([H:12])=[C:7]([H:13])[C:6]1=[O:5])([H:9])[H:10])[H:8]"
O       -2.37714137       0.03250338      -0.16017150
C       -1.28362412      -0.76719082       0.22776647
C        0.01436289      -0.26612998      -0.37946423
C        0.53625940       1.11990039       0.01839881
O        0.81244269       0.38859988       1.73781444
C        1.33909006      -0.66427185       0.25258511
C        2.25957601       0.08093642      -0.39982790
H       -2.26942454       0.88558135       0.26948942
H       -1.31762750      -0.83814202       1.32047299
H       -1.43913257      -1.79297985      -0.10597626
H       -0.09999589      -0.39837890      -1.46030659
H        0.54661264       2.01563223      -0.60560378
H        3.27860230       0.20393977      -0.71517699
