10
Frame=0 idx=005710 GeodesicLength=0.0 rxn_smarts="[O:1]=[C:2]([O:3][C:4]([C:5]#[C:6][H:10])([H:8])[H:9])[H:7]>>[O:1]=[C:2]([O:3]/[C:4](=[C:5](\[C:6][H:10])[H:8])[H:9])[H:7]"
O       -2.52237661       0.80897936       0.17716701
C       -2.12679935      -0.29859613       0.01218905
O       -0.82046922      -0.68380243       0.05593622
C        0.10871917       0.25737064       0.37831758
C        1.43715559       0.03253298       0.11434341
C        2.54262446      -0.63574198       0.03298815
H       -2.74145742      -1.18025778      -0.20084430
H        1.18035475       1.00076897      -0.52533698
H       -0.27773798       1.19315376       0.76016167
H        3.21998661      -0.49440740      -0.80492181
10
Frame=1 idx=005710 GeodesicLength=0.04880878081065459 rxn_smarts="[O:1]=[C:2]([O:3][C:4]([C:5]#[C:6][H:10])([H:8])[H:9])[H:7]>>[O:1]=[C:2]([O:3]/[C:4](=[C:5](\[C:6][H:10])[H:8])[H:9])[H:7]"
O       -2.52193243       0.80640012       0.16612197
C       -2.12176976      -0.30057317       0.00695503
O       -0.81433379      -0.67969167       0.04955448
C        0.10960248       0.26889958       0.36929012
C        1.44208895       0.04286346       0.12163538
C        2.52661014      -0.65639832       0.02020081
H       -2.73427141      -1.18808233      -0.18750086
H        1.16852164       1.01786242      -0.52485892
H       -0.27897465       1.19287863       0.77712567
H        3.22445883      -0.50415872      -0.79852370
10
Frame=2 idx=005710 GeodesicLength=0.09760837067720071 rxn_smarts="[O:1]=[C:2]([O:3][C:4]([C:5]#[C:6][H:10])([H:8])[H:9])[H:7]>>[O:1]=[C:2]([O:3]/[C:4](=[C:5](\[C:6][H:10])[H:8])[H:9])[H:7]"
O       -2.52157681       0.80381362       0.15728140
C       -2.11704209      -0.30226244       0.00159596
O       -0.80858960      -0.67558878       0.04232798
C        0.11046576       0.28002978       0.35945555
C        1.44653719       0.05238092       0.12649668
C        2.51048054      -0.67540681       0.00763838
H       -2.72750074      -1.19519841      -0.17384989
H        1.15606158       1.03517467      -0.52544070
H       -0.27965284       1.19131887       0.79386663
H        3.23081701      -0.51426141      -0.78937198
10
Frame=3 idx=005710 GeodesicLength=0.14650592738856363 rxn_smarts="[O:1]=[C:2]([O:3][C:4]([C:5]#[C:6][H:10])([H:8])[H:9])[H:7]>>[O:1]=[C:2]([O:3]/[C:4](=[C:5](\[C:6][H:10])[H:8])[H:9])[H:7]"
O       -2.52131011       0.80125152       0.15031259
C       -2.11257923      -0.30379007      -0.00344728
O       -0.80316318      -0.67155179       0.03483115
C        0.11130593       0.29086645       0.34918995
C        1.45056225       0.06124312       0.12924539
C        2.49434609      -0.69298832      -0.00492151
H       -2.72092989      -1.20163575      -0.16061867
H        1.14282703       1.05266348      -0.52707272
H       -0.27982229       1.18875748       0.81030170
H        3.23876341      -0.52481611      -0.77782061
10
Frame=4 idx=005710 GeodesicLength=0.19516430441143914 rxn_smarts="[O:1]=[C:2]([O:3][C:4]([C:5]#[C:6][H:10])([H:8])[H:9])[H:7]>>[O:1]=[C:2]([O:3]/[C:4](=[C:5](\[C:6][H:10])[H:8])[H:9])[H:7]"
O       -2.52126050       0.79782698       0.14611595
C       -2.10786793      -0.30572289      -0.00706502
O       -0.79740609      -0.66740444       0.02856559
C        0.11231824       0.30226812       0.33906078
C        1.45447208       0.07076466       0.13085003
C        2.47893479      -0.70760548      -0.01545862
H       -2.71327787      -1.20772257      -0.15171498
H        1.12869588       1.07062180      -0.52982322
H       -0.27956132       1.18625374       0.82606647
H        3.24495272      -0.53927992      -0.76659698
10
Frame=5 idx=005710 GeodesicLength=0.24391695184135895 rxn_smarts="[O:1]=[C:2]([O:3][C:4]([C:5]#[C:6][H:10])([H:8])[H:9])[H:7]>>[O:1]=[C:2]([O:3]/[C:4](=[C:5](\[C:6][H:10])[H:8])[H:9])[H:7]"
O       -2.52121882       0.79431776       0.14343577
C       -2.10320790      -0.30771405      -0.00959065
O       -0.79172644      -0.66337571       0.02311136
C        0.11338187       0.31361270       0.32912338
C        1.45813872       0.08008339       0.13097704
C        2.46377934      -0.72090388      -0.02561000
H       -2.70545153      -1.21333700      -0.14496616
H        1.11357750       1.08864760      -0.53361503
H       -0.27876860       1.18341057       0.84134301
H        3.25149585      -0.55474138      -0.75420871
10
Frame=6 idx=005710 GeodesicLength=0.29267445914441154 rxn_smarts="[O:1]=[C:2]([O:3][C:4]([C:5]#[C:6][H:10])([H:8])[H:9])[H:7]>>[O:1]=[C:2]([O:3]/[C:4](=[C:5](\[C:6][H:10])[H:8])[H:9])[H:7]"
O       -2.52114135       0.79062116       0.14175825
C       -2.09844306      -0.30976369      -0.01172551
O       -0.78593218      -0.65926917       0.01769116
C        0.11451254       0.32500040       0.31937388
C        1.46168531       0.08952046       0.13003380
C        2.44906634      -0.73265722      -0.03487134
H       -2.69731025      -1.21881235      -0.13938441
H        1.09770924       1.10721411      -0.53775057
H       -0.27758538       1.18009207       0.85638160
H        3.25743879      -0.57194577      -0.74150687
10
Frame=7 idx=005710 GeodesicLength=0.34141322988635286 rxn_smarts="[O:1]=[C:2]([O:3][C:4]([C:5]#[C:6][H:10])([H:8])[H:9])[H:7]>>[O:1]=[C:2]([O:3]/[C:4](=[C:5](\[C:6][H:10])[H:8])[H:9])[H:7]"
O       -2.52092944       0.78716112       0.14048871
C       -2.09382931      -0.31155603      -0.01416608
O       -0.78035162      -0.65505858       0.01123957
C        0.11562001       0.33599607       0.30952532
C        1.46499211       0.09848934       0.12759751
C        2.43436622      -0.74379544      -0.04464547
H       -2.68947966      -1.22402968      -0.13258852
H        1.08114802       1.12623764      -0.54193945
H       -0.27591773       1.17564755       0.87132822
H        3.26438140      -0.58909199      -0.72683982
10
Frame=8 idx=005710 GeodesicLength=0.3901698059142479 rxn_smarts="[O:1]=[C:2]([O:3][C:4]([C:5]#[C:6][H:10])([H:8])[H:9])[H:7]>>[O:1]=[C:2]([O:3]/[C:4](=[C:5](\[C:6][H:10])[H:8])[H:9])[H:7]"
O       -2.52061280       0.78350104       0.13938726
C       -2.08896869      -0.31340022      -0.01697419
O       -0.77448007      -0.65060216       0.00405036
C        0.11680715       0.34710424       0.29994217
C        1.46831194       0.10782867       0.12455180
C        2.42025537      -0.75342104      -0.05315782
H       -2.68114852      -1.22940704      -0.12566712
H        1.06403635       1.14624690      -0.54569001
H       -0.27406101       1.17055581       0.88627901
H        3.26986028      -0.60840620      -0.71272146
10
Frame=9 idx=005710 GeodesicLength=0.43896080262942966 rxn_smarts="[O:1]=[C:2]([O:3][C:4]([C:5]#[C:6][H:10])([H:8])[H:9])[H:7]>>[O:1]=[C:2]([O:3]/[C:4](=[C:5](\[C:6][H:10])[H:8])[H:9])[H:7]"
O       -2.52014676       0.77998313       0.13822967
C       -2.08411769      -0.31506623      -0.02040524
O       -0.76863419      -0.64590370      -0.00454225
C        0.11799970       0.35798571       0.29037713
C        1.47151663       0.11701019       0.12042784
C        2.40631809      -0.76234705      -0.06170391
H       -2.67278151      -1.23474778      -0.11712773
H        1.04633757       1.16706378      -0.54896802
H       -0.27189718       1.16434969       0.90124172
H        3.27540534      -0.62832774      -0.69752921
10
Frame=10 idx=005710 GeodesicLength=0.4877673698058585 rxn_smarts="[O:1]=[C:2]([O:3][C:4]([C:5]#[C:6][H:10])([H:8])[H:9])[H:7]>>[O:1]=[C:2]([O:3]/[C:4](=[C:5](\[C:6][H:10])[H:8])[H:9])[H:7]"
O       -2.51963918       0.77620476       0.13817322
C       -2.07910398      -0.31685740      -0.02315553
O       -0.76262475      -0.64111401      -0.01279442
C        0.11929484       0.36901661       0.28109857
C        1.47471344       0.12648645       0.11534983
C        2.39277448      -0.77024044      -0.06938161
H       -2.66394614      -1.24000325      -0.11031001
H        1.02771770       1.18828213      -0.55265983
H       -0.26925952       1.15798783       0.91573137
H        3.28007310      -0.64976268      -0.68205160
10
Frame=11 idx=005710 GeodesicLength=0.5365997386929862 rxn_smarts="[O:1]=[C:2]([O:3][C:4]([C:5]#[C:6][H:10])([H:8])[H:9])[H:7]>>[O:1]=[C:2]([O:3]/[C:4](=[C:5](\[C:6][H:10])[H:8])[H:9])[H:7]"
O       -2.51908971       0.77240495       0.13929210
C       -2.07414713      -0.31856695      -0.02543730
O       -0.75671966      -0.63620706      -0.02134356
C        0.12062550       0.37993173       0.27179150
C        1.47778639       0.13584335       0.10878477
C        2.37927897      -0.77769449      -0.07735715
H       -2.65506027      -1.24501826      -0.10405765
H        1.00811966       1.20981837      -0.55676310
H       -0.26599405       1.15105624       0.92977084
H        3.28520031      -0.67156788      -0.66468044
10
Frame=12 idx=005710 GeodesicLength=0.585502639630696 rxn_smarts="[O:1]=[C:2]([O:3][C:4]([C:5]#[C:6][H:10])([H:8])[H:9])[H:7]>>[O:1]=[C:2]([O:3]/[C:4](=[C:5](\[C:6][H:10])[H:8])[H:9])[H:7]"
O       -2.51848356       0.76868116       0.14115476
C       -2.06929800      -0.32014653      -0.02780120
O       -0.75096435      -0.63110240      -0.03093907
C        0.12196337       0.39070546       0.26234255
C        1.48074775       0.14508112       0.10071023
C        2.36579041      -0.78481420      -0.08582559
H       -2.64618383      -1.24994961      -0.09712077
H        0.98772364       1.23203694      -0.56082992
H       -0.26218822       1.14325958       0.94359963
H        3.29089279      -0.69375153      -0.64529061
10
Frame=13 idx=005710 GeodesicLength=0.6344452382758353 rxn_smarts="[O:1]=[C:2]([O:3][C:4]([C:5]#[C:6][H:10])([H:8])[H:9])[H:7]>>[O:1]=[C:2]([O:3]/[C:4](=[C:5](\[C:6][H:10])[H:8])[H:9])[H:7]"
O       -2.51774682       0.76436512       0.14348555
C       -2.06388047      -0.32195043      -0.03023646
O       -0.74458596      -0.62558318      -0.04088176
C        0.12349294       0.40192788       0.25317235
C        1.48391156       0.15521958       0.09223101
C        2.35312749      -0.79037012      -0.09184422
H       -2.63615640      -1.25522654      -0.09115438
H        0.96652960       1.25523433      -0.56444626
H       -0.25811325       1.13523877       0.95707908
H        3.29342132      -0.71885542      -0.62740491
10
Frame=14 idx=005710 GeodesicLength=0.6833967694398932 rxn_smarts="[O:1]=[C:2]([O:3][C:4]([C:5]#[C:6][H:10])([H:8])[H:9])[H:7]>>[O:1]=[C:2]([O:3]/[C:4](=[C:5](\[C:6][H:10])[H:8])[H:9])[H:7]"
O       -2.51688847       0.75996744       0.14658766
C       -2.05840293      -0.32375151      -0.03241832
O       -0.73820792      -0.61991265      -0.05121355
C        0.12510305       0.41315021       0.24404438
C        1.48705739       0.16544863       0.08250506
C        2.34068703      -0.79545649      -0.09738713
H       -2.62590392      -1.26047745      -0.08561399
H        0.94446410       1.27896298      -0.56805338
H       -0.25345491       1.12675320       0.97016830
H        3.29554658      -0.74468435      -0.60861904
10
Frame=15 idx=005710 GeodesicLength=0.7323891720145663 rxn_smarts="[O:1]=[C:2]([O:3][C:4]([C:5]#[C:6][H:10])([H:8])[H:9])[H:7]>>[O:1]=[C:2]([O:3]/[C:4](=[C:5](\[C:6][H:10])[H:8])[H:9])[H:7]"
O       -2.51590246       0.75562247       0.15082588
C       -2.05301275      -0.32539843      -0.03432947
O       -0.73202136      -0.61404737      -0.06235461
C        0.12676246       0.42418813       0.23466177
C        1.49008488       0.17548940       0.07090052
C        2.32825999      -0.80034217      -0.10365345
H       -2.61565220      -1.26551643      -0.07998418
H        0.92133917       1.30317120      -0.57171620
H       -0.24797507       1.11741097       0.98284850
H        3.29811733      -0.77057777      -0.58719876
10
Frame=16 idx=005710 GeodesicLength=0.7813982642449621 rxn_smarts="[O:1]=[C:2]([O:3][C:4]([C:5]#[C:6][H:10])([H:8])[H:9])[H:7]>>[O:1]=[C:2]([O:3]/[C:4](=[C:5](\[C:6][H:10])[H:8])[H:9])[H:7]"
O       -2.51474305       0.75132460       0.15619582
C       -2.04769249      -0.32689056      -0.03596421
O       -0.72603351      -0.60798024      -0.07431144
C        0.12848822       0.43503425       0.22499312
C        1.49299427       0.18535229       0.05731757
C        2.31587212      -0.80497720      -0.11081406
H       -2.60538238      -1.27034571      -0.07424657
H        0.89711906       1.32787659      -0.57533073
H       -0.24160134       1.10715874       0.99509202
H        3.30097910      -0.79655276      -0.56293153
