12
Frame=0 idx=004925 GeodesicLength=0.0 rxn_smarts="[O:1]=[C:2]1[C:3]([H:7])([H:8])[C:4]([H:9])([H:10])[O:5][C:6]1([H:11])[H:12]>>[O:1]1[C@@:2]2([H:12])[C:3]([H:7])([H:8])[C:4]([H:9])([H:10])[O:5][C@@:6]12[H:11]"
O        1.00047858       2.09354458       0.02658199
C        0.61274952       0.90773182       0.34341894
C       -0.87627042       0.47892456       0.04109481
C       -0.79097434      -1.01387648      -0.16075796
O        0.60712792      -1.23217651      -0.64862692
C        1.31057357      -0.23752708      -0.30534466
H       -1.18084882       1.00094103      -0.86662971
H       -1.54090808       0.75122676       0.85686900
H       -0.85985498      -1.58619456       0.76452124
H       -1.42983328      -1.45442172      -0.92131210
H        2.36618913      -0.27347080      -0.56628697
H        0.78157123       0.56529835       1.43647233
12
Frame=1 idx=004925 GeodesicLength=0.09305209516679673 rxn_smarts="[O:1]=[C:2]1[C:3]([H:7])([H:8])[C:4]([H:9])([H:10])[O:5][C:6]1([H:11])[H:12]>>[O:1]1[C@@:2]2([H:12])[C:3]([H:7])([H:8])[C:4]([H:9])([H:10])[O:5][C@@:6]12[H:11]"
O        1.01364776       2.07293561      -0.03475540
C        0.59505997       0.91602018       0.34160160
C       -0.88647900       0.47908408       0.04953143
C       -0.78945807      -1.01154513      -0.16923568
O        0.60938863      -1.22417281      -0.64237282
C        1.31310047      -0.22615010      -0.28404390
H       -1.21182768       1.00462983      -0.84898053
H       -1.54173234       0.73992711       0.87682255
H       -0.87410259      -1.59458924       0.74827894
H       -1.42111504      -1.44060122      -0.94258313
H        2.37237975      -0.27115773      -0.52665799
H        0.82113815       0.55561941       1.43239492
12
Frame=2 idx=004925 GeodesicLength=0.18612959911404078 rxn_smarts="[O:1]=[C:2]1[C:3]([H:7])([H:8])[C:4]([H:9])([H:10])[O:5][C:6]1([H:11])[H:12]>>[O:1]1[C@@:2]2([H:12])[C:3]([H:7])([H:8])[C:4]([H:9])([H:10])[O:5][C@@:6]12[H:11]"
O        1.02466304       2.04957064      -0.09449284
C        0.57850107       0.92409300       0.34044042
C       -0.89595494       0.47935024       0.05790204
C       -0.78772116      -1.00890867      -0.17750420
O        0.61191007      -1.21689266      -0.63490045
C        1.31563897      -0.21496988      -0.26278993
H       -1.24161190       1.00816814      -0.83112434
H       -1.54215515       0.72881915       0.89602261
H       -0.88873585      -1.60247356       0.73184739
H       -1.41177294      -1.42601727      -0.96375925
H        2.37773521      -0.26821798      -0.48938379
H        0.85950357       0.54747884       1.42774235
12
Frame=3 idx=004925 GeodesicLength=0.279260011487828 rxn_smarts="[O:1]=[C:2]1[C:3]([H:7])([H:8])[C:4]([H:9])([H:10])[O:5][C:6]1([H:11])[H:12]>>[O:1]1[C@@:2]2([H:12])[C:3]([H:7])([H:8])[C:4]([H:9])([H:10])[O:5][C@@:6]12[H:11]"
O        1.03364334       2.02377907      -0.15222336
C        0.56302961       0.93193471       0.33964627
C       -0.90473131       0.47971052       0.06613933
C       -0.78578851      -1.00601765      -0.18554847
O        0.61463759      -1.21044334      -0.62617159
C        1.31821618      -0.20407654      -0.24160455
H       -1.27024134       1.01150957      -0.81318159
H       -1.54213419       0.71796172       0.91447392
H       -0.90379557      -1.60983662       0.71524893
H       -1.40180240      -1.41075749      -0.98479976
H        2.38237830      -0.26464761      -0.45466729
H        0.89658832       0.54088367       1.42268815
12
Frame=4 idx=004925 GeodesicLength=0.37244088998392755 rxn_smarts="[O:1]=[C:2]1[C:3]([H:7])([H:8])[C:4]([H:9])([H:10])[O:5][C:6]1([H:11])[H:12]>>[O:1]1[C@@:2]2([H:12])[C:3]([H:7])([H:8])[C:4]([H:9])([H:10])[O:5][C@@:6]12[H:11]"
O        1.04074491       1.99586871      -0.20772979
C        0.54856373       0.93953385       0.33897051
C       -0.91287032       0.48014806       0.07420898
C       -0.78368559      -1.00291148      -0.19336374
O        0.61752200      -1.20487565      -0.61617786
C        1.32083999      -0.19349552      -0.22054760
H       -1.29780080       1.01461524      -0.79521127
H       -1.54165185       0.70738212       0.93222265
H       -0.91931530      -1.61667953       0.69846949
H       -1.39118687      -1.39488504      -1.00567594
H        2.38644486      -0.26048448      -0.42251692
H        0.93239524       0.53578372       1.41735149
12
Frame=5 idx=004925 GeodesicLength=0.46568271669997224 rxn_smarts="[O:1]=[C:2]1[C:3]([H:7])([H:8])[C:4]([H:9])([H:10])[O:5][C:6]1([H:11])[H:12]>>[O:1]1[C@@:2]2([H:12])[C:3]([H:7])([H:8])[C:4]([H:9])([H:10])[O:5][C@@:6]12[H:11]"
O        1.04615444       1.96613434      -0.26090347
C        0.53500223       0.94689516       0.33822249
C       -0.92044340       0.48064960       0.08208663
C       -0.78143917      -0.99963375      -0.20095216
O        0.62050378      -1.20020850      -0.60493406
C        1.32349787      -0.18320915      -0.19968954
H       -1.32438599       1.01746211      -0.77726560
H       -1.54070069       0.69709638       0.94932445
H       -0.93530438      -1.62302236       0.68149271
H       -1.37991764      -1.37847464      -1.02637073
H        2.39003973      -0.25577511      -0.39284679
H        0.96699320       0.53208591       1.41183606
12
Frame=6 idx=004925 GeodesicLength=0.5589844016494696 rxn_smarts="[O:1]=[C:2]1[C:3]([H:7])([H:8])[C:4]([H:9])([H:10])[O:5][C:6]1([H:11])[H:12]>>[O:1]1[C@@:2]2([H:12])[C:3]([H:7])([H:8])[C:4]([H:9])([H:10])[O:5][C@@:6]12[H:11]"
O        1.05005559       1.93483033      -0.31171421
C        0.52223806       0.95402400       0.33726220
C       -0.92752545       0.48120117       0.08976036
C       -0.77907338      -0.99621873      -0.20831549
O        0.62352786      -1.19643033      -0.59245568
C        1.32617180      -0.17317089      -0.17910552
H       -1.35009135       1.02002640      -0.75937631
H       -1.53929204       0.68710891       0.96583228
H       -0.95176665      -1.62888128       0.66429146
H       -1.36797837      -1.36158640      -1.04686636
H        2.39324596      -0.25057078      -0.36552148
H        1.00048796       0.52966759       1.40620876
12
Frame=7 idx=004925 GeodesicLength=0.6523468130499285 rxn_smarts="[O:1]=[C:2]1[C:3]([H:7])([H:8])[C:4]([H:9])([H:10])[O:5][C:6]1([H:11])[H:12]>>[O:1]1[C@@:2]2([H:12])[C:3]([H:7])([H:8])[C:4]([H:9])([H:10])[O:5][C@@:6]12[H:11]"
O        1.05262387       1.90218358      -0.36016540
C        0.51016556       0.96092908       0.33599643
C       -0.93418751       0.48179218       0.09722087
C       -0.77660936      -0.99269813      -0.21545273
O        0.62653792      -1.19351032      -0.57876199
C        1.32883907      -0.16331973      -0.15886762
H       -1.37499797       1.02228824      -0.74157808
H       -1.53745001       0.67742348       0.98178662
H       -0.96869222      -1.63427248       0.64684316
H       -1.35535320      -1.34428106      -1.06714024
H        2.39611842      -0.24492095      -0.34039929
H        1.03300541       0.52838611       1.40051826
12
Frame=8 idx=004925 GeodesicLength=0.7457682760655584 rxn_smarts="[O:1]=[C:2]1[C:3]([H:7])([H:8])[C:4]([H:9])([H:10])[O:5][C:6]1([H:11])[H:12]>>[O:1]1[C@@:2]2([H:12])[C:3]([H:7])([H:8])[C:4]([H:9])([H:10])[O:5][C@@:6]12[H:11]"
O        1.05401837       1.86839529      -0.40627963
C        0.49868588       0.96761861       0.33436914
C       -0.94049501       0.48241425       0.10446157
C       -0.77406489      -0.98909956      -0.22235929
O        0.62947928      -1.19140269      -0.56387230
C        1.33147737      -0.15358960      -0.13904121
H       -1.39917392       1.02422824      -0.72390612
H       -1.53521028       0.66804419       0.99721557
H       -0.98606341      -1.63920896       0.62912760
H       -1.34202454      -1.32661533      -1.08716376
H        2.39869214      -0.23887404      -0.31734636
H        1.06467902       0.52808960       1.39479480
12
Frame=9 idx=004925 GeodesicLength=0.83924982919687 rxn_smarts="[O:1]=[C:2]1[C:3]([H:7])([H:8])[C:4]([H:9])([H:10])[O:5][C:6]1([H:11])[H:12]>>[O:1]1[C@@:2]2([H:12])[C:3]([H:7])([H:8])[C:4]([H:9])([H:10])[O:5][C@@:6]12[H:11]"
O        1.05438683       1.83364613      -0.45006928
C        0.48770615       0.97410060       0.33235243
C       -0.94650661       0.48306277       0.11147143
C       -0.77145415      -0.98544836      -0.22902609
O        0.63229570      -1.19004306      -0.54782166
C        1.33406377      -0.14391489      -0.11968571
H       -1.42267001       1.02582877      -0.70640718
H       -1.53261934       0.65898001       1.01212926
H       -1.00383966      -1.64369842       0.61113730
H       -1.32798451      -1.30865356      -1.10689132
H        2.40098405      -0.23247848      -0.29624520
H        1.09563778       0.52861850       1.38905601
12
Frame=10 idx=004925 GeodesicLength=0.9327908145457654 rxn_smarts="[O:1]=[C:2]1[C:3]([H:7])([H:8])[C:4]([H:9])([H:10])[O:5][C:6]1([H:11])[H:12]>>[O:1]1[C@@:2]2([H:12])[C:3]([H:7])([H:8])[C:4]([H:9])([H:10])[O:5][C@@:6]12[H:11]"
O        1.05385410       1.79809883      -0.49158057
C        0.47714601       0.98038104       0.32994168
C       -0.95227452       0.48373233       0.11824870
C       -0.76878911      -0.98176581      -0.23544507
O        0.63493723      -1.18936714      -0.53062624
C        1.33658111      -0.13423750      -0.10084055
H       -1.44553640       1.02707180      -0.68911645
H       -1.52972441       0.65023459       1.02654012
H       -1.02199479      -1.64775117       0.59285379
H       -1.31321267      -1.29044240      -1.12629087
H        2.40300182      -0.22578264      -0.27699669
H        1.12601165       0.52982806       1.38331214
12
Frame=11 idx=004925 GeodesicLength=1.0263930351639536 rxn_smarts="[O:1]=[C:2]1[C:3]([H:7])([H:8])[C:4]([H:9])([H:10])[O:5][C:6]1([H:11])[H:12]>>[O:1]1[C@@:2]2([H:12])[C:3]([H:7])([H:8])[C:4]([H:9])([H:10])[O:5][C@@:6]12[H:11]"
O        1.05253844       1.76190543      -0.53083918
C        0.46693174       0.98646744       0.32714569
C       -0.95784490       0.48442134       0.12478528
C       -0.76607945      -0.97807305      -0.24160555
O        0.63735207      -1.18929484      -0.51232695
C        1.33901226      -0.12450492      -0.08253957
H       -1.46781056       1.02794254      -0.67208118
H       -1.52657935       0.64181682       1.04044747
H       -1.04047700      -1.65137535       0.57427338
H       -1.29770510      -1.27204077      -1.14531318
H        2.40474308      -0.21883867      -0.25951408
H        1.15591877       0.53157402       1.37756789
12
Frame=12 idx=004925 GeodesicLength=1.120057161885198 rxn_smarts="[O:1]=[C:2]1[C:3]([H:7])([H:8])[C:4]([H:9])([H:10])[O:5][C:6]1([H:11])[H:12]>>[O:1]1[C@@:2]2([H:12])[C:3]([H:7])([H:8])[C:4]([H:9])([H:10])[O:5][C@@:6]12[H:11]"
O        1.05054556       1.72521012      -0.56787161
C        0.45699850       0.99236640       0.32398491
C       -0.96325874       0.48512982       0.13107253
C       -0.76333262      -0.97438908      -0.24749615
O        0.63949134      -1.18973779      -0.49297615
C        1.34134285      -0.11467174      -0.06480746
H       -1.48952536       1.02842738      -0.65535055
H       -1.52324074       0.63373735       1.05384486
H       -1.05922391      -1.65457850       0.55539789
H       -1.28146589      -1.25350820      -1.16390354
H        2.40620037      -0.21170225      -0.24371869
H        1.18546863       0.53371649       1.37182395
12
Frame=13 idx=004925 GeodesicLength=1.2137834595949895 rxn_smarts="[O:1]=[C:2]1[C:3]([H:7])([H:8])[C:4]([H:9])([H:10])[O:5][C:6]1([H:11])[H:12]>>[O:1]1[C@@:2]2([H:12])[C:3]([H:7])([H:8])[C:4]([H:9])([H:10])[O:5][C@@:6]12[H:11]"
O        1.04797178       1.68815149      -0.60270138
C        0.44728938       0.99808448       0.32048822
C       -0.96855247       0.48585979       0.13709977
C       -0.76055424      -0.97073143      -0.25310491
O        0.64130973      -1.19059966      -0.47264252
C        1.34356083      -0.10469951      -0.04766042
H       -1.51070866       1.02851521      -0.63897760
H       -1.51976847       0.62600957       1.06671992
H       -1.07815948      -1.65736871       0.53623814
H       -1.26451177      -1.23490771      -1.18200061
H        2.40736237      -0.20443179      -0.22953848
H        1.21476100       0.53611826       1.36607986
12
Frame=14 idx=004925 GeodesicLength=1.3075721679040264 rxn_smarts="[O:1]=[C:2]1[C:3]([H:7])([H:8])[C:4]([H:9])([H:10])[O:5][C:6]1([H:11])[H:12]>>[O:1]1[C@@:2]2([H:12])[C:3]([H:7])([H:8])[C:4]([H:9])([H:10])[O:5][C@@:6]12[H:11]"
O        1.04490775       1.65086467      -0.63534802
C        0.43775360       1.00362811       0.31668972
C       -0.97375849       0.48661502       0.14285323
C       -0.75774849      -0.96711596      -0.25842031
O        0.64276624      -1.19177686      -0.45141538
C        1.34565566      -0.09455605      -0.03110746
H       -1.53138511       1.02819716      -0.62301849
H       -1.51622351       0.61864889       1.07905477
H       -1.09719195      -1.65975369       0.51681651
H       -1.24687616      -1.21630735      -1.19953684
H        2.40821511      -0.19708785      -0.21690222
H        1.24388535       0.53864391       1.36033449
12
Frame=15 idx=004925 GeodesicLength=1.401422729100252 rxn_smarts="[O:1]=[C:2]1[C:3]([H:7])([H:8])[C:4]([H:9])([H:10])[O:5][C:6]1([H:11])[H:12]>>[O:1]1[C@@:2]2([H:12])[C:3]([H:7])([H:8])[C:4]([H:9])([H:10])[O:5][C@@:6]12[H:11]"
O        1.04143620       1.61348109      -0.66583358
C        0.42834714       1.00900432       0.31262705
C       -0.97890573       0.48740085       0.14831787
C       -0.75491824      -0.96355671      -0.26343153
O        0.64382698      -1.19316351      -0.42939869
C        1.34761934      -0.08421476      -0.01514990
H       -1.55157736       1.02746780      -0.60753007
H       -1.51266800       0.61167242       1.09082904
H       -1.11622034      -1.66174336       0.49716503
H       -1.22860623      -1.19777660      -1.21644350
H        2.40874381      -0.18973100      -0.20573955
H        1.27292244       0.54115946       1.35458785
12
Frame=16 idx=004925 GeodesicLength=1.4953341556914483 rxn_smarts="[O:1]=[C:2]1[C:3]([H:7])([H:8])[C:4]([H:9])([H:10])[O:5][C:6]1([H:11])[H:12]>>[O:1]1[C@@:2]2([H:12])[C:3]([H:7])([H:8])[C:4]([H:9])([H:10])[O:5][C@@:6]12[H:11]"
O        1.03763458       1.57612897      -0.69418216
C        0.41903127       1.01422077       0.30833916
C       -0.98402006       0.48822376       0.15347688
C       -0.75206545      -0.96006575      -0.26812935
O        0.64446588      -1.19465331      -0.40671179
C        1.34944584      -0.07365331       0.00021755
H       -1.57130724       1.02632459      -0.59256890
H       -1.50916321       0.60509818       1.10202049
H       -1.13513518      -1.66334873       0.47732715
H       -1.20976457      -1.17938683      -1.23265262
H        2.40893354      -0.18242003      -0.19597771
H        1.30194459       0.54353171       1.34884130
