15
Frame=0 idx=009053 GeodesicLength=0.0 rxn_smarts="[N:1]([C@@:2]([C:3]#[N:4])([C:5]1([H:11])[C:6]([H:12])([H:13])[C:7]1([H:14])[H:15])[H:10])([H:8])[H:9]>>[N:1]([C:3]1=[N:4][C@:2]1([C:5]1([H:11])[C:6]([H:12])([H:13])[C:7]1([H:14])[H:15])[H:10])([H:8])[H:9]"
N        2.39517553      -0.26103173       0.10877977
C        0.44862201       0.32730374       0.48316472
C        1.67604326       1.06591155       0.22950171
N        1.99160388       2.23235788       0.14398010
C       -0.61254111       0.14521025      -0.45923124
C       -2.04454407       0.21163637       0.08855575
C       -1.50386332      -1.08502265      -0.34182254
H        3.10263322      -0.47436488       0.80190572
H        2.68623034      -0.50741462      -0.82819863
H        0.28691922      -0.04092812       1.49632022
H       -0.45392650       0.56104453      -1.44518192
H       -2.15786913       0.41024283       1.14532109
H       -2.74560869       0.73126258      -0.54970831
H       -1.83473558      -1.50167995      -1.28311498
H       -1.23413912      -1.81452774       0.40972853
15
Frame=1 idx=009053 GeodesicLength=0.06300267033585595 rxn_smarts="[N:1]([C@@:2]([C:3]#[N:4])([C:5]1([H:11])[C:6]([H:12])([H:13])[C:7]1([H:14])[H:15])[H:10])([H:8])[H:9]>>[N:1]([C:3]1=[N:4][C@:2]1([C:5]1([H:11])[C:6]([H:12])([H:13])[C:7]1([H:14])[H:15])[H:10])([H:8])[H:9]"
N        2.39318748      -0.27610696       0.10575954
C        0.46045094       0.32230873       0.47743912
C        1.67838185       1.06607168       0.20908737
N        1.94292621       2.24543626       0.19481456
C       -0.60813740       0.14275806      -0.46301710
C       -2.03699229       0.21880751       0.08530819
C       -1.50123668      -1.08373527      -0.33974907
H        3.11314601      -0.46472688       0.79265453
H        2.67632421      -0.53031794      -0.83116166
H        0.29345228      -0.03415661       1.49381251
H       -0.45002320       0.55200174      -1.45204720
H       -2.14914666       0.42117668       1.14160043
H       -2.74003101       0.73543714      -0.55326024
H       -1.83766966      -1.50472567      -1.27718866
H       -1.23463208      -1.81022847       0.41594766
15
Frame=2 idx=009053 GeodesicLength=0.12638203204083717 rxn_smarts="[N:1]([C@@:2]([C:3]#[N:4])([C:5]1([H:11])[C:6]([H:12])([H:13])[C:7]1([H:14])[H:15])[H:10])([H:8])[H:9]>>[N:1]([C:3]1=[N:4][C@:2]1([C:5]1([H:11])[C:6]([H:12])([H:13])[C:7]1([H:14])[H:15])[H:10])([H:8])[H:9]"
N        2.39060540      -0.29009426       0.10263847
C        0.47230721       0.31852422       0.47197973
C        1.68070279       1.06804751       0.18900971
N        1.89389894       2.25420480       0.24688028
C       -0.60342335       0.14070218      -0.46671463
C       -2.02923369       0.22591948       0.08176159
C       -1.49778056      -1.08234542      -0.33744218
H        3.12294207      -0.45523957       0.78191683
H        2.66398271      -0.55366513      -0.83417044
H        0.30014175      -0.02703540       1.49113421
H       -0.44572431       0.54308770      -1.45884603
H       -2.14048939       0.43232958       1.13746597
H       -2.73435064       0.73904829      -0.55735918
H       -1.83941895      -1.50803999      -1.27089730
H       -1.23415999      -1.80544398       0.42264298
15
Frame=3 idx=009053 GeodesicLength=0.19024770608830469 rxn_smarts="[N:1]([C@@:2]([C:3]#[N:4])([C:5]1([H:11])[C:6]([H:12])([H:13])[C:7]1([H:14])[H:15])[H:10])([H:8])[H:9]>>[N:1]([C:3]1=[N:4][C@:2]1([C:5]1([H:11])[C:6]([H:12])([H:13])[C:7]1([H:14])[H:15])[H:10])([H:8])[H:9]"
N        2.38749809      -0.30308823       0.09996336
C        0.48408010       0.31552583       0.46755199
C        1.68295436       1.07161825       0.17128714
N        1.84453009       2.25900985       0.29559666
C       -0.59831814       0.13907801      -0.46991434
C       -2.02129914       0.23291304       0.07808338
C       -1.49359188      -1.08079726      -0.33530193
H        3.13251342      -0.44588579       0.76992392
H        2.64911914      -0.57691943      -0.83683733
H        0.30666017      -0.02039127       1.48894253
H       -0.44064514       0.53493094      -1.46490621
H       -2.13213101       0.44310541       1.13319479
H       -2.72838917       0.74249370      -0.56173060
H       -1.83995481      -1.51104206      -1.26496410
H       -1.23302609      -1.80055100       0.42911074
15
Frame=4 idx=009053 GeodesicLength=0.25455426926118885 rxn_smarts="[N:1]([C@@:2]([C:3]#[N:4])([C:5]1([H:11])[C:6]([H:12])([H:13])[C:7]1([H:14])[H:15])[H:10])([H:8])[H:9]>>[N:1]([C:3]1=[N:4][C@:2]1([C:5]1([H:11])[C:6]([H:12])([H:13])[C:7]1([H:14])[H:15])[H:10])([H:8])[H:9]"
N        2.38383806      -0.31525883       0.09768920
C        0.49565368       0.31317975       0.46435580
C        1.68506248       1.07651362       0.15642339
N        1.79551250       2.26055959       0.34007503
C       -0.59286689       0.13785310      -0.47250752
C       -2.01328332       0.23973911       0.07428062
C       -1.48874403      -1.07912063      -0.33334808
H        3.14181556      -0.43694014       0.75664593
H        2.63200933      -0.59953265      -0.83923069
H        0.31282263      -0.01434790       1.48744980
H       -0.43471365       0.52754265      -1.47008108
H       -2.12425023       0.45340787       1.12878938
H       -2.72218674       0.74574327      -0.56640086
H       -1.83927505      -1.51372342      -1.25945634
H       -1.23139430      -1.79561541       0.43531542
15
Frame=5 idx=009053 GeodesicLength=0.3193178510543496 rxn_smarts="[N:1]([C@@:2]([C:3]#[N:4])([C:5]1([H:11])[C:6]([H:12])([H:13])[C:7]1([H:14])[H:15])[H:10])([H:8])[H:9]>>[N:1]([C:3]1=[N:4][C@:2]1([C:5]1([H:11])[C:6]([H:12])([H:13])[C:7]1([H:14])[H:15])[H:10])([H:8])[H:9]"
N        2.37983846      -0.32666985       0.09569423
C        0.50703730       0.31106112       0.46239029
C        1.68690722       1.08246766       0.14458399
N        1.74684299       2.25958264       0.38046337
C       -0.58706975       0.13674658      -0.47451636
C       -2.00518036       0.24652005       0.07029938
C       -1.48354436      -1.07736758      -0.33149125
H        3.15107639      -0.42828927       0.74199287
H        2.61320587      -0.62095267      -0.84150685
H        0.31862565      -0.00930787       1.48668509
H       -0.42780354       0.52049458      -1.47443780
H       -2.11680262       0.46350637       1.12417247
H       -2.71558427       0.74903734      -0.57150129
H       -1.83777477      -1.51615459      -1.25425486
H       -1.22977422      -1.79067451       0.44142672
15
Frame=6 idx=009053 GeodesicLength=0.38443363379745066 rxn_smarts="[N:1]([C@@:2]([C:3]#[N:4])([C:5]1([H:11])[C:6]([H:12])([H:13])[C:7]1([H:14])[H:15])[H:10])([H:8])[H:9]>>[N:1]([C:3]1=[N:4][C@:2]1([C:5]1([H:11])[C:6]([H:12])([H:13])[C:7]1([H:14])[H:15])[H:10])([H:8])[H:9]"
N        2.37548898      -0.33747239       0.09383722
C        0.51819978       0.30919547       0.46151827
C        1.68846000       1.08931897       0.13537839
N        1.69899508       2.25659836       0.41745891
C       -0.58101217       0.13574790      -0.47601323
C       -1.99705260       0.25322576       0.06613232
C       -1.47803026      -1.07558332      -0.32966818
H        3.16009237      -0.42007906       0.72604636
H        2.59304085      -0.64108743      -0.84375598
H        0.32406301      -0.00507258       1.48659354
H       -0.42006805       0.51368283      -1.47809886
H       -2.10980352       0.47345462       1.11932593
H       -2.70870036       0.75225425      -0.57705253
H       -1.83551598      -1.51847530      -1.24925297
H       -1.22815712      -1.78570808       0.44755081
15
Frame=7 idx=009053 GeodesicLength=0.449911378172791 rxn_smarts="[N:1]([C@@:2]([C:3]#[N:4])([C:5]1([H:11])[C:6]([H:12])([H:13])[C:7]1([H:14])[H:15])[H:10])([H:8])[H:9]>>[N:1]([C:3]1=[N:4][C@:2]1([C:5]1([H:11])[C:6]([H:12])([H:13])[C:7]1([H:14])[H:15])[H:10])([H:8])[H:9]"
N        2.37093211      -0.34783454       0.09223418
C        0.52918065       0.30740426       0.46160633
C        1.68974058       1.09683759       0.12858644
N        1.65179465       2.25206503       0.45083950
C       -0.57474538       0.13480111      -0.47704748
C       -1.98889207       0.25985253       0.06188429
C       -1.47233141      -1.07376704      -0.32795225
H        3.16890509      -0.41216275       0.70908089
H        2.57198087      -0.66003719      -0.84578607
H        0.32916180      -0.00163360       1.48710491
H       -0.41165071       0.50717237      -1.48108180
H       -2.10314245       0.48314258       1.11438340
H       -2.70154488       0.75551841      -0.58282446
H       -1.83276071      -1.52055657      -1.24453810
H       -1.22662814      -1.78080219       0.45351024
15
Frame=8 idx=009053 GeodesicLength=0.5157546863784631 rxn_smarts="[N:1]([C@@:2]([C:3]#[N:4])([C:5]1([H:11])[C:6]([H:12])([H:13])[C:7]1([H:14])[H:15])[H:10])([H:8])[H:9]>>[N:1]([C:3]1=[N:4][C@:2]1([C:5]1([H:11])[C:6]([H:12])([H:13])[C:7]1([H:14])[H:15])[H:10])([H:8])[H:9]"
N        2.36628988      -0.35774555       0.09071938
C        0.54001826       0.30554153       0.46251594
C        1.69067531       1.10496778       0.12394651
N        1.60518359       2.24624773       0.48152976
C       -0.56828081       0.13374817      -0.47771660
C       -1.98067763       0.26648945       0.05748710
C       -1.46659428      -1.07196534      -0.32622802
H        3.17753804      -0.40443304       0.69105427
H        2.55032193      -0.67766464      -0.84776969
H        0.33400147       0.00090600       1.48812430
H       -0.40255655       0.50061632      -1.48356370
H       -2.09672311       0.49285317       1.10925374
H       -2.69405518       0.75891287      -0.58895428
H       -1.82974231      -1.52255394      -1.23992700
H       -1.22539862      -1.77592049       0.45952829
15
Frame=9 idx=009053 GeodesicLength=0.5818582407009595 rxn_smarts="[N:1]([C@@:2]([C:3]#[N:4])([C:5]1([H:11])[C:6]([H:12])([H:13])[C:7]1([H:14])[H:15])[H:10])([H:8])[H:9]>>[N:1]([C:3]1=[N:4][C@:2]1([C:5]1([H:11])[C:6]([H:12])([H:13])[C:7]1([H:14])[H:15])[H:10])([H:8])[H:9]"
N        2.36149252      -0.36711191       0.08898261
C        0.55067911       0.30369779       0.46415936
C        1.69116369       1.11375122       0.12113587
N        1.55960741       2.23910835       0.51109696
C       -0.56162269       0.13253025      -0.47808354
C       -1.97243662       0.27317335       0.05275729
C       -1.46081069      -1.07020666      -0.32428156
H        3.18589852      -0.39687775       0.67161483
H        2.52791046      -0.69381269      -0.85001423
H        0.33859272       0.00260078       1.48954845
H       -0.39272097       0.49359670      -1.48570502
H       -2.09060406       0.50294141       1.10365970
H       -2.68623288       0.76223755      -0.59580548
H       -1.82636895      -1.52476944      -1.23508170
H       -1.22454758      -1.77085895       0.46601646
15
Frame=10 idx=009053 GeodesicLength=0.6483459175907211 rxn_smarts="[N:1]([C@@:2]([C:3]#[N:4])([C:5]1([H:11])[C:6]([H:12])([H:13])[C:7]1([H:14])[H:15])[H:10])([H:8])[H:9]>>[N:1]([C:3]1=[N:4][C@:2]1([C:5]1([H:11])[C:6]([H:12])([H:13])[C:7]1([H:14])[H:15])[H:10])([H:8])[H:9]"
N        2.35673458      -0.37616741       0.08736154
C        0.56125042       0.30166248       0.46643003
C        1.69130396       1.12295870       0.12009246
N        1.51442688       2.23102605       0.53831839
C       -0.55480990       0.13114048      -0.47817191
C       -1.96411071       0.27988026       0.04793825
C       -1.45509831      -1.06846452      -0.32233914
H        3.19405372      -0.38928263       0.65129640
H        2.50529566      -0.70883546      -0.85210521
H        0.34298805       0.00345988       1.49135347
H       -0.38235003       0.48649372      -1.48742582
H       -2.08458215       0.51304713       1.09794449
H       -2.67807059       0.76577105      -0.60286615
H       -1.82297022      -1.52685148      -1.23032614
H       -1.22406137      -1.76583824       0.47249933
15
Frame=11 idx=009053 GeodesicLength=0.7150783913613881 rxn_smarts="[N:1]([C@@:2]([C:3]#[N:4])([C:5]1([H:11])[C:6]([H:12])([H:13])[C:7]1([H:14])[H:15])[H:10])([H:8])[H:9]>>[N:1]([C:3]1=[N:4][C@:2]1([C:5]1([H:11])[C:6]([H:12])([H:13])[C:7]1([H:14])[H:15])[H:10])([H:8])[H:9]"
N        2.35180785      -0.38497576       0.08574052
C        0.57166512       0.29976050       0.46929491
C        1.69111288       1.13261803       0.12046248
N        1.47029384       2.22205643       0.56402561
C       -0.54789614       0.12974862      -0.47799950
C       -1.95578672       0.28651671       0.04296807
C       -1.44926451      -1.06675398      -0.32034946
H        3.20176143      -0.38185268       0.62996599
H        2.48212394      -0.72294617      -0.85411210
H        0.34714850       0.00387283       1.49352727
H       -0.37154633       0.47936776      -1.48878606
H       -2.07879903       0.52314950       1.09202041
H       -2.66975497       0.76918564      -0.61026442
H       -1.81921623      -1.52898245      -1.22558055
H       -1.22364963      -1.76076496       0.47908685
15
Frame=12 idx=009053 GeodesicLength=0.782098270687873 rxn_smarts="[N:1]([C@@:2]([C:3]#[N:4])([C:5]1([H:11])[C:6]([H:12])([H:13])[C:7]1([H:14])[H:15])[H:10])([H:8])[H:9]>>[N:1]([C:3]1=[N:4][C@:2]1([C:5]1([H:11])[C:6]([H:12])([H:13])[C:7]1([H:14])[H:15])[H:10])([H:8])[H:9]"
N        2.34679117      -0.39359330       0.08417626
C        0.58196280       0.29790212       0.47268615
C        1.69060496       1.14264920       0.12216535
N        1.42697174       2.21233888       0.58811932
C       -0.54088385       0.12831344      -0.47759446
C       -1.94743110       0.29309571       0.03789700
C       -1.44336923      -1.06507108      -0.31834647
H        3.20903362      -0.37446812       0.60773252
H        2.45858134      -0.73624844      -0.85594304
H        0.35110992       0.00382074       1.49602411
H       -0.36035092       0.47224026      -1.48979532
H       -2.07316598       0.53321187       1.08595223
H       -2.66125117       0.77257610      -0.61788642
H       -1.81524596      -1.53108880      -1.22088365
H       -1.22335733      -1.75567859       0.48569643
15
Frame=13 idx=009053 GeodesicLength=0.8493761673892806 rxn_smarts="[N:1]([C@@:2]([C:3]#[N:4])([C:5]1([H:11])[C:6]([H:12])([H:13])[C:7]1([H:14])[H:15])[H:10])([H:8])[H:9]>>[N:1]([C:3]1=[N:4][C@:2]1([C:5]1([H:11])[C:6]([H:12])([H:13])[C:7]1([H:14])[H:15])[H:10])([H:8])[H:9]"
N        2.34165430      -0.40203280       0.08262017
C        0.59214031       0.29614201       0.47656867
C        1.68976749       1.15304595       0.12505087
N        1.38458746       2.20191752       0.61101379
C       -0.53378164       0.12685217      -0.47697809
C       -1.93905448       0.29961206       0.03269189
C       -1.43738533      -1.06342248      -0.31629776
H        3.21581155      -0.36711338       0.58452138
H        2.43459583      -0.74881733      -0.85761810
H        0.35488180       0.00337475       1.49881672
H       -0.34877970       0.46506368      -1.49049561
H       -2.06769556       0.54328329       1.07969224
H       -2.65258241       0.77587474      -0.62579615
H       -1.81100817      -1.53323892      -1.21618249
H       -1.22315145      -1.75054125       0.49239249
15
Frame=14 idx=009053 GeodesicLength=0.9169333102642093 rxn_smarts="[N:1]([C@@:2]([C:3]#[N:4])([C:5]1([H:11])[C:6]([H:12])([H:13])[C:7]1([H:14])[H:15])[H:10])([H:8])[H:9]>>[N:1]([C:3]1=[N:4][C@:2]1([C:5]1([H:11])[C:6]([H:12])([H:13])[C:7]1([H:14])[H:15])[H:10])([H:8])[H:9]"
N        2.33641327      -0.41036377       0.08113628
C        0.60221803       0.29447442       0.48090170
C        1.68863569       1.16374652       0.12904082
N        1.34303364       2.19090786       0.63259372
C       -0.52659610       0.12537979      -0.47616327
C       -1.93064271       0.30604787       0.02740212
C       -1.43130972      -1.06180236      -0.31424821
H        3.22206023      -0.35973530       0.56039552
H        2.41021848      -0.76081549      -0.85902488
H        0.35847704       0.00260588       1.50188272
H       -0.33688273       0.45793023      -1.49087759
H       -2.06234595       0.55327653       1.07330584
H       -2.64375644       0.77910579      -0.63388551
H       -1.80653561      -1.53537031      -1.21153709
H       -1.22298712      -1.74538766       0.49907783
15
Frame=15 idx=009053 GeodesicLength=0.9847340822631286 rxn_smarts="[N:1]([C@@:2]([C:3]#[N:4])([C:5]1([H:11])[C:6]([H:12])([H:13])[C:7]1([H:14])[H:15])[H:10])([H:8])[H:9]>>[N:1]([C:3]1=[N:4][C@:2]1([C:5]1([H:11])[C:6]([H:12])([H:13])[C:7]1([H:14])[H:15])[H:10])([H:8])[H:9]"
N        2.33101393      -0.41865823       0.07975811
C        0.61219327       0.29299990       0.48563679
C        1.68725010       1.17472612       0.13395617
N        1.30245263       2.17940341       0.65293178
C       -0.51935622       0.12397935      -0.47516663
C       -1.92222139       0.31235545       0.02206229
C       -1.42507278      -1.06021000      -0.31223218
H        3.22764825      -0.35241107       0.53543670
H        2.38541603      -0.77241276      -0.86008127
H        0.36189372       0.00169618       1.50519852
H       -0.32475394       0.45097551      -1.49095338
H       -2.05713717       0.56308806       1.06684227
H       -2.63486170       0.78218313      -0.64208151
H       -1.80174619      -1.53748060      -1.20699215
H       -1.22271854      -1.74023444       0.50568449
15
Frame=16 idx=009053 GeodesicLength=1.0527448598183506 rxn_smarts="[N:1]([C@@:2]([C:3]#[N:4])([C:5]1([H:11])[C:6]([H:12])([H:13])[C:7]1([H:14])[H:15])[H:10])([H:8])[H:9]>>[N:1]([C:3]1=[N:4][C@:2]1([C:5]1([H:11])[C:6]([H:12])([H:13])[C:7]1([H:14])[H:15])[H:10])([H:8])[H:9]"
N        2.32540611      -0.42695809       0.07848742
C        0.62206398       0.29179869       0.49073355
C        1.68563562       1.18597461       0.13964365
N        1.26298816       2.16746376       0.67219003
C       -0.51208086       0.12271318      -0.47400153
C       -1.91381268       0.31850168       0.01668191
C       -1.41861821      -1.05864364      -0.31025879
H        3.23245677      -0.34521461       0.50968818
H        2.36014276      -0.78370474      -0.86074942
H        0.36513179       0.00077606       1.50873489
H       -0.31245140       0.44427146      -1.49073859
H       -2.05209322       0.57266655       1.06031166
H       -2.62596312       0.78502113      -0.65036125
H       -1.79656124      -1.53958998      -1.20255348
H       -1.22224445      -1.73507606       0.51219175
