10
Frame=0 idx=004472 GeodesicLength=0.0 rxn_smarts="[O:1]([C:2]([C:3](=[O:4])[C:5](=[O:6])[H:10])([H:8])[H:9])[H:7]>>[C-:5]#[O+:6].[O:1]([C:2]([C:3][O:4][H:10])([H:8])[H:9])[H:7]"
O        2.08023520       0.77747146      -0.04498847
C        1.21908362      -0.28370431       0.26686152
C       -0.22384577      -0.08099353      -0.00143370
O       -0.56174337       1.02350167      -0.47161945
C       -2.25358682      -0.51339899      -0.09409676
O       -2.87624095      -1.42860700       0.17921692
H        1.54571686       1.50613073      -0.37305479
H        1.51012621      -1.18934105      -0.28201915
H        1.29381041      -0.54591565       1.33163281
H       -1.73355539       0.73485667      -0.51049892
10
Frame=1 idx=004472 GeodesicLength=0.03776018201062132 rxn_smarts="[O:1]([C:2]([C:3](=[O:4])[C:5](=[O:6])[H:10])([H:8])[H:9])[H:7]>>[C-:5]#[O+:6].[O:1]([C:2]([C:3][O:4][H:10])([H:8])[H:9])[H:7]"
O        2.08089443       0.77296076      -0.04287392
C        1.21574488      -0.28527357       0.26669469
C       -0.22452374      -0.07394883      -0.00878888
O       -0.55887479       1.03489235      -0.47238985
C       -2.25012597      -0.51434899      -0.09476405
O       -2.85734616      -1.43850362       0.18713387
H        1.54925954       1.50337434      -0.37210692
H        1.50325051      -1.19270693      -0.28110849
H        1.28426584      -0.54796170       1.33175076
H       -1.74254454       0.74151617      -0.51354720
10
Frame=2 idx=004472 GeodesicLength=0.07560692967047913 rxn_smarts="[O:1]([C:2]([C:3](=[O:4])[C:5](=[O:6])[H:10])([H:8])[H:9])[H:7]>>[C-:5]#[O+:6].[O:1]([C:2]([C:3][O:4][H:10])([H:8])[H:9])[H:7]"
O        2.08168480       0.76790772      -0.04197021
C        1.21229679      -0.28671566       0.26683718
C       -0.22528447      -0.06652267      -0.01534933
O       -0.55590461       1.04627408      -0.47328870
C       -2.24732120      -0.51306786      -0.08939402
O       -2.83739824      -1.45075826       0.18853851
H        1.55307222       1.49989638      -0.37295204
H        1.49561932      -1.19660791      -0.27909100
H        1.27502000      -0.54876274       1.33239401
H       -1.75178461       0.74835691      -0.51572441
10
Frame=3 idx=004472 GeodesicLength=0.11344566293251009 rxn_smarts="[O:1]([C:2]([C:3](=[O:4])[C:5](=[O:6])[H:10])([H:8])[H:9])[H:7]>>[C-:5]#[O+:6].[O:1]([C:2]([C:3][O:4][H:10])([H:8])[H:9])[H:7]"
O        2.08213497       0.76379056      -0.03854220
C        1.20885172      -0.28840056       0.26633906
C       -0.22575249      -0.05975904      -0.02390368
O       -0.55286020       1.05766122      -0.47423464
C       -2.24334926      -0.51510526      -0.09226300
O       -2.81845671      -1.45873181       0.20033429
H        1.55648838       1.49759321      -0.37061257
H        1.48925410      -1.19947135      -0.27915908
H        1.26461139      -0.55182659       1.33192779
H       -1.76092190       0.75424962      -0.51988596
10
Frame=4 idx=004472 GeodesicLength=0.15138585171793278 rxn_smarts="[O:1]([C:2]([C:3](=[O:4])[C:5](=[O:6])[H:10])([H:8])[H:9])[H:7]>>[C-:5]#[O+:6].[O:1]([C:2]([C:3][O:4][H:10])([H:8])[H:9])[H:7]"
O        2.08289223       0.75856634      -0.03775865
C        1.20524947      -0.28979757       0.26655729
C       -0.22650868      -0.05203941      -0.03012706
O       -0.54979585       1.06935336      -0.47451002
C       -2.23988099      -0.51536668      -0.09033569
O       -2.79821961      -1.46996189       0.20339519
H        1.56039340       1.49395037      -0.37167306
H        1.48111860      -1.20336513      -0.27709982
H        1.25533618      -0.55248070       1.33259650
H       -1.77058474       0.76114130      -0.52104467
10
Frame=5 idx=004472 GeodesicLength=0.18931554546654422 rxn_smarts="[O:1]([C:2]([C:3](=[O:4])[C:5](=[O:6])[H:10])([H:8])[H:9])[H:7]>>[C-:5]#[O+:6].[O:1]([C:2]([C:3][O:4][H:10])([H:8])[H:9])[H:7]"
O        2.08322917       0.75450412      -0.03390099
C        1.20168458      -0.29152498       0.26591315
C       -0.22689072      -0.04515959      -0.03881613
O       -0.54667819       1.08099243      -0.47484583
C       -2.23514765      -0.51924823      -0.09732209
O       -2.77920107      -1.47604158       0.21866270
H        1.56376633       1.49182909      -0.36865121
H        1.47461569      -1.20599211      -0.27774213
H        1.24467227      -0.55601717       1.33180042
H       -1.78005041       0.76665802      -0.52509789
10
Frame=6 idx=004472 GeodesicLength=0.2274131011004459 rxn_smarts="[O:1]([C:2]([C:3](=[O:4])[C:5](=[O:6])[H:10])([H:8])[H:9])[H:7]>>[C-:5]#[O+:6].[O:1]([C:2]([C:3][O:4][H:10])([H:8])[H:9])[H:7]"
O        2.08365788       0.75001660      -0.03096845
C        1.19802388      -0.29314906       0.26551188
C       -0.22736897      -0.03784105      -0.04655703
O       -0.54353399       1.09286253      -0.47463072
C       -2.23042820      -0.52283692      -0.10339874
O       -2.75965611      -1.48290717       0.23148665
H        1.56731455       1.48925857      -0.36669717
H        1.46734332      -1.20894354      -0.27773917
H        1.23442054      -0.55876063       1.33135232
H       -1.78977290       0.77230067      -0.52835957
10
Frame=7 idx=004472 GeodesicLength=0.2654254358777594 rxn_smarts="[O:1]([C:2]([C:3](=[O:4])[C:5](=[O:6])[H:10])([H:8])[H:9])[H:7]>>[C-:5]#[O+:6].[O:1]([C:2]([C:3][O:4][H:10])([H:8])[H:9])[H:7]"
O        2.08432054       0.74466502      -0.03008759
C        1.19422079      -0.29452992       0.26570945
C       -0.22805992      -0.02982902      -0.05259904
O       -0.54032114       1.10492421      -0.47404968
C       -2.22635575      -0.52422631      -0.10337203
O       -2.73886353      -1.49274862       0.23599354
H        1.57126395       1.48558218      -0.36753755
H        1.45869468      -1.21270526      -0.27592891
H        1.22495918      -0.55950027       1.33187383
H       -1.79985880       0.77836800      -0.53000203
10
Frame=8 idx=004472 GeodesicLength=0.30364789997289976 rxn_smarts="[O:1]([C:2]([C:3](=[O:4])[C:5](=[O:6])[H:10])([H:8])[H:9])[H:7]>>[C-:5]#[O+:6].[O:1]([C:2]([C:3][O:4][H:10])([H:8])[H:9])[H:7]"
O        2.08464169       0.74021340      -0.02672889
C        1.19042776      -0.29619677       0.26515327
C       -0.22841646      -0.02247993      -0.06076066
O       -0.53703088       1.11688771      -0.47366632
C       -2.22143912      -0.52781053      -0.10870350
O       -2.71883389      -1.49887817       0.24922297
H        1.57481530       1.48308980      -0.36514707
H        1.45138672      -1.21548265      -0.27633465
H        1.21425417      -0.56256118       1.33113410
H       -1.80980528       0.78321832      -0.53416926
10
Frame=9 idx=004472 GeodesicLength=0.3418429893547304 rxn_smarts="[O:1]([C:2]([C:3](=[O:4])[C:5](=[O:6])[H:10])([H:8])[H:9])[H:7]>>[C-:5]#[O+:6].[O:1]([C:2]([C:3][O:4][H:10])([H:8])[H:9])[H:7]"
O        2.08515613       0.73499920      -0.02503658
C        1.18645804      -0.29764824       0.26512940
C       -0.22894579      -0.01453581      -0.06766294
O       -0.53361036       1.12901946      -0.47318764
C       -2.21706842      -0.52945836      -0.10883105
O       -2.69754665      -1.50773393       0.25535581
H        1.57876203       1.47960296      -0.36518552
H        1.44288441      -1.21896599      -0.27509889
H        1.20402529      -0.56383991       1.33126127
H       -1.82011468       0.78856061      -0.53674386
10
Frame=10 idx=004472 GeodesicLength=0.3801845261957024 rxn_smarts="[O:1]([C:2]([C:3](=[O:4])[C:5](=[O:6])[H:10])([H:8])[H:9])[H:7]>>[C-:5]#[O+:6].[O:1]([C:2]([C:3][O:4][H:10])([H:8])[H:9])[H:7]"
O        2.08567686       0.72963489      -0.02352765
C        1.18240393      -0.29907465       0.26514671
C       -0.22947692      -0.00640225      -0.07434942
O       -0.53011538       1.14131908      -0.47240325
C       -2.21238484      -0.53175940      -0.11047525
O       -2.67605331      -1.51620836       0.26203449
H        1.58277836       1.47601028      -0.36536026
H        1.43404970      -1.22248638      -0.27378512
H        1.19380533      -0.56495818       1.33142794
H       -1.83068373       0.79392497      -0.53870818
10
Frame=11 idx=004472 GeodesicLength=0.4186081041059757 rxn_smarts="[O:1]([C:2]([C:3](=[O:4])[C:5](=[O:6])[H:10])([H:8])[H:9])[H:7]>>[C-:5]#[O+:6].[O:1]([C:2]([C:3][O:4][H:10])([H:8])[H:9])[H:7]"
O        2.08597767       0.72474507      -0.02058939
C        1.17830854      -0.30067505       0.26468629
C       -0.22978648       0.00138327      -0.08233946
O       -0.52653670       1.15354422      -0.47176764
C       -2.20733510      -0.53475084      -0.11334622
O       -2.65468541      -1.52272041       0.27262772
H        1.58658552       1.47305837      -0.36369574
H        1.42592904      -1.22545572      -0.27378756
H        1.18274390      -0.56739715       1.33079439
H       -1.84120099       0.79826822      -0.54258241
10
Frame=12 idx=004472 GeodesicLength=0.4571727354800109 rxn_smarts="[O:1]([C:2]([C:3](=[O:4])[C:5](=[O:6])[H:10])([H:8])[H:9])[H:7]>>[C-:5]#[O+:6].[O:1]([C:2]([C:3][O:4][H:10])([H:8])[H:9])[H:7]"
O        2.08625500       0.71972916      -0.01762002
C        1.17407391      -0.30226476       0.26423086
C       -0.23005671       0.00928025      -0.09054714
O       -0.52281081       1.16582933      -0.47131278
C       -2.20228167      -0.53736554      -0.11503975
O       -2.63271456      -1.52950669       0.28235329
H        1.59050604       1.46996701      -0.36218032
H        1.41761595      -1.22847844      -0.27366823
H        1.17133102      -0.56967440       1.33015979
H       -1.85191816       0.80248406      -0.54637569
10
Frame=13 idx=004472 GeodesicLength=0.4958625332351844 rxn_smarts="[O:1]([C:2]([C:3](=[O:4])[C:5](=[O:6])[H:10])([H:8])[H:9])[H:7]>>[C-:5]#[O+:6].[O:1]([C:2]([C:3][O:4][H:10])([H:8])[H:9])[H:7]"
O        2.08645090       0.71476334      -0.01425981
C        1.16974903      -0.30390232       0.26362511
C       -0.23025228       0.01721235      -0.09906611
O       -0.51900385       1.17820665      -0.47070937
C       -2.19702748      -0.54018841      -0.11688862
O       -2.61048885      -1.53561278       0.29310152
H        1.59441280       1.46700901      -0.36013744
H        1.40930928      -1.23134249      -0.27397849
H        1.15958507      -0.57231667       1.32924465
H       -1.86273462       0.80617133      -0.55093145
10
Frame=14 idx=004472 GeodesicLength=0.5346565315997425 rxn_smarts="[O:1]([C:2]([C:3](=[O:4])[C:5](=[O:6])[H:10])([H:8])[H:9])[H:7]>>[C-:5]#[O+:6].[O:1]([C:2]([C:3][O:4][H:10])([H:8])[H:9])[H:7]"
O        2.08666050       0.70957310      -0.01124499
C        1.16531964      -0.30549270       0.26310820
C       -0.23048426       0.02542799      -0.10712766
O       -0.51512313       1.19078904      -0.46966174
C       -2.19166313      -0.54298906      -0.11843980
O       -2.58785630      -1.54181512       0.30306163
H        1.59841407       1.46385240      -0.35844125
H        1.40050973      -1.23428531      -0.27411862
H        1.14795308      -0.57467306       1.32842933
H       -1.87373019       0.80961270      -0.55556511
10
Frame=15 idx=004472 GeodesicLength=0.5735490940560726 rxn_smarts="[O:1]([C:2]([C:3](=[O:4])[C:5](=[O:6])[H:10])([H:8])[H:9])[H:7]>>[C-:5]#[O+:6].[O:1]([C:2]([C:3][O:4][H:10])([H:8])[H:9])[H:7]"
O        2.08686913       0.70421389      -0.00848983
C        1.16081146      -0.30705576       0.26262814
C       -0.23074920       0.03390495      -0.11470627
O       -0.51118828       1.20358281      -0.46803842
C       -2.18615302      -0.54588415      -0.11996395
O       -2.56496267      -1.54784208       0.31276619
H        1.60245793       1.46059949      -0.35685128
H        1.39127171      -1.23723146      -0.27428490
H        1.13649267      -0.57692355       1.32762797
H       -1.88484973       0.81263585      -0.56068765
10
Frame=16 idx=004472 GeodesicLength=0.6125250564202056 rxn_smarts="[O:1]([C:2]([C:3](=[O:4])[C:5](=[O:6])[H:10])([H:8])[H:9])[H:7]>>[C-:5]#[O+:6].[O:1]([C:2]([C:3][O:4][H:10])([H:8])[H:9])[H:7]"
O        2.08709241       0.69865682      -0.00613241
C        1.15624441      -0.30857937       0.26221344
C       -0.23107459       0.04268504      -0.12157722
O       -0.50721608       1.21661348      -0.46566917
C       -2.18049679      -0.54890309      -0.12155798
O       -2.54189236      -1.55369608       0.32212123
H        1.60653138       1.45723633      -0.35543147
H        1.38150938      -1.24018607      -0.27445272
H        1.12537435      -0.57902166       1.32688679
H       -1.89607211       0.81519459      -0.56640049
