17
Frame=0 idx=011921 GeodesicLength=0.0 rxn_smarts="[C:1]([C@@:2]1([H:11])[C@@:3]2([H:12])[C:4]([H:13])([H:14])[C:5]([H:15])=[C:6]([H:16])[C@@:7]12[H:17])([H:8])([H:9])[H:10]>>[C:1]([C@@:2]1([H:11])[C@@:3]2([H:12])[C:4]([H:13])([H:14])[C:5](=[C:6]([H:15])[H:16])[C@@:7]12[H:17])([H:8])([H:9])[H:10]"
C       -1.86035717       0.62210243      -0.31041633
C       -1.05030342      -0.64622886      -0.25932458
C        0.28243260      -0.85312455      -0.91131752
C        1.14748516       0.40300748      -0.85521457
C        1.01980188       0.41546111       0.68772575
C        2.22181288       0.22567798       1.48806430
C        0.15412858      -0.87227730       0.60371711
H       -2.44161818       0.66637823      -1.23364479
H       -2.55775809       0.67086506       0.52855244
H       -1.23843472       1.51752518      -0.27706764
H       -1.65985137      -1.54466876      -0.30662081
H        0.46485482      -1.69430168      -1.56653630
H        0.78022187       1.27374061      -1.40249118
H        2.18297280       0.20924090      -1.13366305
H        0.47534334       1.26263149       1.14325545
H        1.84917583       0.05264512       2.51871257
H        0.23009317      -1.70867437       1.28626919
17
Frame=1 idx=011921 GeodesicLength=0.13179923855933298 rxn_smarts="[C:1]([C@@:2]1([H:11])[C@@:3]2([H:12])[C:4]([H:13])([H:14])[C:5]([H:15])=[C:6]([H:16])[C@@:7]12[H:17])([H:8])([H:9])[H:10]>>[C:1]([C@@:2]1([H:11])[C@@:3]2([H:12])[C:4]([H:13])([H:14])[C:5](=[C:6]([H:15])[H:16])[C@@:7]12[H:17])([H:8])([H:9])[H:10]"
C       -1.85927803       0.61858242      -0.30468316
C       -1.04623778      -0.64787697      -0.25284914
C        0.28254566      -0.85335275      -0.91277820
C        1.14683181       0.40374783      -0.87425556
C        1.03460349       0.43403591       0.66337311
C        2.17313054       0.21478685       1.51745884
C        0.16480790      -0.87029769       0.60377016
H       -2.43903008       0.66315662      -1.22883912
H       -2.55783829       0.66413125       0.53350793
H       -1.23832688       1.51446616      -0.26687377
H       -1.65505315      -1.54699230      -0.29779128
H        0.46221705      -1.69678016      -1.56582276
H        0.77154769       1.27030182      -1.42275526
H        2.18127793       0.21012284      -1.15713976
H        0.52789183       1.30816188       1.14734034
H        1.81032222       0.03272724       2.54656537
H        0.24058809      -1.71892095       1.27177225
17
Frame=2 idx=011921 GeodesicLength=0.26366422305750004 rxn_smarts="[C:1]([C@@:2]1([H:11])[C@@:3]2([H:12])[C:4]([H:13])([H:14])[C:5]([H:15])=[C:6]([H:16])[C@@:7]12[H:17])([H:8])([H:9])[H:10]>>[C:1]([C@@:2]1([H:11])[C@@:3]2([H:12])[C:4]([H:13])([H:14])[C:5](=[C:6]([H:15])[H:16])[C@@:7]12[H:17])([H:8])([H:9])[H:10]"
C       -1.85783383       0.61500392      -0.29832386
C       -1.04204747      -0.64975461      -0.24649453
C        0.28283942      -0.85367966      -0.91415109
C        1.14610974       0.40426051      -0.89258953
C        1.05020020       0.45137174       0.63983934
C        2.12145778       0.20607003       1.54633384
C        0.17537387      -0.86920907       0.60375448
H       -2.43577943       0.66072860      -1.22354729
H       -2.55778924       0.65683117       0.53890214
H       -1.23765146       1.51114511      -0.25514303
H       -1.65027409      -1.54941034      -0.28967327
H        0.45974175      -1.69903129      -1.56542614
H        0.76274038       1.26682518      -1.44183986
H        2.17914308       0.21088317      -1.18124022
H        0.58345548       1.35360412       1.14849629
H        1.76987758       0.01431187       2.57417985
H        0.25043624      -1.72995045       1.25692287
17
Frame=3 idx=011921 GeodesicLength=0.3956044762887746 rxn_smarts="[C:1]([C@@:2]1([H:11])[C@@:3]2([H:12])[C:4]([H:13])([H:14])[C:5]([H:15])=[C:6]([H:16])[C@@:7]12[H:17])([H:8])([H:9])[H:10]>>[C:1]([C@@:2]1([H:11])[C@@:3]2([H:12])[C:4]([H:13])([H:14])[C:5](=[C:6]([H:15])[H:16])[C@@:7]12[H:17])([H:8])([H:9])[H:10]"
C       -1.85600905       0.61136508      -0.29131742
C       -1.03776361      -0.65190228      -0.24029520
C        0.28329829      -0.85411286      -0.91546392
C        1.14533095       0.40454715      -0.91015536
C        1.06663695       0.46734074       0.61717540
C        2.06658416       0.19985323       1.57465001
C        0.18577566      -0.86912510       0.60364514
H       -2.43184747       0.65915541      -1.21774538
H       -2.55760123       0.64895585       0.54474410
H       -1.23637042       1.50752873      -0.24182621
H       -1.64556247      -1.55195485      -0.28234032
H        0.45740313      -1.70103629      -1.56542153
H        0.75384267       1.26337187      -1.45961849
H        2.17655884       0.21150781      -1.20588941
H        0.64205701       1.39887413       1.14661920
H        1.72788942      -0.00259959       2.60145019
H        0.25977717      -1.74176903       1.24178918
17
Frame=4 idx=011921 GeodesicLength=0.5276601833327758 rxn_smarts="[C:1]([C@@:2]1([H:11])[C@@:3]2([H:12])[C:4]([H:13])([H:14])[C:5]([H:15])=[C:6]([H:16])[C@@:7]12[H:17])([H:8])([H:9])[H:10]>>[C:1]([C@@:2]1([H:11])[C@@:3]2([H:12])[C:4]([H:13])([H:14])[C:5](=[C:6]([H:15])[H:16])[C@@:7]12[H:17])([H:8])([H:9])[H:10]"
C       -1.85378993       0.60768109      -0.28364221
C       -1.03341402      -0.65437850      -0.23429107
C        0.28390550      -0.85468411      -0.91677082
C        1.14450311       0.40461352      -0.92693028
C        1.08394855       0.48184286       0.59542525
C        2.00818236       0.19652498       1.60242403
C        0.19598318      -0.87017019       0.60342505
H       -2.42722917       0.65851716      -1.21142674
H       -2.55726051       0.64051717       0.55106279
H       -1.23445552       1.50362011      -0.22687656
H       -1.64095669      -1.55469856      -0.27585798
H        0.45517642      -1.70282801      -1.56591652
H        0.74488083       1.26002448      -1.47602355
H        2.17351466       0.21198144      -1.23103359
H        0.70383133       1.44386936       1.14172647
H        1.68438092      -0.01801588       2.62824517
H        0.26879898      -1.75441693       1.22646056
17
Frame=5 idx=011921 GeodesicLength=0.6597909474196886 rxn_smarts="[C:1]([C@@:2]1([H:11])[C@@:3]2([H:12])[C:4]([H:13])([H:14])[C:5]([H:15])=[C:6]([H:16])[C@@:7]12[H:17])([H:8])([H:9])[H:10]>>[C:1]([C@@:2]1([H:11])[C@@:3]2([H:12])[C:4]([H:13])([H:14])[C:5](=[C:6]([H:15])[H:16])[C@@:7]12[H:17])([H:8])([H:9])[H:10]"
C       -1.85113460       0.60387510      -0.27529118
C       -1.02903760      -0.65717046      -0.22851412
C        0.28464529      -0.85532079      -0.91804436
C        1.14364243       0.40447335      -0.94284482
C        1.10215184       0.49479881       0.57451380
C        1.94571998       0.19654285       1.62933434
C        0.20591653      -0.87232431       0.60299929
H       -2.42186231       0.65874930      -1.20447721
H       -2.55674580       0.63144212       0.55777789
H       -1.23184136       1.49924181      -0.21031473
H       -1.63651682      -1.55754297      -0.27023120
H        0.45306382      -1.70426820      -1.56681336
H        0.73592790       1.25675502      -1.49088754
H        2.17000213       0.21234641      -1.25654511
H        0.76896984       1.48820481       1.13386680
H        1.63952363      -0.03212692       2.65449190
H        0.27757508      -1.76767592       1.21097962
17
Frame=6 idx=011921 GeodesicLength=0.7920838243527908 rxn_smarts="[C:1]([C@@:2]1([H:11])[C@@:3]2([H:12])[C:4]([H:13])([H:14])[C:5]([H:15])=[C:6]([H:16])[C@@:7]12[H:17])([H:8])([H:9])[H:10]>>[C:1]([C@@:2]1([H:11])[C@@:3]2([H:12])[C:4]([H:13])([H:14])[C:5](=[C:6]([H:15])[H:16])[C@@:7]12[H:17])([H:8])([H:9])[H:10]"
C       -1.84804732       0.60000163      -0.26626228
C       -1.02465583      -0.66038200      -0.22302146
C        0.28551062      -0.85610987      -0.91937057
C        1.14275475       0.40414359      -0.95790863
C        1.12128432       0.50613975       0.55454330
C        1.87852769       0.20051800       1.65554352
C        0.21557687      -0.87573799       0.60240123
H       -2.41583398       0.65994581      -1.19694054
H       -2.55600191       0.62182627       0.56498352
H       -1.22854213       1.49450016      -0.19218759
H       -1.63225392      -1.56067243      -0.26553323
H        0.45105082      -1.70549173      -1.56829728
H        0.72698860       1.25371858      -1.50421845
H        2.16601333       0.21258610      -1.28238398
H        0.83779447       1.53171815       1.12328173
H        1.59346906      -0.04504596       2.67983029
H        0.28636454      -1.78165805       1.19554041
17
Frame=7 idx=011921 GeodesicLength=0.9245950389562363 rxn_smarts="[C:1]([C@@:2]1([H:11])[C@@:3]2([H:12])[C:4]([H:13])([H:14])[C:5]([H:15])=[C:6]([H:16])[C@@:7]12[H:17])([H:8])([H:9])[H:10]>>[C:1]([C@@:2]1([H:11])[C@@:3]2([H:12])[C:4]([H:13])([H:14])[C:5](=[C:6]([H:15])[H:16])[C@@:7]12[H:17])([H:8])([H:9])[H:10]"
C       -1.84455263       0.59602374      -0.25663239
C       -1.02033054      -0.66402575      -0.21787262
C        0.28651045      -0.85702156      -0.92071381
C        1.14185395       0.40366857      -0.97205022
C        1.14135805       0.51582500       0.53552566
C        1.80557138       0.20918502       1.68075315
C        0.22485490      -0.88036655       0.60161923
H       -2.40919757       0.66201551      -1.18881604
H       -2.55505274       0.61169741       0.57257731
H       -1.22459680       1.48932750      -0.17270662
H       -1.62821663      -1.56407534      -0.26177338
H        0.44921736      -1.70646588      -1.57026289
H        0.71812167       1.25096583      -1.51589603
H        2.16155357       0.21276888      -1.30841433
H        0.91061983       1.57391583       1.11029134
H        1.54704951      -0.05727884       2.70402002
H        0.29523622      -1.79615936       1.18035163
17
Frame=8 idx=011921 GeodesicLength=1.057496025523409 rxn_smarts="[C:1]([C@@:2]1([H:11])[C@@:3]2([H:12])[C:4]([H:13])([H:14])[C:5]([H:15])=[C:6]([H:16])[C@@:7]12[H:17])([H:8])([H:9])[H:10]>>[C:1]([C@@:2]1([H:11])[C@@:3]2([H:12])[C:4]([H:13])([H:14])[C:5](=[C:6]([H:15])[H:16])[C@@:7]12[H:17])([H:8])([H:9])[H:10]"
C       -1.84074037       0.59195300      -0.24658363
C       -1.01616694      -0.66815661      -0.21317438
C        0.28767412      -0.85809024      -0.92203163
C        1.14095064       0.40312530      -0.98516158
C        1.16232807       0.52383229       0.51762855
C        1.72532919       0.22349731       1.70472546
C        0.23352658      -0.88616926       0.60075487
H       -2.40207261       0.66484307      -1.18027229
H       -2.55399049       0.60118880       0.58042347
H       -1.22015016       1.48379813      -0.15226645
H       -1.62445970      -1.56786539      -0.25902322
H        0.44774247      -1.70729907      -1.57262368
H        0.70941199       1.24865223      -1.52581317
H        2.15663915       0.21298611      -1.33446877
H        0.98774500       1.61428914       1.09550860
H        1.50211796      -0.06957440       2.72655191
H        0.30411510      -1.81101040       1.16582595
17
Frame=9 idx=011921 GeodesicLength=1.1906811271287498 rxn_smarts="[C:1]([C@@:2]1([H:11])[C@@:3]2([H:12])[C:4]([H:13])([H:14])[C:5]([H:15])=[C:6]([H:16])[C@@:7]12[H:17])([H:8])([H:9])[H:10]>>[C:1]([C@@:2]1([H:11])[C@@:3]2([H:12])[C:4]([H:13])([H:14])[C:5](=[C:6]([H:15])[H:16])[C@@:7]12[H:17])([H:8])([H:9])[H:10]"
C       -1.83684803       0.58766567      -0.23672121
C       -1.01246965      -0.67274516      -0.20916820
C        0.28889783      -0.85919287      -0.92287212
C        1.13995127       0.40256003      -0.99651551
C        1.18404047       0.53001533       0.50142278
C        1.63568915       0.24461478       1.72721887
C        0.24108063      -0.89286542       0.60006967
H       -2.39463265       0.66812753      -1.17196613
H       -2.55312644       0.59028928       0.58764049
H       -1.21549812       1.47777640      -0.13157320
H       -1.62125390      -1.57199260      -0.25763893
H        0.44670869      -1.70781559      -1.57471890
H        0.70091545       1.24678954      -1.53327032
H        2.15117614       0.21336617      -1.35949347
H        1.06945688       1.65186272       1.08003091
H        1.46331835      -0.08288193       2.74504025
H        0.31259392      -1.82557389       1.15251502
17
Frame=10 idx=011921 GeodesicLength=1.3240033962579651 rxn_smarts="[C:1]([C@@:2]1([H:11])[C@@:3]2([H:12])[C:4]([H:13])([H:14])[C:5]([H:15])=[C:6]([H:16])[C@@:7]12[H:17])([H:8])([H:9])[H:10]>>[C:1]([C@@:2]1([H:11])[C@@:3]2([H:12])[C:4]([H:13])([H:14])[C:5](=[C:6]([H:15])[H:16])[C@@:7]12[H:17])([H:8])([H:9])[H:10]"
C       -1.83336364       0.58325368      -0.22800842
C       -1.00973403      -0.67787759      -0.20626239
C        0.29019432      -0.86044733      -0.92296519
C        1.13878580       0.40219495      -1.00550613
C        1.20597961       0.53429463       0.48788240
C        1.53408116       0.27341232       1.74749824
C        0.24645875      -0.90033025       0.60014607
H       -2.38709196       0.67157660      -1.16513715
H       -2.55322809       0.57937469       0.59321860
H       -1.21130837       1.47160320      -0.11187565
H       -1.61896010      -1.57671438      -0.25811917
H        0.44672753      -1.70841229      -1.57608830
H        0.69288888       1.24582780      -1.53781172
H        2.14516954       0.21417507      -1.38273995
H        1.15528844       1.68531830       1.06669536
H        1.43870868      -0.09766268       2.75729985
H        0.31940346      -1.83958671       1.14177352
17
Frame=11 idx=011921 GeodesicLength=1.4569510055312114 rxn_smarts="[C:1]([C@@:2]1([H:11])[C@@:3]2([H:12])[C:4]([H:13])([H:14])[C:5]([H:15])=[C:6]([H:16])[C@@:7]12[H:17])([H:8])([H:9])[H:10]>>[C:1]([C@@:2]1([H:11])[C@@:3]2([H:12])[C:4]([H:13])([H:14])[C:5](=[C:6]([H:15])[H:16])[C@@:7]12[H:17])([H:8])([H:9])[H:10]"
C       -1.83061617       0.57851112      -0.22079312
C       -1.00835528      -0.68351285      -0.20491634
C        0.29167116      -0.86169069      -0.92193605
C        1.13754861       0.40190995      -1.01086866
C        1.22787364       0.53535348       0.47806776
C        1.41957303       0.30850905       1.76296064
C        0.24863218      -0.90872894       0.60095837
H       -2.37952425       0.67497603      -1.15985064
H       -2.55484529       0.56835385       0.59649546
H       -1.20808163       1.46482700      -0.09361335
H       -1.61785827      -1.58164399      -0.26134110
H        0.44849922      -1.70860180      -1.57623798
H        0.68582145       1.24587728      -1.53751411
H        2.13873235       0.21545758      -1.40296999
H        1.24519216       1.71067461       1.05999713
H        1.43264986      -0.10748263       2.75766201
H        0.32308722      -1.85278906       1.13389995
17
Frame=12 idx=011921 GeodesicLength=1.5898562027850438 rxn_smarts="[C:1]([C@@:2]1([H:11])[C@@:3]2([H:12])[C:4]([H:13])([H:14])[C:5]([H:15])=[C:6]([H:16])[C@@:7]12[H:17])([H:8])([H:9])[H:10]>>[C:1]([C@@:2]1([H:11])[C@@:3]2([H:12])[C:4]([H:13])([H:14])[C:5](=[C:6]([H:15])[H:16])[C@@:7]12[H:17])([H:8])([H:9])[H:10]"
C       -1.82854567       0.57325865      -0.21451414
C       -1.00844868      -0.69027409      -0.20539060
C        0.29303900      -0.86317770      -0.92038735
C        1.13624541       0.40192193      -1.01248077
C        1.25081178       0.53154596       0.47263279
C        1.29802299       0.34585211       1.77034972
C        0.24781693      -0.91931199       0.60229697
H       -2.37240026       0.67873312      -1.15561676
H       -2.55755163       0.55665056       0.59839245
H       -1.20551732       1.45749048      -0.07600075
H       -1.61831280      -1.58762001      -0.26806633
H        0.45139916      -1.70848738      -1.57639580
H        0.67970536       1.24817627      -1.53126225
H        2.13154073       0.21776995      -1.42091131
H        1.34106597       1.72291649       1.06654507
H        1.43747430      -0.09866292       2.74196030
H        0.32365471      -1.86678144       1.12884876
17
Frame=13 idx=011921 GeodesicLength=1.72507022427002 rxn_smarts="[C:1]([C@@:2]1([H:11])[C@@:3]2([H:12])[C:4]([H:13])([H:14])[C:5]([H:15])=[C:6]([H:16])[C@@:7]12[H:17])([H:8])([H:9])[H:10]>>[C:1]([C@@:2]1([H:11])[C@@:3]2([H:12])[C:4]([H:13])([H:14])[C:5](=[C:6]([H:15])[H:16])[C@@:7]12[H:17])([H:8])([H:9])[H:10]"
C       -1.82655437       0.56731391      -0.20775618
C       -1.00916945      -0.69807592      -0.20688259
C        0.29430384      -0.86476939      -0.91905236
C        1.13474225       0.40239593      -1.01210247
C        1.27612743       0.52266719       0.46956901
C        1.18117903       0.38141409       1.76492091
C        0.24568708      -0.93181249       0.60351338
H       -2.36576684       0.68262123      -1.15056482
H       -2.56012390       0.54397488       0.60089048
H       -1.20297920       1.44939042      -0.05802788
H       -1.61944989      -1.59454524      -0.27689302
H        0.45478472      -1.70789431      -1.57740569
H        0.67386130       1.25296273      -1.51993949
H        2.12286959       0.22157198      -1.43960197
H        1.44285342       1.71773366       1.09048281
H        1.43464866      -0.06345880       2.71324039
H        0.32298633      -1.88148986       1.12560949
17
Frame=14 idx=011921 GeodesicLength=1.8627844702935217 rxn_smarts="[C:1]([C@@:2]1([H:11])[C@@:3]2([H:12])[C:4]([H:13])([H:14])[C:5]([H:15])=[C:6]([H:16])[C@@:7]12[H:17])([H:8])([H:9])[H:10]>>[C:1]([C@@:2]1([H:11])[C@@:3]2([H:12])[C:4]([H:13])([H:14])[C:5](=[C:6]([H:15])[H:16])[C@@:7]12[H:17])([H:8])([H:9])[H:10]"
C       -1.82436822       0.56090347      -0.20003410
C       -1.00953229      -0.70609553      -0.20808793
C        0.29565547      -0.86613123      -0.91795241
C        1.13280115       0.40347773      -1.01205448
C        1.30427835       0.51085225       0.46576726
C        1.07964946       0.41415012       1.74465832
C        0.24411167      -0.94419446       0.60454041
H       -2.35964641       0.68591333      -1.14392093
H       -2.56193700       0.53095402       0.60472852
H       -1.20040092       1.44079172      -0.03996616
H       -1.61999148      -1.60167385      -0.28515375
H        0.45839276      -1.70697379      -1.57857322
H        0.66728009       1.25941691      -1.50627451
H        2.11212176       0.22695997      -1.46168101
H        1.54654297       1.69491309       1.13105839
H        1.41156989      -0.00830822       2.67928791
H        0.32347274      -1.89495551       1.12365767
17
Frame=15 idx=011921 GeodesicLength=2.000782739516932 rxn_smarts="[C:1]([C@@:2]1([H:11])[C@@:3]2([H:12])[C:4]([H:13])([H:14])[C:5]([H:15])=[C:6]([H:16])[C@@:7]12[H:17])([H:8])([H:9])[H:10]>>[C:1]([C@@:2]1([H:11])[C@@:3]2([H:12])[C:4]([H:13])([H:14])[C:5](=[C:6]([H:15])[H:16])[C@@:7]12[H:17])([H:8])([H:9])[H:10]"
C       -1.82240594       0.55462797      -0.19266263
C       -1.00946164      -0.71353427      -0.20825524
C        0.29708538      -0.86717178      -0.91630981
C        1.13035288       0.40531979      -1.01320901
C        1.33419587       0.49920423       0.46010480
C        0.99681443       0.44526835       1.71246746
C        0.24327900      -0.95440301       0.60643447
H       -2.35390947       0.68805215      -1.13758470
H       -2.56378068       0.51878715       0.60830014
H       -1.19834422       1.43261966      -0.02338022
H       -1.61968423      -1.60855664      -0.29114808
H        0.46223654      -1.70650837      -1.57817098
H        0.65973882       1.26660902      -1.49291440
H        2.09942142       0.23370615      -1.48686331
H        1.64433208       1.65855838       1.18556341
H        1.37485833       0.05285225       2.64366845
H        0.32527142      -1.90543105       1.12395965
17
Frame=16 idx=011921 GeodesicLength=2.137924743329173 rxn_smarts="[C:1]([C@@:2]1([H:11])[C@@:3]2([H:12])[C:4]([H:13])([H:14])[C:5]([H:15])=[C:6]([H:16])[C@@:7]12[H:17])([H:8])([H:9])[H:10]>>[C:1]([C@@:2]1([H:11])[C@@:3]2([H:12])[C:4]([H:13])([H:14])[C:5](=[C:6]([H:15])[H:16])[C@@:7]12[H:17])([H:8])([H:9])[H:10]"
C       -1.82093173       0.54892872      -0.18648454
C       -1.00909553      -0.71989504      -0.20706064
C        0.29860434      -0.86782438      -0.91351566
C        1.12764347       0.40777237      -1.01549837
C        1.36480816       0.48953561       0.45260439
C        0.93147591       0.47535931       1.67227538
C        0.24293492      -0.96153154       0.60986442
H       -2.34816585       0.68913167      -1.13288147
H       -2.56643019       0.50812413       0.61034926
H       -1.19703487       1.42531544      -0.00878124
H       -1.61869740      -1.61477674      -0.29429037
H        0.46637232      -1.70676950      -1.57515154
H        0.65160963       1.27367519      -1.48119185
H        2.08540699       0.24122051      -1.51381527
H        1.72985830       1.61307852       1.25051191
H        1.33371370       0.11091262       2.60618721
H        0.32792783      -1.91225690       1.12687835
