12
Frame=0 idx=004254 GeodesicLength=0.0 rxn_smarts="[O:1]([C:2]([C@@:3]([O:4][H:11])([C:5](=[O:6])[H:12])[H:10])([H:8])[H:9])[H:7]>>[C:2](=[C:3]([O:4][H:11])[H:10])([H:8])[H:9].[O:1]([C:5](=[O:6])[H:12])[H:7]"
O       -0.95490014       1.17976507       0.38291369
C       -0.99040164      -0.77860602       0.14943697
C        0.39502125      -0.88136710      -0.01527825
O        0.86594432      -0.97729165      -1.30385922
C        0.54394324       0.84876981       0.44876309
O        1.23903506       1.42532479      -0.38513735
H       -1.04884310       1.62390957      -0.46953210
H       -1.64651776      -0.76463186      -0.71148696
H       -1.44855802      -0.96532862       1.11151499
H        0.96008055      -1.43090936       0.73630502
H        1.31691130      -0.12504413      -1.46783405
H        0.76828491       0.84540949       1.52419418
12
Frame=1 idx=004254 GeodesicLength=0.10549351776257031 rxn_smarts="[O:1]([C:2]([C@@:3]([O:4][H:11])([C:5](=[O:6])[H:12])[H:10])([H:8])[H:9])[H:7]>>[C:2](=[C:3]([O:4][H:11])[H:10])([H:8])[H:9].[O:1]([C:5](=[O:6])[H:12])[H:7]"
O       -0.95483239       1.19188972       0.35883293
C       -1.00043037      -0.78436973       0.16006804
C        0.38485157      -0.88358427      -0.02067095
O        0.83185865      -0.94501911      -1.32036513
C        0.56014475       0.86411527       0.46460325
O        1.27957357       1.42986658      -0.35386338
H       -1.03197170       1.59281513      -0.51714608
H       -1.66850006      -0.79577368      -0.69196468
H       -1.44460558      -0.97958441       1.12722710
H        0.95945221      -1.45059401       0.71021231
H        1.31950213      -0.10973688      -1.46118757
H        0.76495723       0.86997540       1.54425416
12
Frame=2 idx=004254 GeodesicLength=0.21098149263945326 rxn_smarts="[O:1]([C:2]([C@@:3]([O:4][H:11])([C:5](=[O:6])[H:12])[H:10])([H:8])[H:9])[H:7]>>[C:2](=[C:3]([O:4][H:11])[H:10])([H:8])[H:9].[O:1]([C:5](=[O:6])[H:12])[H:7]"
O       -0.95443461       1.20363697       0.33523575
C       -1.01075397      -0.79017497       0.16984686
C        0.37442572      -0.88590164      -0.02585309
O        0.79887392      -0.91236361      -1.33487178
C        0.57640822       0.87993111       0.48001061
O        1.31876927       1.43332027      -0.32429534
H       -1.01472830       1.56187262      -0.56104832
H       -1.68933665      -0.82615153      -0.67352961
H       -1.44116305      -0.99528030       1.14148327
H        0.95781792      -1.46993677       0.68421706
H        1.32152829      -0.09580405      -1.45451130
H        0.76259326       0.89685190       1.56331590
12
Frame=3 idx=004254 GeodesicLength=0.31646401327522844 rxn_smarts="[O:1]([C:2]([C@@:3]([O:4][H:11])([C:5](=[O:6])[H:12])[H:10])([H:8])[H:9])[H:7]>>[C:2](=[C:3]([O:4][H:11])[H:10])([H:8])[H:9].[O:1]([C:5](=[O:6])[H:12])[H:7]"
O       -0.95373718       1.21504780       0.31234694
C       -1.02136692      -0.79602205       0.17875641
C        0.36377708      -0.88834806      -0.03075699
O        0.76712045      -0.87964010      -1.34732224
C        0.59281136       0.89624342       0.49496565
O        1.35680363       1.43574042      -0.29642062
H       -0.99748211       1.53130909      -0.60125837
H       -1.70895693      -0.85578081      -0.65636340
H       -1.43829714      -1.01251747       1.15415561
H        0.95516194      -1.48894100       0.65847232
H        1.32282274      -0.08316824      -1.44790287
H        0.76134309       0.92607701       1.58132757
12
Frame=4 idx=004254 GeodesicLength=0.42189446575952644 rxn_smarts="[O:1]([C:2]([C@@:3]([O:4][H:11])([C:5](=[O:6])[H:12])[H:10])([H:8])[H:9])[H:7]>>[C:2](=[C:3]([O:4][H:11])[H:10])([H:8])[H:9].[O:1]([C:5](=[O:6])[H:12])[H:7]"
O       -0.95276722       1.22614349       0.29035399
C       -1.03227268      -0.80192016       0.18679367
C        0.35293097      -0.89095330      -0.03532660
O        0.73668924      -0.84712952      -1.35770815
C        0.60942427       0.91308199       0.50945523
O        1.39383709       1.43717664      -0.27019515
H       -0.98054299       1.50131214      -0.63783854
H       -1.72733374      -0.88470156      -0.64059983
H       -1.43607022      -1.03136745       1.16514086
H        0.95146740      -1.50761317       0.63310538
H        1.32328885      -0.07171736      -1.44141582
H        0.76134902       0.95768827       1.59823498
12
Frame=5 idx=004254 GeodesicLength=0.5272434637737521 rxn_smarts="[O:1]([C:2]([C@@:3]([O:4][H:11])([C:5](=[O:6])[H:12])[H:10])([H:8])[H:9])[H:7]>>[C:2](=[C:3]([O:4][H:11])[H:10])([H:8])[H:9].[O:1]([C:5](=[O:6])[H:12])[H:7]"
O       -0.95155213       1.23695943       0.26940263
C       -1.04348473      -0.80789081       0.19395871
C        0.34191371      -0.89374040      -0.03950602
O        0.70767101      -0.81507298      -1.36602872
C        0.62632904       0.93047731       0.52347378
O        1.43005537       1.43766230      -0.24554757
H       -0.96416134       1.47203565      -0.67084284
H       -1.74446891      -0.91298025      -0.62635728
H       -1.43455362      -1.05189435       1.17435066
H        0.94674540      -1.52597120       0.60823659
H        1.32279917      -0.06132502      -1.43511333
H        0.76270703       0.99174030       1.61397339
12
Frame=6 idx=004254 GeodesicLength=0.6324941084192728 rxn_smarts="[O:1]([C:2]([C@@:3]([O:4][H:11])([C:5](=[O:6])[H:12])[H:10])([H:8])[H:9])[H:7]>>[C:2](=[C:3]([O:4][H:11])[H:10])([H:8])[H:9].[O:1]([C:5](=[O:6])[H:12])[H:7]"
O       -0.95014643       1.24751764       0.24956759
C       -1.05502501      -0.81395832       0.20029209
C        0.33071573      -0.89671882      -0.04328016
O        0.68002417      -0.78364150      -1.37239203
C        0.64358314       0.94845929       0.53703523
O        1.46561216       1.43724088      -0.22236426
H       -0.94852906       1.44357838      -0.70043673
H       -1.76042520      -0.94071799      -0.61364002
H       -1.43377027      -1.07410767       1.18175579
H        0.94102098      -1.54406235       0.58388744
H        1.32144221      -0.05185364      -1.42894338
H        0.76549757       1.02826409       1.62851843
12
Frame=7 idx=004254 GeodesicLength=0.7376330562634026 rxn_smarts="[O:1]([C:2]([C@@:3]([O:4][H:11])([C:5](=[O:6])[H:12])[H:10])([H:8])[H:9])[H:7]>>[C:2](=[C:3]([O:4][H:11])[H:10])([H:8])[H:9].[O:1]([C:5](=[O:6])[H:12])[H:7]"
O       -0.94859442       1.25784208       0.23091008
C       -1.06692730      -0.82017151       0.20582116
C        0.31932861      -0.89989484      -0.04662800
O        0.65371186      -0.75294572      -1.37689398
C        0.66124485       0.96706345       0.55014135
O        1.50066669       1.43593922      -0.20053040
H       -0.93378970       1.41600556      -0.72673944
H       -1.77527541      -0.96802819      -0.60246130
H       -1.43376375      -1.09802898       1.18733134
H        0.93431478      -1.56190017       0.56008533
H        1.31928377      -0.04318281      -1.42284715
H        0.76980003       1.06730191       1.64181102
12
Frame=8 idx=004254 GeodesicLength=0.8427862476731401 rxn_smarts="[O:1]([C:2]([C@@:3]([O:4][H:11])([C:5](=[O:6])[H:12])[H:10])([H:8])[H:9])[H:7]>>[C:2](=[C:3]([O:4][H:11])[H:10])([H:8])[H:9].[O:1]([C:5](=[O:6])[H:12])[H:7]"
O       -0.94697788       1.26795513       0.21341067
C       -1.07921594      -0.82657199       0.21061890
C        0.30772966      -0.90327815      -0.04956778
O        0.62859120      -0.72302679      -1.37969305
C        0.67938263       0.98631658       0.56284725
O        1.53542759       1.43378335      -0.17988074
H       -0.92004932       1.38932265      -0.74999405
H       -1.78912509      -0.99505256      -0.59273612
H       -1.43450775      -1.12361944       1.19108748
H        0.92666575      -1.57955404       0.53674471
H        1.31646529      -0.03519552      -1.41673554
H        0.77561386       1.10892079       1.65389827
12
Frame=9 idx=004254 GeodesicLength=0.9476005943022736 rxn_smarts="[O:1]([C:2]([C@@:3]([O:4][H:11])([C:5](=[O:6])[H:12])[H:10])([H:8])[H:9])[H:7]>>[C:2](=[C:3]([O:4][H:11])[H:10])([H:8])[H:9].[O:1]([C:5](=[O:6])[H:12])[H:7]"
O       -0.94524833       1.27782710       0.19745342
C       -1.09197371      -0.83326807       0.21458242
C        0.29590626      -0.90684428      -0.05198506
O        0.60463345      -0.69399818      -1.38072858
C        0.69809391       1.00625044       0.57502672
O        1.56983797       1.43079902      -0.16043392
H       -0.90724631       1.36355561      -0.76987131
H       -1.80198310      -1.02172741      -0.58467031
H       -1.43623777      -1.15106743       1.19279783
H        0.91821405      -1.59695073       0.51410245
H        1.31300489      -0.02789654      -1.41052088
H        0.78299869       1.15332048       1.66424721
12
Frame=10 idx=004254 GeodesicLength=1.0523700754281886 rxn_smarts="[O:1]([C:2]([C@@:3]([O:4][H:11])([C:5](=[O:6])[H:12])[H:10])([H:8])[H:9])[H:7]>>[C:2](=[C:3]([O:4][H:11])[H:10])([H:8])[H:9].[O:1]([C:5](=[O:6])[H:12])[H:7]"
O       -0.94351894       1.28749931       0.18279500
C       -1.10518854      -0.84028889       0.21787186
C        0.28384083      -0.91062123      -0.05395694
O        0.58175532      -0.66579891      -1.38021549
C        0.71738260       1.02689693       0.58682716
O        1.60416845       1.42694558      -0.14189858
H       -0.89560136       1.33871846      -0.78696830
H       -1.81397771      -1.04829195      -0.57806679
H       -1.43878277      -1.18019226       1.19265806
H        0.90889071      -1.61422510       0.49190160
H        1.30902069      -0.02109500      -1.40412722
H        0.79201072       1.20045304       1.67317964
12
Frame=11 idx=004254 GeodesicLength=1.1571083613163404 rxn_smarts="[O:1]([C:2]([C@@:3]([O:4][H:11])([C:5](=[O:6])[H:12])[H:10])([H:8])[H:9])[H:7]>>[C:2](=[C:3]([O:4][H:11])[H:10])([H:8])[H:9].[O:1]([C:5](=[O:6])[H:12])[H:7]"
O       -0.94183029       1.29696583       0.16950052
C       -1.11890275      -0.84772275       0.22051285
C        0.27152718      -0.91461786      -0.05546815
O        0.55987842      -0.63840642      -1.37822907
C        0.73730589       1.04828743       0.59826684
O        1.63849386       1.42221560      -0.12412806
H       -0.88511870       1.31478268      -0.80140113
H       -1.82517783      -1.07483727      -0.57293705
H       -1.44219709      -1.21097796       1.19066023
H        0.89873920      -1.63139234       0.47012627
H        1.30456230      -0.01469680      -1.39746155
H        0.80271980       1.25039986       1.68055831
12
Frame=12 idx=004254 GeodesicLength=1.2618905809296013 rxn_smarts="[O:1]([C:2]([C@@:3]([O:4][H:11])([C:5](=[O:6])[H:12])[H:10])([H:8])[H:9])[H:7]>>[C:2](=[C:3]([O:4][H:11])[H:10])([H:8])[H:9].[O:1]([C:5](=[O:6])[H:12])[H:7]"
O       -0.94023630       1.30621961       0.15759289
C       -1.13314667      -0.85566202       0.22253453
C        0.25894701      -0.91883807      -0.05651359
O        0.53887738      -0.61174784      -1.37485534
C        0.75791856       1.07045351       0.60937954
O        1.67294631       1.41658530      -0.10694970
H       -0.87579631       1.29170694      -0.81332602
H       -1.83565637      -1.10146873      -0.56926198
H       -1.44650054      -1.24338971       1.18681633
H        0.88781949      -1.64848938       0.44872531
H        1.29967544      -0.00862541      -1.39043733
H        0.81515200       1.30325580       1.68629536
12
Frame=13 idx=004254 GeodesicLength=1.3667219915376678 rxn_smarts="[O:1]([C:2]([C@@:3]([O:4][H:11])([C:5](=[O:6])[H:12])[H:10])([H:8])[H:9])[H:7]>>[C:2](=[C:3]([O:4][H:11])[H:10])([H:8])[H:9].[O:1]([C:5](=[O:6])[H:12])[H:7]"
O       -0.93878722       1.31522516       0.14714673
C       -1.14794702      -0.86420062       0.22392985
C        0.24609021      -0.92329918      -0.05707016
O        0.51867967      -0.58577516      -1.37010718
C        0.77927485       1.09344598       0.62016805
O        1.70758409       1.41003636      -0.09025909
H       -0.86765586       1.26944079      -0.82278759
H       -1.84543684      -1.12823846      -0.56707717
H       -1.45173512      -1.27738254       1.18108015
H        0.87615955      -1.66552852       0.42768870
H        1.29439078      -0.00282447      -1.38296702
H        0.82938292       1.35910065       1.69025473
12
Frame=14 idx=004254 GeodesicLength=1.4715729795080288 rxn_smarts="[O:1]([C:2]([C@@:3]([O:4][H:11])([C:5](=[O:6])[H:12])[H:10])([H:8])[H:9])[H:7]>>[C:2](=[C:3]([O:4][H:11])[H:10])([H:8])[H:9].[O:1]([C:5](=[O:6])[H:12])[H:7]"
O       -0.93751276       1.32394064       0.13829768
C       -1.16334137      -0.87344987       0.22467225
C        0.23293442      -0.92801394      -0.05710544
O        0.49922794      -0.56044649      -1.36397701
C        0.80143644       1.11730108       0.63064389
O        1.74246211       1.40250245      -0.07388329
H       -0.86071490       1.24796151      -0.82977342
H       -1.85454668      -1.15518005      -0.56645413
H       -1.45794860      -1.31294878       1.17340687
H        0.86381407      -1.68253862       0.40699894
H        1.28872357       0.00276186      -1.37496612
H        0.84546576       1.41811022       1.69213978
12
Frame=15 idx=004254 GeodesicLength=1.5764477290223649 rxn_smarts="[O:1]([C:2]([C@@:3]([O:4][H:11])([C:5](=[O:6])[H:12])[H:10])([H:8])[H:9])[H:7]>>[C:2](=[C:3]([O:4][H:11])[H:10])([H:8])[H:9].[O:1]([C:5](=[O:6])[H:12])[H:7]"
O       -0.93646415       1.33231870       0.13116184
C       -1.17936180      -0.88352305       0.22473064
C        0.21946093      -0.93300462      -0.05659355
O        0.48045410      -0.53570310      -1.35644675
C        0.82445624       1.14207350       0.64081365
O        1.77762878       1.39392732      -0.05765429
H       -0.85498765       1.22722162      -0.83427257
H       -1.86300593      -1.18233882      -0.56746189
H       -1.46518255      -1.35005358       1.16374943
H        0.85081425      -1.69952681       0.38663360
H        1.28269677       0.00819347      -1.36633437
H        0.86349103       1.48041537       1.69167425
12
Frame=16 idx=004254 GeodesicLength=1.6813681958309756 rxn_smarts="[O:1]([C:2]([C@@:3]([O:4][H:11])([C:5](=[O:6])[H:12])[H:10])([H:8])[H:9])[H:7]>>[C:2](=[C:3]([O:4][H:11])[H:10])([H:8])[H:9].[O:1]([C:5](=[O:6])[H:12])[H:7]"
O       -0.93570114       1.34032132       0.12588699
C       -1.19604386      -0.89454337       0.22406593
C        0.20564146      -0.93829463      -0.05550684
O        0.46228219      -0.51147696      -1.34747898
C        0.84839533       1.16781267       0.65068342
O        1.81315896       1.38420552      -0.04136093
H       -0.85048155       1.20718706      -0.83624056
H       -1.87083180      -1.20975642      -0.57018195
H       -1.47346853      -1.38869658       1.15205059
H        0.83719997      -1.71650757       0.36654643
H        1.27632309       0.01352766      -1.35696376
H        0.88352588       1.54622129       1.68849966
