12
Frame=0 idx=009516 GeodesicLength=0.0 rxn_smarts="[C:1]([c:2]1[c:3]([H:11])[o:4][c:5]([O:6][H:12])[n:7]1)([H:8])([H:9])[H:10]>>[C:1]1([H:8])([H:9])[C:2](=[N:7][C:5](=[O:4])[O:6][H:12])[C:3]1([H:10])[H:11]"
C       -1.74048963       0.38743412       0.32279275
C       -0.30815362       0.05479465       0.16309055
C       -0.86694977      -1.19339558      -0.02418482
O        1.83273959      -1.17327791      -0.69832419
C        1.87638943      -0.06096378      -0.24648839
O        3.03316462       0.58797114      -0.07561962
N        0.77711085       0.72676041       0.14764954
H       -2.09676636       0.54235625       1.33692327
H       -2.17336435       1.01402674      -0.45053676
H       -2.13083735      -0.79362403       0.27619033
H       -1.02492450      -1.54599826      -1.04159484
H        2.82208109       1.45391622       0.29010222
12
Frame=1 idx=009516 GeodesicLength=0.08104515630573303 rxn_smarts="[C:1]([c:2]1[c:3]([H:11])[o:4][c:5]([O:6][H:12])[n:7]1)([H:8])([H:9])[H:10]>>[C:1]1([H:8])([H:9])[C:2](=[N:7][C:5](=[O:4])[O:6][H:12])[C:3]1([H:10])[H:11]"
C       -1.74955180       0.38243742       0.32354107
C       -0.31556963       0.08485042       0.13244766
C       -0.83998939      -1.17952596      -0.04931930
O        1.80314619      -1.18546982      -0.65477724
C        1.86596141      -0.05108252      -0.25275825
O        3.03561358       0.56796686      -0.06463796
N        0.77726648       0.74887394       0.13601022
H       -2.08154147       0.54283970       1.34502946
H       -2.20515655       1.00636895      -0.43893831
H       -2.11566542      -0.81951668       0.29560466
H       -1.01475620      -1.54093920      -1.06020924
H        2.84024279       1.44319689       0.28800723
12
Frame=2 idx=009516 GeodesicLength=0.16225459368549328 rxn_smarts="[C:1]([c:2]1[c:3]([H:11])[o:4][c:5]([O:6][H:12])[n:7]1)([H:8])([H:9])[H:10]>>[C:1]1([H:8])([H:9])[C:2](=[N:7][C:5](=[O:4])[O:6][H:12])[C:3]1([H:10])[H:11]"
C       -1.75731433       0.37752827       0.32389043
C       -0.32335688       0.11402613       0.10002747
C       -0.81403367      -1.16558768      -0.07392416
O        1.77265310      -1.19270442      -0.61987423
C        1.85608497      -0.04281938      -0.25558327
O        3.03690434       0.54641896      -0.04662504
N        0.77702826       0.76965154       0.12415696
H       -2.06433287       0.54605757       1.35187014
H       -2.23613286       0.99722457      -0.42789765
H       -2.09826368      -0.84483466       0.31701811
H       -1.00591199      -1.53825247      -1.07693443
H        2.85667560       1.43329157       0.28387567
12
Frame=3 idx=009516 GeodesicLength=0.243738467477766 rxn_smarts="[C:1]([c:2]1[c:3]([H:11])[o:4][c:5]([O:6][H:12])[n:7]1)([H:8])([H:9])[H:10]>>[C:1]1([H:8])([H:9])[C:2](=[N:7][C:5](=[O:4])[O:6][H:12])[C:3]1([H:10])[H:11]"
C       -1.76383274       0.37286810       0.32374922
C       -0.33132833       0.14169318       0.06777640
C       -0.78929211      -1.15185367      -0.09771469
O        1.74195943      -1.19767016      -0.58899007
C        1.84618667      -0.03518941      -0.25737036
O        3.03655642       0.52697484      -0.03224483
N        0.77638589       0.78872833       0.11358550
H       -2.04663195       0.55183295       1.35693079
H       -2.26506773       0.98728955      -0.41787471
H       -2.07911763      -0.86917236       0.33939597
H       -0.99749315      -1.53744427      -1.09188068
H        2.87167523       1.42194292       0.28463744
12
Frame=4 idx=009516 GeodesicLength=0.3250407104265125 rxn_smarts="[C:1]([c:2]1[c:3]([H:11])[o:4][c:5]([O:6][H:12])[n:7]1)([H:8])([H:9])[H:10]>>[C:1]1([H:8])([H:9])[C:2](=[N:7][C:5](=[O:4])[O:6][H:12])[C:3]1([H:10])[H:11]"
C       -1.76877989       0.36855296       0.32314570
C       -0.33961373       0.16897909       0.03215557
C       -0.76484246      -1.13827141      -0.11969518
O        1.71085473      -1.19781496      -0.56926743
C        1.83629083      -0.02753449      -0.26011563
O        3.03466891       0.50762355      -0.01467790
N        0.77427713       0.80932681       0.09370766
H       -2.02528889       0.56269132       1.36049139
H       -2.29464650       0.97394587      -0.40901918
H       -2.05614900      -0.89268772       0.36723033
H       -0.99121018      -1.54118167      -1.10231883
H        2.88443905       1.40637065       0.29836351
12
Frame=5 idx=009516 GeodesicLength=0.40656564797908223 rxn_smarts="[C:1]([c:2]1[c:3]([H:11])[o:4][c:5]([O:6][H:12])[n:7]1)([H:8])([H:9])[H:10]>>[C:1]1([H:8])([H:9])[C:2](=[N:7][C:5](=[O:4])[O:6][H:12])[C:3]1([H:10])[H:11]"
C       -1.77281289       0.36429857       0.32271383
C       -0.34767290       0.19348035       0.00098515
C       -0.74223710      -1.12516758      -0.14217058
O        1.68030695      -1.19828652      -0.54853311
C        1.82621613      -0.02076620      -0.26083157
O        3.03144461       0.48937155       0.00087094
N        0.77237354       0.82667486       0.08056042
H       -2.00655934       0.57314909       1.36262450
H       -2.31978288       0.96233568      -0.40017305
H       -2.03294605      -0.91495869       0.39241467
H       -0.98397015      -1.54353989      -1.11391684
H        2.89564006       1.39340879       0.30545565
12
Frame=6 idx=009516 GeodesicLength=0.4879925296081072 rxn_smarts="[C:1]([c:2]1[c:3]([H:11])[o:4][c:5]([O:6][H:12])[n:7]1)([H:8])([H:9])[H:10]>>[C:1]1([H:8])([H:9])[C:2](=[N:7][C:5](=[O:4])[O:6][H:12])[C:3]1([H:10])[H:11]"
C       -1.77568972       0.36022520       0.32235641
C       -0.35575211       0.21662205      -0.02984717
C       -0.72053136      -1.11246167      -0.16397286
O        1.65003197      -1.19639574      -0.53370388
C        1.81596950      -0.01424333      -0.26169876
O        3.02688793       0.47100182       0.01881539
N        0.76977080       0.84403646       0.06364869
H       -1.98701812       0.58590921       1.36361116
H       -2.34352636       0.94971947      -0.39166367
H       -2.00740041      -0.93626317       0.41958931
H       -0.97761215      -1.54759879      -1.12367345
H        2.90487003       1.37944848       0.31653883
12
Frame=7 idx=009516 GeodesicLength=0.5695689276760596 rxn_smarts="[C:1]([c:2]1[c:3]([H:11])[o:4][c:5]([O:6][H:12])[n:7]1)([H:8])([H:9])[H:10]>>[C:1]1([H:8])([H:9])[C:2](=[N:7][C:5](=[O:4])[O:6][H:12])[C:3]1([H:10])[H:11]"
C       -1.77773408       0.35632547       0.32205443
C       -0.36374126       0.23806860      -0.05890005
C       -0.69991058      -1.10021235      -0.18525577
O        1.62025744      -1.19367703      -0.52159498
C        1.80561834      -0.00762835      -0.26323455
O        3.02114618       0.45358151       0.03565555
N        0.76684218       0.86055524       0.04636361
H       -1.96816674       0.60001667       1.36334654
H       -2.36509602       0.93703983      -0.38357578
H       -1.98032158      -0.95645994       0.44723037
H       -0.97138565      -1.55239415      -1.13233518
H        2.91249177       1.36478450       0.33024580
12
Frame=8 idx=009516 GeodesicLength=0.6512132537520962 rxn_smarts="[C:1]([c:2]1[c:3]([H:11])[o:4][c:5]([O:6][H:12])[n:7]1)([H:8])([H:9])[H:10]>>[C:1]1([H:8])([H:9])[C:2](=[N:7][C:5](=[O:4])[O:6][H:12])[C:3]1([H:10])[H:11]"
C       -1.77912242       0.35261047       0.32179676
C       -0.37156317       0.25802583      -0.08592165
C       -0.68030275      -1.08838896      -0.20601163
O        1.59123210      -1.19016866      -0.51115887
C        1.79512405      -0.00099379      -0.26532556
O        3.01410293       0.43718567       0.05006026
N        0.76380878       0.87620068       0.02951707
H       -1.95043385       0.61512097       1.36194933
H       -2.38450647       0.92452935      -0.37603087
H       -1.95196810      -0.97560975       0.47495618
H       -0.96497085      -1.55769803      -1.14014875
H        2.91859975       1.34918621       0.34631773
12
Frame=9 idx=009516 GeodesicLength=0.7329207988406936 rxn_smarts="[C:1]([c:2]1[c:3]([H:11])[o:4][c:5]([O:6][H:12])[n:7]1)([H:8])([H:9])[H:10]>>[C:1]1([H:8])([H:9])[C:2](=[N:7][C:5](=[O:4])[O:6][H:12])[C:3]1([H:10])[H:11]"
C       -1.78023463       0.34892612       0.32164884
C       -0.37925060       0.27633956      -0.11028806
C       -0.66197112      -1.07688329      -0.22680558
O        1.56266065      -1.18690923      -0.50121475
C        1.78473854       0.00504967      -0.26590377
O        3.00697860       0.42160616       0.06359203
N        0.76071468       0.89036936       0.01517375
H       -1.93461186       0.62999114       1.35964457
H       -2.40170347       0.91292130      -0.36867384
H       -1.92315941      -0.99385529       0.50146202
H       -0.95834394      -1.56240156      -1.14814571
H        2.92418257       1.33484605       0.35951050
12
Frame=10 idx=009516 GeodesicLength=0.8146903770746053 rxn_smarts="[C:1]([c:2]1[c:3]([H:11])[o:4][c:5]([O:6][H:12])[n:7]1)([H:8])([H:9])[H:10]>>[C:1]1([H:8])([H:9])[C:2](=[N:7][C:5](=[O:4])[O:6][H:12])[C:3]1([H:10])[H:11]"
C       -1.78106166       0.34532646       0.32160248
C       -0.38680536       0.29346887      -0.13270627
C       -0.64469443      -1.06570152      -0.24742470
O        1.53468086      -1.18331550      -0.49236689
C        1.77435395       0.01080315      -0.26583617
O        2.99946955       0.40646475       0.07643977
N        0.75758235       0.90366498       0.00210883
H       -1.92020310       0.64502134       1.35662841
H       -2.41722524       0.90181924      -0.36167348
H       -1.89359431      -1.01134423       0.52745732
H       -0.95165783      -1.56710968      -1.15596823
H        2.92915520       1.32090213       0.37173893
12
Frame=11 idx=009516 GeodesicLength=0.8964968566588378 rxn_smarts="[C:1]([c:2]1[c:3]([H:11])[o:4][c:5]([O:6][H:12])[n:7]1)([H:8])([H:9])[H:10]>>[C:1]1([H:8])([H:9])[C:2](=[N:7][C:5](=[O:4])[O:6][H:12])[C:3]1([H:10])[H:11]"
C       -1.78167845       0.34180859       0.32164396
C       -0.39424567       0.30954826      -0.15339957
C       -0.62837555      -1.05477331      -0.26786507
O        1.50728692      -1.17947882      -0.48451351
C        1.76397130       0.01631008      -0.26521580
O        2.99162549       0.39173483       0.08862298
N        0.75441892       0.91615414      -0.00977400
H       -1.90714226       0.66013510       1.35295742
H       -2.43131098       0.89118554      -0.35499835
H       -1.86328032      -1.02808377       0.55295368
H       -0.94490304      -1.57181058      -1.16355259
H        2.93363364       1.30726996       0.38314085
12
Frame=12 idx=009516 GeodesicLength=0.9783486495337997 rxn_smarts="[C:1]([c:2]1[c:3]([H:11])[o:4][c:5]([O:6][H:12])[n:7]1)([H:8])([H:9])[H:10]>>[C:1]1([H:8])([H:9])[C:2](=[N:7][C:5](=[O:4])[O:6][H:12])[C:3]1([H:10])[H:11]"
C       -1.78203885       0.33840482       0.32178658
C       -0.40162166       0.32474578      -0.17293954
C       -0.61288599      -1.04407540      -0.28807701
O        1.48047308      -1.17529922      -0.47814311
C        1.75358999       0.02171812      -0.26449237
O        2.98341756       0.37741330       0.10021848
N        0.75117535       0.92811682      -0.02142932
H       -1.89498967       0.67557981       1.34866971
H       -2.44430672       0.88076598      -0.34857756
H       -1.83191510      -1.04401198       0.57839590
H       -0.93825601      -1.57681703      -1.17057955
H        2.93735801       1.29345901       0.39516778
12
Frame=13 idx=009516 GeodesicLength=1.0602338576507613 rxn_smarts="[C:1]([c:2]1[c:3]([H:11])[o:4][c:5]([O:6][H:12])[n:7]1)([H:8])([H:9])[H:10]>>[C:1]1([H:8])([H:9])[C:2](=[N:7][C:5](=[O:4])[O:6][H:12])[C:3]1([H:10])[H:11]"
C       -1.78232572       0.33508941       0.32198259
C       -0.40890228       0.33911328      -0.19099661
C       -0.59823755      -1.03354766      -0.30812116
O        1.45422432      -1.17106413      -0.47223290
C        1.74320515       0.02692011      -0.26327685
O        2.97510166       0.36358304       0.11063163
N        0.74792893       0.93936274      -0.03179032
H       -1.88418797       0.69094469       1.34384293
H       -2.45617444       0.87081895      -0.34250382
H       -1.79991919      -1.05923583       0.60324165
H       -0.93147614      -1.58178013      -1.17737820
H        2.94076325       1.27979551       0.40660107
12
Frame=14 idx=009516 GeodesicLength=1.142166601564626 rxn_smarts="[C:1]([c:2]1[c:3]([H:11])[o:4][c:5]([O:6][H:12])[n:7]1)([H:8])([H:9])[H:10]>>[C:1]1([H:8])([H:9])[C:2](=[N:7][C:5](=[O:4])[O:6][H:12])[C:3]1([H:10])[H:11]"
C       -1.78246816       0.33189024       0.32226182
C       -0.41613462       0.35278085      -0.20806440
C       -0.58432927      -1.02317573      -0.32798740
O        1.42851974      -1.16666613      -0.46722671
C        1.73281456       0.03202949      -0.26194535
O        2.96663460       0.35020734       0.12003016
N        0.74463228       0.95013822      -0.04174964
H       -1.87430702       0.70644671       1.33851818
H       -2.46718590       0.86112340      -0.33667416
H       -1.76699313      -1.07369483       0.62787339
H       -0.92472996      -1.58696378      -1.18369261
H        2.94354688       1.26588420       0.41865672
12
Frame=15 idx=009516 GeodesicLength=1.2241520231496235 rxn_smarts="[C:1]([c:2]1[c:3]([H:11])[o:4][c:5]([O:6][H:12])[n:7]1)([H:8])([H:9])[H:10]>>[C:1]1([H:8])([H:9])[C:2](=[N:7][C:5](=[O:4])[O:6][H:12])[C:3]1([H:10])[H:11]"
C       -1.78251659       0.32879816       0.32262286
C       -0.42332290       0.36582104      -0.22416607
C       -0.57113651      -1.01291883      -0.34773967
O        1.40332274      -1.16219596      -0.46280372
C        1.72241314       0.03701354      -0.26037883
O        2.95807519       0.33722756       0.12848613
N        0.74130270       0.96044476      -0.05114974
H       -1.86537228       0.72194190       1.33276825
H       -2.47741690       0.85172721      -0.33106304
H       -1.73322170      -1.08743556       0.65214414
H       -0.91797296      -1.59226847      -1.18963301
H        2.94584606       1.25184464       0.43091271
12
Frame=16 idx=009516 GeodesicLength=1.3061991551208854 rxn_smarts="[C:1]([c:2]1[c:3]([H:11])[o:4][c:5]([O:6][H:12])[n:7]1)([H:8])([H:9])[H:10]>>[C:1]1([H:8])([H:9])[C:2](=[N:7][C:5](=[O:4])[O:6][H:12])[C:3]1([H:10])[H:11]"
C       -1.78249526       0.32580904       0.32306835
C       -0.43047738       0.37830590      -0.23938481
C       -0.55862805      -1.00274099      -0.36743076
O        1.37859030      -1.15770753      -0.45875239
C        1.71199240       0.04186133      -0.25853761
O        2.94945522       0.32460276       0.13606521
N        0.73794512       0.97031914      -0.06000841
H       -1.85733570       0.73735260       1.32665561
H       -2.48695826       0.84263174      -0.32563521
H       -1.69862424      -1.10049057       0.67598992
H       -0.91119152      -1.59764934      -1.19525495
H        2.94772735       1.23770592       0.44322506
