17
Frame=0 idx=002651 GeodesicLength=0.0 rxn_smarts="[C:1]([C:2]([C@@:3]1([H:12])[C:4]([H:13])([H:14])[N:5]1[C:6]([H:15])([H:16])[H:17])([H:10])[H:11])([H:7])([H:8])[H:9]>>[C:1]([C:2]([C@@:3]1([H:12])[C-:4]([H:14])[N+:5]1([C:6]([H:15])([H:16])[H:17])[H:13])([H:10])[H:11])([H:7])([H:8])[H:9]"
C        2.44964623      -0.55732657       0.30112058
C        1.27562112      -0.26922961      -0.62366196
C       -0.00430228      -0.08713872       0.15389146
C       -0.30931461       1.19821155       0.82943419
N       -1.11418872       0.53063851      -0.55537928
C       -2.46165587       0.04918240      -0.31313661
H        2.58069712       0.25754731       1.01590177
H        2.29617551      -1.47977919       0.86710209
H        3.37817617      -0.66451992      -0.26120742
H        1.45939506       0.64654017      -1.19046387
H        1.14757572      -1.07924615      -1.34913475
H       -0.33688952      -0.99100145       0.66519005
H       -0.87155608       1.62661193      -0.37751324
H       -1.04122111       1.03978597       1.62986627
H       -2.71232069      -0.69564014      -1.07146521
H       -3.16721742       0.87583839      -0.39998720
H       -2.56862058      -0.40047441       0.67944320
17
Frame=1 idx=002651 GeodesicLength=0.056055221028710814 rxn_smarts="[C:1]([C:2]([C@@:3]1([H:12])[C:4]([H:13])([H:14])[N:5]1[C:6]([H:15])([H:16])[H:17])([H:10])[H:11])([H:7])([H:8])[H:9]>>[C:1]([C:2]([C@@:3]1([H:12])[C-:4]([H:14])[N+:5]1([C:6]([H:15])([H:16])[H:17])[H:13])([H:10])[H:11])([H:7])([H:8])[H:9]"
C        2.44999669      -0.55685383       0.30048644
C        1.27422221      -0.27041957      -0.62271905
C       -0.00486692      -0.09222220       0.15673854
C       -0.31769881       1.19481619       0.82496941
N       -1.11488448       0.53238069      -0.54586958
C       -2.46255632       0.04897753      -0.31193067
H        2.58009406       0.25765286       1.01587731
H        2.29910682      -1.48013122       0.86578400
H        3.37814836      -0.66151232      -0.26297541
H        1.45594492       0.64611135      -1.18903248
H        1.14760971      -1.08006426      -1.34890023
H       -0.33657711      -0.99676662       0.66750641
H       -0.85536207       1.63998795      -0.38951451
H       -1.04314196       1.04152779       1.63170510
H       -2.70958813      -0.69399094      -1.07326292
H       -3.16924393       0.87481469      -0.39768810
H       -2.57120306      -0.40430809       0.67882574
17
Frame=2 idx=002651 GeodesicLength=0.11210735027459573 rxn_smarts="[C:1]([C:2]([C@@:3]1([H:12])[C:4]([H:13])([H:14])[N:5]1[C:6]([H:15])([H:16])[H:17])([H:10])[H:11])([H:7])([H:8])[H:9]>>[C:1]([C:2]([C@@:3]1([H:12])[C-:4]([H:14])[N+:5]1([C:6]([H:15])([H:16])[H:17])[H:13])([H:10])[H:11])([H:7])([H:8])[H:9]"
C        2.45025958      -0.55639173       0.29983245
C        1.27274930      -0.27156982      -0.62178860
C       -0.00549199      -0.09714548       0.15955882
C       -0.32598993       1.19154706       0.82054607
N       -1.11562103       0.53426020      -0.53645441
C       -2.46340017       0.04867381      -0.31079823
H        2.57945689       0.25775207       1.01581666
H        2.30189345      -1.48046386       0.86446642
H        3.37801484      -0.65858788      -0.26476547
H        1.45247917       0.64569091      -1.18763706
H        1.14751253      -1.08084700      -1.34865997
H       -0.33628742      -1.00235614       0.66984827
H       -0.83895380       1.65302300      -0.40104342
H       -1.04491304       1.04343451       1.63352577
H       -2.70668154      -0.69244666      -1.07512948
H       -3.17132136       0.87359766      -0.39546748
H       -2.57370548      -0.40817065       0.67814965
17
Frame=3 idx=002651 GeodesicLength=0.16815330223758893 rxn_smarts="[C:1]([C:2]([C@@:3]1([H:12])[C:4]([H:13])([H:14])[N:5]1[C:6]([H:15])([H:16])[H:17])([H:10])[H:11])([H:7])([H:8])[H:9]>>[C:1]([C:2]([C@@:3]1([H:12])[C-:4]([H:14])[N+:5]1([C:6]([H:15])([H:16])[H:17])[H:13])([H:10])[H:11])([H:7])([H:8])[H:9]"
C        2.45043918      -0.55594104       0.29916095
C        1.27121078      -0.27267898      -0.62087361
C       -0.00617445      -0.10191386       0.16234392
C       -0.33418826       1.18839597       0.81615962
N       -1.11639778       0.53625041      -0.52714932
C       -2.46419164       0.04827455      -0.30973433
H        2.57878735       0.25784434       1.01572310
H        2.30453576      -1.48077816       0.86315184
H        3.37778306      -0.65575008      -0.26657072
H        1.44900648       0.64528392      -1.18627591
H        1.14730000      -1.08159128      -1.34842110
H       -0.33601468      -1.00777643       0.67220853
H       -0.82235244       1.66574616      -0.41209007
H       -1.04654431       1.04550139       1.63531439
H       -2.70362555      -0.69101181      -1.07704514
H       -3.17344529       0.87219662      -0.39332706
H       -2.57612822      -0.41205175       0.67742492
17
Frame=4 idx=002651 GeodesicLength=0.22418496318030037 rxn_smarts="[C:1]([C:2]([C@@:3]1([H:12])[C:4]([H:13])([H:14])[N:5]1[C:6]([H:15])([H:16])[H:17])([H:10])[H:11])([H:7])([H:8])[H:9]>>[C:1]([C:2]([C@@:3]1([H:12])[C-:4]([H:14])[N+:5]1([C:6]([H:15])([H:16])[H:17])[H:13])([H:10])[H:11])([H:7])([H:8])[H:9]"
C        2.45053993      -0.55550253       0.29847418
C        1.26961542      -0.27374605      -0.61997848
C       -0.00691133      -0.10653355       0.16508687
C       -0.34229566       1.18535692       0.81180639
N       -1.11721367       0.53832701      -0.51796980
C       -2.46493556       0.04778250      -0.30873448
H        2.57808723       0.25793109       1.01560111
H        2.30703396      -1.48107713       0.86184404
H        3.37746104      -0.65300223      -0.26838613
H        1.44553625       0.64489718      -1.18495006
H        1.14698847      -1.08229620      -1.34819369
H       -0.33575445      -1.01303686       0.67458234
H       -0.80557594       1.67818758      -0.42264544
H       -1.04804651       1.04772621       1.63706193
H       -2.70044454      -0.68969385      -1.07899284
H       -3.17561084       0.87062242      -0.39126954
H       -2.57847382      -0.41594250       0.67666359
17
Frame=5 idx=002651 GeodesicLength=0.2802279548638318 rxn_smarts="[C:1]([C:2]([C@@:3]1([H:12])[C:4]([H:13])([H:14])[N:5]1[C:6]([H:15])([H:16])[H:17])([H:10])[H:11])([H:7])([H:8])[H:9]>>[C:1]([C:2]([C@@:3]1([H:12])[C-:4]([H:14])[N+:5]1([C:6]([H:15])([H:16])[H:17])[H:13])([H:10])[H:11])([H:7])([H:8])[H:9]"
C        2.45056617      -0.55507550       0.29777449
C        1.26796898      -0.27476947      -0.61909891
C       -0.00769863      -0.11101141       0.16777680
C       -0.35031260       1.18240961       0.80747418
N       -1.11807166       0.54045907      -0.50892075
C       -2.46563629       0.04720357      -0.30779027
H        2.57735946       0.25800659       1.01544541
H        2.30939233      -1.48135039       0.86054235
H        3.37705382      -0.65034792      -0.27019865
H        1.44206984       0.64452660      -1.18364505
H        1.14659051      -1.08295022      -1.34796991
H       -0.33549720      -1.01813579       0.67695248
H       -0.78864330       1.69037932      -0.43271325
H       -1.04942548       1.05008595       1.63873930
H       -2.69716099      -0.68848452      -1.08094432
H       -3.17781507       0.86888090      -0.38929146
H       -2.58073990      -0.41982639       0.67586756
17
Frame=6 idx=002651 GeodesicLength=0.3362523030742885 rxn_smarts="[C:1]([C:2]([C@@:3]1([H:12])[C:4]([H:13])([H:14])[N:5]1[C:6]([H:15])([H:16])[H:17])([H:10])[H:11])([H:7])([H:8])[H:9]>>[C:1]([C:2]([C@@:3]1([H:12])[C-:4]([H:14])[N+:5]1([C:6]([H:15])([H:16])[H:17])[H:13])([H:10])[H:11])([H:7])([H:8])[H:9]"
C        2.45052316      -0.55465942       0.29706346
C        1.26627886      -0.27575206      -0.61824313
C       -0.00853498      -0.11535620       0.17041436
C       -0.35824302       1.17955679       0.80316674
N       -1.11896821       0.54263088      -0.50001791
C       -2.46630011       0.04653926      -0.30690085
H        2.57660366       0.25807875       1.01526720
H        2.31161555      -1.48160958       0.85925140
H        3.37657121      -0.64777996      -0.27201190
H        1.43861594       0.64418100      -1.18237399
H        1.14611953      -1.08356520      -1.34776667
H       -0.33524462      -1.02309269       0.67932619
H       -0.77155580       1.70234959      -0.44228685
H       -1.05069532       1.05259163       1.64035465
H       -2.69379818      -0.68739603      -1.08289822
H       -3.18005231       0.86698820      -0.38739616
H       -2.58293535      -0.42370497       0.67505168
17
Frame=7 idx=002651 GeodesicLength=0.39222021487471065 rxn_smarts="[C:1]([C:2]([C@@:3]1([H:12])[C:4]([H:13])([H:14])[N:5]1[C:6]([H:15])([H:16])[H:17])([H:10])[H:11])([H:7])([H:8])[H:9]>>[C:1]([C:2]([C@@:3]1([H:12])[C-:4]([H:14])[N+:5]1([C:6]([H:15])([H:16])[H:17])[H:13])([H:10])[H:11])([H:7])([H:8])[H:9]"
C        2.45041466      -0.55425272       0.29634200
C        1.26454950      -0.27669508      -0.61740919
C       -0.00941661      -0.11957414       0.17299615
C       -0.36609012       1.17678600       0.79887767
N       -1.11990239       0.54482283      -0.49126756
C       -2.46693079       0.04579579      -0.30606150
H        2.57581819       0.25814529       1.01506672
H        2.31371127      -1.48185168       0.85796764
H        3.37601815      -0.64529229      -0.27382069
H        1.43517519       0.64385704      -1.18113118
H        1.14558555      -1.08413960      -1.34758028
H       -0.33499115      -1.02791102       0.68169815
H       -0.75432483       1.71411085      -0.45136819
H       -1.05186339       1.05523545       1.64189284
H       -2.69037438      -0.68642183      -1.08484147
H       -3.18231780       0.86495516      -0.38557996
H       -2.58506105      -0.42757006       0.67421885
17
Frame=8 idx=002651 GeodesicLength=0.4482143620533654 rxn_smarts="[C:1]([C:2]([C@@:3]1([H:12])[C:4]([H:13])([H:14])[N:5]1[C:6]([H:15])([H:16])[H:17])([H:10])[H:11])([H:7])([H:8])[H:9]>>[C:1]([C:2]([C@@:3]1([H:12])[C-:4]([H:14])[N+:5]1([C:6]([H:15])([H:16])[H:17])[H:13])([H:10])[H:11])([H:7])([H:8])[H:9]"
C        2.45024551      -0.55385094       0.29560954
C        1.26278179      -0.27760808      -0.61659707
C       -0.01034379      -0.12367740       0.17552229
C       -0.37386060       1.17408870       0.79459979
N       -1.12087469       0.54701100      -0.48267340
C       -2.46753326       0.04497475      -0.30527150
H        2.57500304       0.25821491       1.01483921
H        2.31569217      -1.48207037       0.85669600
H        3.37539965      -0.64287692      -0.27562720
H        1.43174221       0.64354237      -1.17992290
H        1.14499428      -1.08468791      -1.34740508
H       -0.33473685      -1.03259942       0.68407106
H       -0.73692926       1.72572135      -0.45993946
H       -1.05294585       1.05801289       1.64334099
H       -2.68690454      -0.68555457      -1.08677393
H       -3.18460983       0.86278919      -0.38383315
H       -2.58711998      -0.43142955       0.67336481
17
Frame=9 idx=002651 GeodesicLength=0.5041999155068005 rxn_smarts="[C:1]([C:2]([C@@:3]1([H:12])[C:4]([H:13])([H:14])[N:5]1[C:6]([H:15])([H:16])[H:17])([H:10])[H:11])([H:7])([H:8])[H:9]>>[C:1]([C:2]([C@@:3]1([H:12])[C-:4]([H:14])[N+:5]1([C:6]([H:15])([H:16])[H:17])[H:13])([H:10])[H:11])([H:7])([H:8])[H:9]"
C        2.45002043      -0.55345280       0.29486761
C        1.26097986      -0.27849218      -0.61580797
C       -0.01131383      -0.12767323       0.17799131
C       -0.38155628       1.17145786       0.79032948
N       -1.12188526       0.54918071      -0.47424191
C       -2.46811419       0.04407995      -0.30452735
H        2.57415659       0.25828633       1.01459159
H        2.31756692      -1.48227037       0.85543204
H        3.37472287      -0.64052206      -0.27742844
H        1.42831965       0.64323841      -1.17874958
H        1.14435294      -1.08521245      -1.34724332
H       -0.33447923      -1.03716682       0.68644437
H       -0.71936930       1.73719821      -0.46800431
H       -1.05394794       1.06092022       1.64469303
H       -2.68340785      -0.68479765      -1.08868527
H       -3.18692618       0.86050090      -0.38215972
H       -2.58911922      -0.43527503       0.67249843
17
Frame=10 idx=002651 GeodesicLength=0.5601607802217798 rxn_smarts="[C:1]([C:2]([C@@:3]1([H:12])[C:4]([H:13])([H:14])[N:5]1[C:6]([H:15])([H:16])[H:17])([H:10])[H:11])([H:7])([H:8])[H:9]>>[C:1]([C:2]([C@@:3]1([H:12])[C-:4]([H:14])[N+:5]1([C:6]([H:15])([H:16])[H:17])[H:13])([H:10])[H:11])([H:7])([H:8])[H:9]"
C        2.44974191      -0.55305629       0.29411634
C        1.25914717      -0.27934986      -0.61504251
C       -0.01232491      -0.13156969       0.18040119
C       -0.38918187       1.16888519       0.78606075
N       -1.12293404       0.55131594      -0.46597758
C       -2.46867805       0.04311482      -0.30382492
H        2.57327299       0.25835891       1.01432730
H        2.31934280      -1.48245292       0.85416991
H        3.37399258      -0.63821601      -0.27922232
H        1.42490844       0.64294262      -1.17761080
H        1.14367030      -1.08571642      -1.34709461
H       -0.33421580      -1.04162011       0.68881582
H       -0.70163960       1.74856137      -0.47555927
H       -1.05487712       1.06395313       1.64594020
H       -2.67989774      -0.68415377      -1.09056340
H       -3.18926265       0.85809957      -0.38056311
H       -2.59106440      -0.43909648       0.67162701
17
Frame=11 idx=002651 GeodesicLength=0.6161254114519408 rxn_smarts="[C:1]([C:2]([C@@:3]1([H:12])[C:4]([H:13])([H:14])[N:5]1[C:6]([H:15])([H:16])[H:17])([H:10])[H:11])([H:7])([H:8])[H:9]>>[C:1]([C:2]([C@@:3]1([H:12])[C-:4]([H:14])[N+:5]1([C:6]([H:15])([H:16])[H:17])[H:13])([H:10])[H:11])([H:7])([H:8])[H:9]"
C        2.44941481      -0.55265475       0.29335574
C        1.25728333      -0.28019126      -0.61430122
C       -0.01337678      -0.13537857       0.18275427
C       -0.39674122       1.16636075       0.78179245
N       -1.12402077       0.55340211      -0.45788141
C       -2.46923114       0.04208261      -0.30316505
H        2.57235621       0.25844984       1.01403577
H        2.32103184      -1.48260603       0.85292283
H        3.37321252      -0.63595130      -0.28101185
H        1.42149992       0.64264177      -1.17651728
H        1.14294919      -1.08621772      -1.34695254
H       -0.33394857      -1.04597254       0.69118551
H       -0.68371584       1.75984942      -0.48258872
H       -1.05574372       1.06710509       1.64707815
H       -2.67639085      -0.68361089      -1.09241647
H       -3.19161742       0.85559649      -0.37903491
H       -2.59296150      -0.44290501       0.67074473
17
Frame=12 idx=002651 GeodesicLength=0.6720903230904895 rxn_smarts="[C:1]([C:2]([C@@:3]1([H:12])[C:4]([H:13])([H:14])[N:5]1[C:6]([H:15])([H:16])[H:17])([H:10])[H:11])([H:7])([H:8])[H:9]>>[C:1]([C:2]([C@@:3]1([H:12])[C-:4]([H:14])[N+:5]1([C:6]([H:15])([H:16])[H:17])[H:13])([H:10])[H:11])([H:7])([H:8])[H:9]"
C        2.44904064      -0.55225016       0.29258327
C        1.25538702      -0.28101946      -0.61358056
C       -0.01446840      -0.13910172       0.18505722
C       -0.40424170       1.16388536       0.77751955
N       -1.12514554       0.55542920      -0.44995260
C       -2.46977459       0.04098196      -0.30254663
H        2.57140167       0.25855041       1.01372174
H        2.32264513      -1.48274045       0.85167392
H        3.37238415      -0.63371456      -0.28280185
H        1.41808980       0.64233131      -1.17546649
H        1.14218877      -1.08671817      -1.34681376
H       -0.33367543      -1.05022246       0.69356359
H       -0.66558005       1.77108648      -0.48908809
H       -1.05656421       1.07038785       1.64809551
H       -2.67288626      -0.68317433      -1.09423979
H       -3.19398998       0.85299067      -0.37757716
H       -2.59481102      -0.44670193       0.66985211
17
Frame=13 idx=002651 GeodesicLength=0.7280530223577578 rxn_smarts="[C:1]([C:2]([C@@:3]1([H:12])[C:4]([H:13])([H:14])[N:5]1[C:6]([H:15])([H:16])[H:17])([H:10])[H:11])([H:7])([H:8])[H:9]>>[C:1]([C:2]([C@@:3]1([H:12])[C-:4]([H:14])[N+:5]1([C:6]([H:15])([H:16])[H:17])[H:13])([H:10])[H:11])([H:7])([H:8])[H:9]"
C        2.44862314      -0.55183737       0.29179990
C        1.25346056      -0.28183859      -0.61288349
C       -0.01559876      -0.14274852       0.18730741
C       -0.41168635       1.16145045       0.77323757
N       -1.12630978       0.55738478      -0.44219566
C       -2.47031623       0.03981494      -0.30196825
H        2.57041176       0.25867190       1.01338099
H        2.32418790      -1.48284729       0.85043357
H        3.37151183      -0.63150243      -0.28459117
H        1.41467688       0.64200727      -1.17446518
H        1.14139466      -1.08722662      -1.34667814
H       -0.33339681      -1.05438070       0.69594693
H       -0.64721379       1.78229815      -0.49504595
H       -1.05734135       1.07379189       1.64898902
H       -2.66940295      -0.68284280      -1.09603153
H       -3.19637979       0.85029158      -0.37618865
H       -2.59662091      -0.45048664       0.66895264
17
Frame=14 idx=002651 GeodesicLength=0.7840115620340082 rxn_smarts="[C:1]([C:2]([C@@:3]1([H:12])[C:4]([H:13])([H:14])[N:5]1[C:6]([H:15])([H:16])[H:17])([H:10])[H:11])([H:7])([H:8])[H:9]>>[C:1]([C:2]([C@@:3]1([H:12])[C-:4]([H:14])[N+:5]1([C:6]([H:15])([H:16])[H:17])[H:13])([H:10])[H:11])([H:7])([H:8])[H:9]"
C        2.44816351      -0.55141050       0.29100510
C        1.25150532      -0.28265395      -0.61221216
C       -0.01676723      -0.14632815       0.18950191
C       -0.41908054       1.15904615       0.76894107
N       -1.12751417       0.55925691      -0.43461316
C       -2.47086069       0.03858428      -0.30142806
H        2.56938418       0.25882660       1.01300536
H        2.32566417      -1.48291435       0.84921062
H        3.37059678      -0.62931210      -0.28637951
H        1.41125752       0.64166200      -1.17351890
H        1.14057377      -1.08775298      -1.34654253
H       -0.33311237      -1.05845586       0.69833055
H       -0.62859635       1.79350676      -0.50044514
H       -1.05808030       1.07730707       1.64975279
H       -2.66595316      -0.68261331      -1.09778839
H       -3.19878401       0.84750808      -0.37486720
H       -2.59839642      -0.45425666       0.66804764
17
Frame=15 idx=002651 GeodesicLength=0.8399711953693195 rxn_smarts="[C:1]([C:2]([C@@:3]1([H:12])[C:4]([H:13])([H:14])[N:5]1[C:6]([H:15])([H:16])[H:17])([H:10])[H:11])([H:7])([H:8])[H:9]>>[C:1]([C:2]([C@@:3]1([H:12])[C-:4]([H:14])[N+:5]1([C:6]([H:15])([H:16])[H:17])[H:13])([H:10])[H:11])([H:7])([H:8])[H:9]"
C        2.44766392      -0.55096334       0.29019664
C        1.24951895      -0.28347216      -0.61156786
C       -0.01797425      -0.14984885       0.19164348
C       -0.42642867       1.15666409       0.76463200
N       -1.12875943       0.56103878      -0.42720260
C       -2.47141266       0.03729070      -0.30092813
H        2.56832602       0.25903589       1.01257544
H        2.32707665      -1.48292470       0.84802233
H        3.36963791      -0.62715034      -0.28817346
H        1.40782418       0.64128688      -1.17263527
H        1.13972517      -1.08830779      -1.34640475
H       -0.33282495      -1.06245750       0.70071420
H       -0.60969650       1.80473960      -0.50526037
H       -1.05878916       1.08092311       1.65038683
H       -2.66254047      -0.68248558      -1.09951402
H       -3.20120163       0.84464579      -0.37361891
H       -2.60014509      -0.45801456       0.66713445
17
Frame=16 idx=002651 GeodesicLength=0.8959289275678813 rxn_smarts="[C:1]([C:2]([C@@:3]1([H:12])[C:4]([H:13])([H:14])[N:5]1[C:6]([H:15])([H:16])[H:17])([H:10])[H:11])([H:7])([H:8])[H:9]>>[C:1]([C:2]([C@@:3]1([H:12])[C-:4]([H:14])[N+:5]1([C:6]([H:15])([H:16])[H:17])[H:13])([H:10])[H:11])([H:7])([H:8])[H:9]"
C        2.44712430      -0.55050206       0.28937705
C        1.24750737      -0.28428842      -0.61095284
C       -0.01921726      -0.15330968       0.19372540
C       -0.43373695       1.15431035       0.76028726
N       -1.13005007       0.56271704      -0.41997585
C       -2.47197877       0.03592965      -0.30046169
H        2.56722119       0.25927064       1.01212219
H        2.32843111      -1.48290368       0.84684096
H        3.36864226      -0.62499350      -0.28996327
H        1.40438675       0.64088949      -1.17181080
H        1.13885800      -1.08888234      -1.34627201
H       -0.33252724      -1.06637955       0.70310274
H       -0.59049964       1.81601794      -0.50949354
H       -1.05947129       1.08465457       1.65087099
H       -2.65918486      -0.68248033      -1.10118536
H       -3.20363815       0.84170074      -0.37244020
H       -2.60186675      -0.46175088       0.66622897
