12
Frame=0 idx=000783 GeodesicLength=0.0 rxn_smarts="[N:1]([C:2](=[O:3])[C@@:4]1([H:9])[C:5]([H:10])([H:11])[N:6]1[H:12])([H:7])[H:8]>>[N:1]([C:2]([O-:3])=[C:4]=[N+:6]([C:5]([H:9])([H:10])[H:11])[H:12])([H:7])[H:8]"
N        2.01486240      -0.11179906       0.05175258
C        0.93350043       0.67670855       0.27735229
O        0.92992453       1.88208897       0.12365471
C       -0.20885443      -0.08494824       0.90142555
C       -1.46896127       0.05108771      -0.42021501
N       -0.68939803      -1.10913591       0.06749798
H        2.86640194       0.31971805      -0.25967266
H        1.91428929      -1.10892109      -0.00268906
H       -1.30707410       0.90099601       0.36392921
H       -1.14047873       0.39656847      -1.39269053
H       -2.53843234      -0.10089123      -0.31216532
H       -1.30577969      -1.71147223       0.60182026
12
Frame=1 idx=000783 GeodesicLength=0.054377872347173235 rxn_smarts="[N:1]([C:2](=[O:3])[C@@:4]1([H:9])[C:5]([H:10])([H:11])[N:6]1[H:12])([H:7])[H:8]>>[N:1]([C:2]([O-:3])=[C:4]=[N+:6]([C:5]([H:9])([H:10])[H:11])[H:12])([H:7])[H:8]"
N        2.01238422      -0.11041685       0.03643567
C        0.93729063       0.67889885       0.28632533
O        0.93901058       1.88693834       0.15474307
C       -0.20951919      -0.08173453       0.89852449
C       -1.46926081       0.04679695      -0.42668165
N       -0.69361557      -1.10812540       0.07484773
H        2.86640080       0.32304070      -0.26520619
H        1.91243323      -1.10804478      -0.00811978
H       -1.30291442       0.90964539       0.36414006
H       -1.14338454       0.37187964      -1.40732577
H       -2.53960049      -0.09890508      -0.31784489
H       -1.30922443      -1.70997324       0.61016194
12
Frame=2 idx=000783 GeodesicLength=0.10880084543016161 rxn_smarts="[N:1]([C:2](=[O:3])[C@@:4]1([H:9])[C:5]([H:10])([H:11])[N:6]1[H:12])([H:7])[H:8]>>[N:1]([C:2]([O-:3])=[C:4]=[N+:6]([C:5]([H:9])([H:10])[H:11])[H:12])([H:7])[H:8]"
N        2.00926498      -0.10871195       0.01936241
C        0.94113219       0.68102244       0.29514811
O        0.94852913       1.89137185       0.18664524
C       -0.21013372      -0.07840571       0.89546189
C       -1.46951748       0.04234533      -0.43329494
N       -0.69800225      -1.10707213       0.08238268
H        2.86682297       0.32658632      -0.26923391
H        1.91058114      -1.10687268      -0.01407009
H       -1.29853714       0.91853828       0.36421910
H       -1.14654172       0.34616773      -1.42197777
H       -2.54071903      -0.09676963      -0.32354161
H       -1.31287906      -1.70819987       0.61889888
12
Frame=3 idx=000783 GeodesicLength=0.163259226362403 rxn_smarts="[N:1]([C:2](=[O:3])[C@@:4]1([H:9])[C:5]([H:10])([H:11])[N:6]1[H:12])([H:7])[H:8]>>[N:1]([C:2]([O-:3])=[C:4]=[N+:6]([C:5]([H:9])([H:10])[H:11])[H:12])([H:7])[H:8]"
N        2.00544047      -0.10659593       0.00029141
C        0.94503614       0.68307572       0.30369780
O        0.95849151       1.89532536       0.21919192
C       -0.21066107      -0.07496396       0.89217571
C       -1.46978264       0.03773371      -0.44002645
N       -0.70255064      -1.10595955       0.09004679
H        2.86780423       0.33020950      -0.27124135
H        1.90878605      -1.10529903      -0.02058272
H       -1.29393272       0.92768235       0.36419368
H       -1.15011417       0.31944329      -1.43659772
H       -2.54182603      -0.09448845      -0.32914455
H       -1.31669113      -1.70616300       0.62799549
12
Frame=4 idx=000783 GeodesicLength=0.2177179304443868 rxn_smarts="[N:1]([C:2](=[O:3])[C@@:4]1([H:9])[C:5]([H:10])([H:11])[N:6]1[H:12])([H:7])[H:8]>>[N:1]([C:2]([O-:3])=[C:4]=[N+:6]([C:5]([H:9])([H:10])[H:11])[H:12])([H:7])[H:8]"
N        2.00096142      -0.10396356      -0.02037779
C        0.94901564       0.68505705       0.31210076
O        0.96890446       1.89873276       0.25242091
C       -0.21113498      -0.07140837       0.88870821
C       -1.47001038       0.03296614      -0.44690640
N       -0.70720339      -1.10476092       0.09781733
H        2.86902484       0.33366992      -0.27176181
H        1.90708287      -1.10315890      -0.02753471
H       -1.28910150       0.93708082       0.36405588
H       -1.15405433       0.29173957      -1.45115143
H       -2.54287147      -0.09207572      -0.33473590
H       -1.32061318      -1.70387877       0.63736495
12
Frame=5 idx=000783 GeodesicLength=0.27216132978616775 rxn_smarts="[N:1]([C:2](=[O:3])[C@@:4]1([H:9])[C:5]([H:10])([H:11])[N:6]1[H:12])([H:7])[H:8]>>[N:1]([C:2]([O-:3])=[C:4]=[N+:6]([C:5]([H:9])([H:10])[H:11])[H:12])([H:7])[H:8]"
N        1.99607537      -0.10075987      -0.04148186
C        0.95307120       0.68696482       0.32054266
O        0.97975974       1.90153447       0.28635696
C       -0.21163415      -0.06769884       0.88513681
C       -1.47012927       0.02803538      -0.45397976
N       -0.71189715      -1.10344550       0.10569137
H        2.87005353       0.33679622      -0.27174732
H        1.90539920      -1.10032146      -0.03514540
H       -1.28404106       0.94676816       0.36376044
H       -1.15825891       0.26303025      -1.46561941
H       -2.54378309      -0.08954683      -0.34043128
H       -1.32461540      -1.70135680       0.64691679
12
Frame=6 idx=000783 GeodesicLength=0.32654314642199084 rxn_smarts="[N:1]([C:2](=[O:3])[C@@:4]1([H:9])[C:5]([H:10])([H:11])[N:6]1[H:12])([H:7])[H:8]>>[N:1]([C:2]([O-:3])=[C:4]=[N+:6]([C:5]([H:9])([H:10])[H:11])[H:12])([H:7])[H:8]"
N        1.99116006      -0.09706916      -0.06124412
C        0.95721083       0.68875635       0.32963005
O        0.99105308       1.90364045       0.32140698
C       -0.21235298      -0.06384588       0.88170529
C       -1.46993419       0.02296472      -0.46138714
N       -0.71656915      -1.10198559       0.11371069
H        2.86995506       0.33976679      -0.27392865
H        1.90368726      -1.09687180      -0.04292795
H       -1.27877485       0.95676128       0.36323982
H       -1.16226663       0.23339118      -1.48000192
H       -2.54438741      -0.08688860      -0.34668171
H       -1.32878108      -1.69861974       0.65647866
12
Frame=7 idx=000783 GeodesicLength=0.38083979253870176 rxn_smarts="[N:1]([C:2](=[O:3])[C@@:4]1([H:9])[C:5]([H:10])([H:11])[N:6]1[H:12])([H:7])[H:8]>>[N:1]([C:2]([O-:3])=[C:4]=[N+:6]([C:5]([H:9])([H:10])[H:11])[H:12])([H:7])[H:8]"
N        1.98635365      -0.09299088      -0.07933344
C        0.96141270       0.69039649       0.33917090
O        1.00272469       1.90497447       0.35723517
C       -0.21325913      -0.05984766       0.87831340
C       -1.46951543       0.01777369      -0.46908729
N       -0.72123892      -1.10035365       0.12176182
H        2.86902262       0.34280325      -0.27794708
H        1.90192992      -1.09294703      -0.05105906
H       -1.27328166       0.96708195       0.36253535
H       -1.16633913       0.20285308      -1.49425417
H       -2.54474796      -0.08406219      -0.35329664
H       -1.33306136      -1.69568152       0.66596104
12
Frame=8 idx=000783 GeodesicLength=0.43505498733859266 rxn_smarts="[N:1]([C:2](=[O:3])[C@@:4]1([H:9])[C:5]([H:10])([H:11])[N:6]1[H:12])([H:7])[H:8]>>[N:1]([C:2]([O-:3])=[C:4]=[N+:6]([C:5]([H:9])([H:10])[H:11])[H:12])([H:7])[H:8]"
N        1.98163425      -0.08857552      -0.09592266
C        0.96568048       0.69186883       0.34923401
O        1.01477496       1.90549322       0.39389277
C       -0.21435791      -0.05570687       0.87498423
C       -1.46883405       0.01245031      -0.47709867
N       -0.72593714      -1.09854947       0.12989226
H        2.86726913       0.34611342      -0.28382796
H        1.90007565      -1.08864540      -0.05951451
H       -1.26754979       0.97773296       0.36164192
H       -1.17041381       0.17137859      -1.50833656
H       -2.54482907      -0.08105596      -0.36036316
H       -1.33751271      -1.69250409       0.67541833
12
Frame=9 idx=000783 GeodesicLength=0.489169714236972 rxn_smarts="[N:1]([C:2](=[O:3])[C@@:4]1([H:9])[C:5]([H:10])([H:11])[N:6]1[H:12])([H:7])[H:8]>>[N:1]([C:2]([O-:3])=[C:4]=[N+:6]([C:5]([H:9])([H:10])[H:11])[H:12])([H:7])[H:8]"
N        1.97711859      -0.08383206      -0.11132781
C        0.97000284       0.69320013       0.35926490
O        1.02712521       1.90521107       0.43068980
C       -0.21550588      -0.05141684       0.87145903
C       -1.46814176       0.00701758      -0.48530347
N       -0.73066356      -1.09654624       0.13789268
H        2.86540940       0.34961575      -0.28983368
H        1.89814433      -1.08401110      -0.06867501
H       -1.26158856       0.98872822       0.36066414
H       -1.17511750       0.13907157      -1.52217340
H       -2.54483989      -0.07787895      -0.36741629
H       -1.34194323      -1.68915913       0.68475911
12
Frame=10 idx=000783 GeodesicLength=0.5431950054604842 rxn_smarts="[N:1]([C:2](=[O:3])[C@@:4]1([H:9])[C:5]([H:10])([H:11])[N:6]1[H:12])([H:7])[H:8]>>[N:1]([C:2]([O-:3])=[C:4]=[N+:6]([C:5]([H:9])([H:10])[H:11])[H:12])([H:7])[H:8]"
N        1.97276693      -0.07875135      -0.12580788
C        0.97438271       0.69439774       0.36931317
O        1.03976008       1.90412125       0.46768999
C       -0.21670694      -0.04697928       0.86774924
C       -1.46740619       0.00145891      -0.49372120
N       -0.73543201      -1.09435225       0.14580147
H        2.86347066       0.35335884      -0.29590345
H        1.89611387      -1.07907063      -0.07850934
H       -1.25539873       1.00006694       0.35960394
H       -1.18040721       0.10589260      -1.53572862
H       -2.54475213      -0.07451966      -0.37452401
H       -1.34639103      -1.68562311       0.69403670
12
Frame=11 idx=000783 GeodesicLength=0.5971537613176533 rxn_smarts="[N:1]([C:2](=[O:3])[C@@:4]1([H:9])[C:5]([H:10])([H:11])[N:6]1[H:12])([H:7])[H:8]>>[N:1]([C:2]([O-:3])=[C:4]=[N+:6]([C:5]([H:9])([H:10])[H:11])[H:12])([H:7])[H:8]"
N        1.96853760      -0.07330892      -0.13956125
C        0.97882200       0.69546945       0.37939361
O        1.05267431       1.90220014       0.50499598
C       -0.21795096      -0.04238190       0.86384865
C       -1.46660170      -0.00425534      -0.50237284
N       -0.74025557      -1.09197187       0.15365834
H        2.86150004       0.35737236      -0.30190148
H        1.89393705      -1.07380557      -0.08910416
H       -1.24895153       1.01175803       0.35842858
H       -1.18628429       0.07172648      -1.54897254
H       -2.54453683      -0.07094971      -0.38172790
H       -1.35089010      -1.68185315       0.70331501
12
Frame=12 idx=000783 GeodesicLength=0.6510556931196146 rxn_smarts="[N:1]([C:2](=[O:3])[C@@:4]1([H:9])[C:5]([H:10])([H:11])[N:6]1[H:12])([H:7])[H:8]>>[N:1]([C:2]([O-:3])=[C:4]=[N+:6]([C:5]([H:9])([H:10])[H:11])[H:12])([H:7])[H:8]"
N        1.96435136      -0.06747617      -0.15275122
C        0.98332681       0.69640318       0.38961978
O        1.06586537       1.89940111       0.54273689
C       -0.21925034      -0.03761706       0.85979719
C       -1.46565429      -0.01015557      -0.51129034
N       -0.74514784      -1.08940507       0.16153239
H        2.85942976       0.36170440      -0.30792513
H        1.89156566      -1.06819404      -0.10048744
H       -1.24222119       1.02380109       0.35711680
H       -1.19264438       0.03648509      -1.56185777
H       -2.54411904      -0.06715532      -0.38915369
H       -1.35550189      -1.67779164       0.71266254
12
Frame=13 idx=000783 GeodesicLength=0.7048753248829749 rxn_smarts="[N:1]([C:2](=[O:3])[C@@:4]1([H:9])[C:5]([H:10])([H:11])[N:6]1[H:12])([H:7])[H:8]>>[N:1]([C:2]([O-:3])=[C:4]=[N+:6]([C:5]([H:9])([H:10])[H:11])[H:12])([H:7])[H:8]"
N        1.96034298      -0.06126638      -0.16537081
C        0.98788471       0.69722299       0.39972705
O        1.07925119       1.89573996       0.58053371
C       -0.22054204      -0.03269034       0.85545189
C       -1.46470058      -0.01622051      -0.52042827
N       -0.75007780      -1.08662809       0.16926495
H        2.85755875       0.36624841      -0.31334143
H        1.88904198      -1.06225045      -0.11265127
H       -1.23523517       1.03619429       0.35575037
H       -1.19984462       0.00030396      -1.57431339
H       -2.54360394      -0.06314590      -0.39657877
H       -1.36007546      -1.67350792       0.72195595
12
Frame=14 idx=000783 GeodesicLength=0.7586360962759786 rxn_smarts="[N:1]([C:2](=[O:3])[C@@:4]1([H:9])[C:5]([H:10])([H:11])[N:6]1[H:12])([H:7])[H:8]>>[N:1]([C:2]([O-:3])=[C:4]=[N+:6]([C:5]([H:9])([H:10])[H:11])[H:12])([H:7])[H:8]"
N        1.95643956      -0.05464387      -0.17754227
C        0.99250797       0.69791669       0.40987377
O        1.09283491       1.89118166       0.61856885
C       -0.22185505      -0.02759231       0.85087394
C       -1.46364967      -0.02249183      -0.52983000
N       -0.75506619      -1.08365322       0.17695044
H        2.85579292       0.37105447      -0.31836368
H        1.88631233      -1.05594435      -0.12565226
H       -1.22797242       1.04894525       0.35429482
H       -1.20772927      -0.03692502      -1.58628849
H       -2.54290899      -0.05890131      -0.40416870
H       -1.36470610      -1.66894617       0.73128359
12
Frame=15 idx=000783 GeodesicLength=0.8123641215337473 rxn_smarts="[N:1]([C:2](=[O:3])[C@@:4]1([H:9])[C:5]([H:10])([H:11])[N:6]1[H:12])([H:7])[H:8]>>[N:1]([C:2]([O-:3])=[C:4]=[N+:6]([C:5]([H:9])([H:10])[H:11])[H:12])([H:7])[H:8]"
N        1.95256619      -0.04754362      -0.18939762
C        0.99720753       0.69846893       0.42018605
O        1.10662569       1.88566631       0.65705041
C       -0.22320575      -0.02230488       0.84611042
C       -1.46240836      -0.02902841      -0.53953944
N       -0.76013626      -1.08048778       0.18469840
H        2.85407832       0.37616176      -0.32305750
H        1.88326716      -1.04920569      -0.13969871
H       -1.22038706       1.06206725       0.35267943
H       -1.21617501      -0.07538115      -1.59772689
H       -2.54194143      -0.05438975      -0.41207086
H       -1.36949103      -1.66402298       0.74076628
12
Frame=16 idx=000783 GeodesicLength=0.8660863083014315 rxn_smarts="[N:1]([C:2](=[O:3])[C@@:4]1([H:9])[C:5]([H:10])([H:11])[N:6]1[H:12])([H:7])[H:8]>>[N:1]([C:2]([O-:3])=[C:4]=[N+:6]([C:5]([H:9])([H:10])[H:11])[H:12])([H:7])[H:8]"
N        1.94859785      -0.03987679      -0.20108130
C        1.00200621       0.69883364       0.43088809
O        1.12064410       1.87910130       0.69624639
C       -0.22462742      -0.01681145       0.84125754
C       -1.46082515      -0.03590884      -0.54961149
N       -0.76532733      -1.07714257       0.19267566
H        2.85228332       0.38165038      -0.32762227
H        1.87975177      -1.04193979      -0.15506490
H       -1.21241332       1.07557308       0.35081337
H       -1.22494406      -0.11528127      -1.60855052
H       -2.54055647      -0.04957632      -0.42052016
H       -1.37458950      -1.65862137       0.75056958
