13
Frame=0 idx=007486 GeodesicLength=0.0 rxn_smarts="[C:1]([O:2][c:3]1[c:4]([H:11])[n:5][c:6]([H:12])[n:7]1[H:13])([H:8])([H:9])[H:10]>>[C:1]([O:2][C:3]1=[C:4]([H:11])[N:5]([H:12])[C:6][N:7]1[H:13])([H:8])([H:9])[H:10]"
C       -2.12861685       0.02745099      -0.18045811
O       -1.08599637      -0.75457798       0.38147297
C        0.14076505      -0.26916051       0.21162222
C        0.64475482       0.83903892      -0.39668585
N        2.00548764       0.87548217      -0.13402704
C        2.36149642      -0.24731938       0.59553807
N        1.19284920      -0.94597746       0.75313462
H       -2.14390016       1.02424640       0.26754691
H       -3.05700245      -0.49156782       0.04335130
H       -2.00512738       0.11198912      -1.26329827
H        0.14195198       1.61304929      -0.95071180
H        2.82329136       0.03352179      -0.57613165
H        1.11004672      -1.81617554       1.24864668
13
Frame=1 idx=007486 GeodesicLength=0.033055784837075115 rxn_smarts="[C:1]([O:2][c:3]1[c:4]([H:11])[n:5][c:6]([H:12])[n:7]1[H:13])([H:8])([H:9])[H:10]>>[C:1]([O:2][C:3]1=[C:4]([H:11])[N:5]([H:12])[C:6][N:7]1[H:13])([H:8])([H:9])[H:10]"
C       -2.13108587       0.02952950      -0.17638958
O       -1.08915769      -0.75413144       0.38386991
C        0.13890919      -0.27368078       0.20502151
C        0.64427167       0.83154027      -0.40727609
N        2.00180540       0.87539182      -0.12899777
C        2.35559465      -0.24066877       0.60371208
N        1.19157559      -0.94903428       0.74840762
H       -2.14065172       1.02840856       0.26734452
H       -3.06060536      -0.48467833       0.05388006
H       -2.01233391       0.10921250      -1.26021554
H        0.14252964       1.60496776      -0.96301039
H        2.84810591       0.04737309      -0.56156356
H        1.11104250      -1.82422989       1.23521722
13
Frame=2 idx=007486 GeodesicLength=0.06608949528340288 rxn_smarts="[C:1]([O:2][c:3]1[c:4]([H:11])[n:5][c:6]([H:12])[n:7]1[H:13])([H:8])([H:9])[H:10]>>[C:1]([O:2][C:3]1=[C:4]([H:11])[N:5]([H:12])[C:6][N:7]1[H:13])([H:8])([H:9])[H:10]"
C       -2.13345015       0.03149361      -0.17257560
O       -1.09230457      -0.75347182       0.38663555
C        0.13694882      -0.27765662       0.19943579
C        0.64375645       0.82448208      -0.41695101
N        1.99823317       0.87487672      -0.12457340
C        2.34982153      -0.23478219       0.61075969
N        1.19034585      -0.95212682       0.74370020
H       -2.13779319       1.03246993       0.26672766
H       -3.06403984      -0.47808752       0.06372835
H       -2.01893400       0.10623984      -1.25729741
H        0.14308744       1.59727670      -0.97446880
H        2.87227828       0.06115210      -0.54753537
H        1.11205019      -1.83186601       1.22241435
13
Frame=3 idx=007486 GeodesicLength=0.09909162541063316 rxn_smarts="[C:1]([O:2][c:3]1[c:4]([H:11])[n:5][c:6]([H:12])[n:7]1[H:13])([H:8])([H:9])[H:10]>>[C:1]([O:2][C:3]1=[C:4]([H:11])[N:5]([H:12])[C:6][N:7]1[H:13])([H:8])([H:9])[H:10]"
C       -2.13571267       0.03328007      -0.16910062
O       -1.09542219      -0.75262087       0.38971363
C        0.13489222      -0.28096714       0.19501356
C        0.64318518       0.81803253      -0.42549135
N        1.99489326       0.87384838      -0.12090444
C        2.34431287      -0.22978439       0.61647949
N        1.18915424      -0.95517626       0.73912760
H       -2.13545783       1.03632660       0.26571642
H       -3.06729933      -0.47196855       0.07266200
H       -2.02482162       0.10311892      -1.25461413
H        0.14359276       1.59022499      -0.98474565
H        2.89570770       0.07458476      -0.53444067
H        1.11297542      -1.83889904       1.21058417
13
Frame=4 idx=007486 GeodesicLength=0.13208834161865107 rxn_smarts="[C:1]([O:2][c:3]1[c:4]([H:11])[n:5][c:6]([H:12])[n:7]1[H:13])([H:8])([H:9])[H:10]>>[C:1]([O:2][C:3]1=[C:4]([H:11])[N:5]([H:12])[C:6][N:7]1[H:13])([H:8])([H:9])[H:10]"
C       -2.13787772       0.03479281      -0.16609986
O       -1.09851195      -0.75152461       0.39317445
C        0.13272774      -0.28335577       0.19212189
C        0.64251922       0.81246760      -0.43251051
N        1.99196216       0.87219112      -0.11817362
C        2.33926972      -0.22588082       0.62055249
N        1.18799597      -0.95809210       0.73482843
H       -2.13388997       1.03987776       0.26420785
H       -3.07037730      -0.46657146       0.08033036
H       -2.02977269       0.09979070      -1.25228287
H        0.14400570       1.58417007      -0.99333936
H        2.91824096       0.08727509      -0.52290548
H        1.11370818      -1.84514038       1.20009621
13
Frame=5 idx=007486 GeodesicLength=0.16483109212770397 rxn_smarts="[C:1]([O:2][c:3]1[c:4]([H:11])[n:5][c:6]([H:12])[n:7]1[H:13])([H:8])([H:9])[H:10]>>[C:1]([O:2][C:3]1=[C:4]([H:11])[N:5]([H:12])[C:6][N:7]1[H:13])([H:8])([H:9])[H:10]"
C       -2.13994351       0.03588801      -0.16378651
O       -1.10158707      -0.74995346       0.39736468
C        0.13042555      -0.28429408       0.19155015
C        0.64169990       0.80826098      -0.43731153
N        1.98969465       0.86973499      -0.11662518
C        2.33498691      -0.22341441       0.62246937
N        1.18686501      -0.96073313       0.73103133
H       -2.13352819       1.04305418       0.26184124
H       -3.07325755      -0.46225515       0.08620718
H       -2.03334768       0.09596166      -1.25049005
H        0.14429267       1.57959339      -0.99956343
H        2.93953232       0.09863228      -0.51384841
H        1.11416700      -1.85047525       1.19116115
13
Frame=6 idx=007486 GeodesicLength=0.19762838439150093 rxn_smarts="[C:1]([O:2][c:3]1[c:4]([H:11])[n:5][c:6]([H:12])[n:7]1[H:13])([H:8])([H:9])[H:10]>>[C:1]([O:2][C:3]1=[C:4]([H:11])[N:5]([H:12])[C:6][N:7]1[H:13])([H:8])([H:9])[H:10]"
C       -2.14198939       0.03684577      -0.16168434
O       -1.10465173      -0.74834024       0.40159299
C        0.12806971      -0.28482794       0.19160957
C        0.64081223       0.80445005      -0.44146406
N        1.98768156       0.86686424      -0.11574149
C        2.33097062      -0.22152139       0.62351194
N        1.18571211      -0.96326902       0.72741879
H       -2.13352496       1.04601622       0.25937893
H       -3.07607317      -0.45831976       0.09146979
H       -2.03655192       0.09216168      -1.24883981
H        0.14449671       1.57554305      -1.00493985
H        2.96060374       0.10974140      -0.50532842
H        1.11444449      -1.85534406       1.18301597
13
Frame=7 idx=007486 GeodesicLength=0.23043302313240244 rxn_smarts="[C:1]([O:2][c:3]1[c:4]([H:11])[n:5][c:6]([H:12])[n:7]1[H:13])([H:8])([H:9])[H:10]>>[C:1]([O:2][C:3]1=[C:4]([H:11])[N:5]([H:12])[C:6][N:7]1[H:13])([H:8])([H:9])[H:10]"
C       -2.14404649       0.03777357      -0.15961819
O       -1.10770953      -0.74678661       0.40570953
C        0.12569956      -0.28530793       0.19174949
C        0.63989429       0.80069047      -0.44551833
N        1.98577374       0.86371386      -0.11533839
C        2.32704114      -0.21991209       0.62411975
N        1.18452089      -0.96576658       0.72388447
H       -2.13359390       1.04887229       0.25701255
H       -3.07888228      -0.45448453       0.09657019
H       -2.03972808       0.08849354      -1.24719732
H        0.14464768       1.57165269      -1.01005005
H        2.98176515       0.12104964      -0.49657551
H        1.11461782      -1.85998831       1.17525181
13
Frame=8 idx=007486 GeodesicLength=0.2632504711812395 rxn_smarts="[C:1]([O:2][c:3]1[c:4]([H:11])[n:5][c:6]([H:12])[n:7]1[H:13])([H:8])([H:9])[H:10]>>[C:1]([O:2][C:3]1=[C:4]([H:11])[N:5]([H:12])[C:6][N:7]1[H:13])([H:8])([H:9])[H:10]"
C       -2.14613256       0.03886525      -0.15729928
O       -1.11075287      -0.74552644       0.40936781
C        0.12335642      -0.28641094       0.19097695
C        0.63899651       0.79637376      -0.45036514
N        1.98368764       0.86050602      -0.11507925
C        2.32288182      -0.21814414       0.62493757
N        1.18329607      -0.96841921       0.72009437
H       -2.13318810       1.05176103       0.25513363
H       -3.08172440      -0.45025205       0.10224624
H       -2.04345975       0.08524406      -1.24532233
H        0.14478418       1.56725489      -1.01585459
H        3.00348515       0.13339906      -0.48629301
H        1.11476988      -1.86465128       1.16745703
13
Frame=9 idx=007486 GeodesicLength=0.2960122081772295 rxn_smarts="[C:1]([O:2][c:3]1[c:4]([H:11])[n:5][c:6]([H:12])[n:7]1[H:13])([H:8])([H:9])[H:10]>>[C:1]([O:2][C:3]1=[C:4]([H:11])[N:5]([H:12])[C:6][N:7]1[H:13])([H:8])([H:9])[H:10]"
C       -2.14821272       0.03982860      -0.15516888
O       -1.11379103      -0.74414703       0.41314971
C        0.12096935      -0.28704704       0.19086411
C        0.63802328       0.79245007      -0.45459031
N        1.98187846       0.85684839      -0.11552824
C        2.31899389      -0.21691489       0.62493817
N        1.18203592      -0.97094000       0.71651924
H       -2.13315929       1.05447071       0.25310722
H       -3.08451913      -0.44638303       0.10735860
H       -2.04683815       0.08194250      -1.24356490
H        0.14483833       1.56332496      -1.02090870
H        3.02501272       0.14554617      -0.47637274
H        1.11476839      -1.86897940       1.16019673
13
Frame=10 idx=007486 GeodesicLength=0.3287919049970118 rxn_smarts="[C:1]([O:2][c:3]1[c:4]([H:11])[n:5][c:6]([H:12])[n:7]1[H:13])([H:8])([H:9])[H:10]>>[C:1]([O:2][C:3]1=[C:4]([H:11])[N:5]([H:12])[C:6][N:7]1[H:13])([H:8])([H:9])[H:10]"
C       -2.15031144       0.04077059      -0.15306438
O       -1.11685355      -0.74268089       0.41707378
C        0.11853950      -0.28752260       0.19102572
C        0.63700493       0.78863199      -0.45862239
N        1.98019845       0.85290377      -0.11643411
C        2.31522200      -0.21602823       0.62444592
N        1.18074201      -0.97349120       0.71292481
H       -2.13327480       1.05717071       0.25099471
H       -3.08731806      -0.44258794       0.11234840
H       -2.05011644       0.07857005      -1.24181579
H        0.14486475       1.55948019      -1.02581839
H        3.04664059       0.15803399      -0.46611556
H        1.11466207      -1.87325044       1.15305728
13
Frame=11 idx=007486 GeodesicLength=0.36157492997772256 rxn_smarts="[C:1]([O:2][c:3]1[c:4]([H:11])[n:5][c:6]([H:12])[n:7]1[H:13])([H:8])([H:9])[H:10]>>[C:1]([O:2][C:3]1=[C:4]([H:11])[N:5]([H:12])[C:6][N:7]1[H:13])([H:8])([H:9])[H:10]"
C       -2.15244175       0.04182493      -0.15078145
O       -1.11992370      -0.74130837       0.42084547
C        0.11610803      -0.28829631       0.19073712
C        0.63598535       0.78447737      -0.46312792
N        1.97846193       0.84878032      -0.11765491
C        2.31133917      -0.21515215       0.62393329
N        1.17940631      -0.97613500       0.70920141
H       -2.13314056       1.05993678       0.24910325
H       -3.09014943      -0.43852229       0.11773359
H       -2.05372334       0.07535645      -1.23989563
H        0.14488315       1.55527369      -1.03122775
H        3.06864670       0.17140768      -0.45455953
H        1.11454813      -1.87764310       1.14569308
13
Frame=12 idx=007486 GeodesicLength=0.39436620747806117 rxn_smarts="[C:1]([O:2][c:3]1[c:4]([H:11])[n:5][c:6]([H:12])[n:7]1[H:13])([H:8])([H:9])[H:10]>>[C:1]([O:2][C:3]1=[C:4]([H:11])[N:5]([H:12])[C:6][N:7]1[H:13])([H:8])([H:9])[H:10]"
C       -2.15461026       0.04311429      -0.14814001
O       -1.12298769      -0.74020632       0.42419972
C        0.11370362      -0.28978295       0.18936646
C        0.63500382       0.77960873      -0.46867153
N        1.97651404       0.84456522      -0.11908041
C        2.30715304      -0.21402494       0.62377427
N        1.17803503      -0.97895189       0.70523254
H       -2.13240744       1.06284080       0.24772010
H       -3.09303105      -0.43388184       0.12396151
H       -2.05802810       0.07252933      -1.23765247
H        0.14491948       1.55030056      -1.03772897
H        3.09121856       0.18619176      -0.44084204
H        1.11451694      -1.88230273       1.13786083
13
Frame=13 idx=007486 GeodesicLength=0.4271595311504405 rxn_smarts="[C:1]([O:2][c:3]1[c:4]([H:11])[n:5][c:6]([H:12])[n:7]1[H:13])([H:8])([H:9])[H:10]>>[C:1]([O:2][C:3]1=[C:4]([H:11])[N:5]([H:12])[C:6][N:7]1[H:13])([H:8])([H:9])[H:10]"
C       -2.15679468       0.04448140      -0.14538522
O       -1.12606028      -0.73912279       0.42752173
C        0.11128076      -0.29140841       0.18780948
C        0.63400436       0.77453414      -0.47446674
N        1.97459706       0.84005773      -0.12097853
C        2.30294813      -0.21307062       0.62335086
N        1.17662924      -0.98185455       0.70116734
H       -2.13154204       1.06579961       0.24643126
H       -3.09591966      -0.42905756       0.13042595
H       -2.06251059       0.06977242      -1.23529032
H        0.14493758       1.54509941      -1.04450848
H        3.11397236       0.20180638      -0.42598537
H        1.11445776      -1.88703716       1.12990803
13
Frame=14 idx=007486 GeodesicLength=0.4599351156648714 rxn_smarts="[C:1]([O:2][c:3]1[c:4]([H:11])[n:5][c:6]([H:12])[n:7]1[H:13])([H:8])([H:9])[H:10]>>[C:1]([O:2][C:3]1=[C:4]([H:11])[N:5]([H:12])[C:6][N:7]1[H:13])([H:8])([H:9])[H:10]"
C       -2.15898612       0.04570672      -0.14284039
O       -1.12917399      -0.73767236       0.43139024
C        0.10877643      -0.29235947       0.18730136
C        0.63290824       0.76995246      -0.47946500
N        1.97303810       0.83502036      -0.12365814
C        2.29910896      -0.21281975       0.62191040
N        1.17517653      -0.98470917       0.69721334
H       -2.13120604       1.06871955       0.24462963
H       -3.09878569      -0.42458187       0.13633977
H       -2.06647812       0.06658165      -1.23308024
H        0.14489271       1.54039745      -1.05050411
H        3.13651652       0.21741779      -0.41138493
H        1.11421248      -1.89165338       1.12214809
13
Frame=15 idx=007486 GeodesicLength=0.49270026319874344 rxn_smarts="[C:1]([O:2][c:3]1[c:4]([H:11])[n:5][c:6]([H:12])[n:7]1[H:13])([H:8])([H:9])[H:10]>>[C:1]([O:2][C:3]1=[C:4]([H:11])[N:5]([H:12])[C:6][N:7]1[H:13])([H:8])([H:9])[H:10]"
C       -2.16119554       0.04697685      -0.14022427
O       -1.13229922      -0.73614559       0.43535516
C        0.10624785      -0.29329100       0.18682900
C        0.63177662       0.76527409      -0.48456143
N        1.97159120       0.82958315      -0.12696130
C        2.29533144      -0.21285293       0.62004460
N        1.17368057      -0.98762899       0.69319214
H       -2.13085460       1.07168988       0.24280192
H       -3.10165709      -0.42000197       0.14238335
H       -2.07051275       0.06334697      -1.23078118
H        0.14481514       1.53558851      -1.05660804
H        3.15917466       0.23379919      -0.39573311
H        1.11390171      -1.89633815       1.11426317
13
Frame=16 idx=007486 GeodesicLength=0.5254510806916668 rxn_smarts="[C:1]([O:2][c:3]1[c:4]([H:11])[n:5][c:6]([H:12])[n:7]1[H:13])([H:8])([H:9])[H:10]>>[C:1]([O:2][C:3]1=[C:4]([H:11])[N:5]([H:12])[C:6][N:7]1[H:13])([H:8])([H:9])[H:10]"
C       -2.16341938       0.04816235      -0.13772285
O       -1.13545057      -0.73434572       0.43970844
C        0.10366726      -0.29376452       0.18705389
C        0.63056535       0.76089050      -0.48918167
N        1.97045113       0.82358930      -0.13110282
C        2.29184110      -0.21348291       0.61730355
N        1.17213337      -0.99055917       0.68918492
H       -2.13085764       1.07464039       0.24063915
H       -3.10451954      -0.41563532       0.14809989
H       -2.07423048       0.05981493      -1.22855135
H        0.14467070       1.53112805      -1.06216810
H        3.18174854       0.25049516      -0.37980671
H        1.11340016      -1.90093304       1.10654367
