13
Frame=0 idx=001148 GeodesicLength=0.0 rxn_smarts="[C:1]([C:2]([C:3]([H:10])([H:11])[H:12])([C:4](=[O:5])[H:13])[H:9])([H:6])([H:7])[H:8]>>[C:1]1([H:6])([H:8])[C@@:2]([C:3]([H:10])([H:11])[H:12])([H:9])[C@@:4]1([O:5][H:7])[H:13]"
C       -1.37010046       0.30242298       0.18078642
C       -0.08215712       0.11146471      -0.51588430
C        0.51412503      -1.29610878      -0.44058517
C        0.77816966       1.09338447       0.18713911
O        0.77174444       1.25922896       1.47100660
H       -1.79312809      -0.53233696       0.72824374
H       -0.06633413       0.77679124       1.73530003
H       -2.05324922       1.04639941      -0.20197568
H       -0.10206884       0.43364271      -1.56540011
H        1.50652196      -1.35781017      -0.89282262
H       -0.15908699      -1.97812034      -0.96251011
H        0.58480593      -1.62221707       0.59974621
H        1.47075779       1.76325882      -0.32304409
13
Frame=1 idx=001148 GeodesicLength=0.10629311022770563 rxn_smarts="[C:1]([C:2]([C:3]([H:10])([H:11])[H:12])([C:4](=[O:5])[H:13])[H:9])([H:6])([H:7])[H:8]>>[C:1]1([H:6])([H:8])[C@@:2]([C:3]([H:10])([H:11])[H:12])([H:9])[C@@:4]1([O:5][H:7])[H:13]"
C       -1.35150759       0.32014704       0.18941671
C       -0.07455925       0.10306487      -0.52451682
C        0.51620997      -1.30425229      -0.43744987
C        0.77426749       1.09076618       0.18508728
O        0.79514564       1.22342297       1.47329721
H       -1.79372858      -0.51793391       0.71639459
H       -0.08455913       0.76510249       1.73513624
H       -2.02840772       1.06935156      -0.19570968
H       -0.09937059       0.42221480      -1.57409168
H        1.51110157      -1.36914003      -0.88346692
H       -0.15697715      -1.98807156      -0.95711683
H        0.58340998      -1.62678075       0.60409681
H        1.40897536       1.81210862      -0.33107705
13
Frame=2 idx=001148 GeodesicLength=0.21236554884741676 rxn_smarts="[C:1]([C:2]([C:3]([H:10])([H:11])[H:12])([C:4](=[O:5])[H:13])[H:9])([H:6])([H:7])[H:8]>>[C:1]1([H:6])([H:8])[C@@:2]([C:3]([H:10])([H:11])[H:12])([H:9])[C@@:4]1([O:5][H:7])[H:13]"
C       -1.33282931       0.33726650       0.19767803
C       -0.06713137       0.09492075      -0.53298183
C        0.51822105      -1.31212935      -0.43457860
C        0.77081330       1.08830899       0.18254106
O        0.81769922       1.18964470       1.47365114
H       -1.79376967      -0.50294854       0.70507113
H       -0.10174446       0.75421975       1.73484832
H       -2.00371672       1.09140969      -0.18980847
H       -0.09702162       0.41111205      -1.58259845
H        1.51544342      -1.38011688      -0.87470066
H       -0.15495123      -1.99780061      -0.95190250
H        0.58236341      -1.63103106       0.60815653
H        1.34662398       1.85714403      -0.33537570
13
Frame=3 idx=001148 GeodesicLength=0.3183351562800686 rxn_smarts="[C:1]([C:2]([C:3]([H:10])([H:11])[H:12])([C:4](=[O:5])[H:13])[H:9])([H:6])([H:7])[H:8]>>[C:1]1([H:6])([H:8])[C@@:2]([C:3]([H:10])([H:11])[H:12])([H:9])[C@@:4]1([O:5][H:7])[H:13]"
C       -1.31420845       0.35377815       0.20559827
C       -0.05995318       0.08709418      -0.54126299
C        0.52018931      -1.31962711      -0.43193410
C        0.76757603       1.08618698       0.17956400
O        0.83951064       1.15792063       1.47227415
H       -1.79333621      -0.48755573       0.69420314
H       -0.11824191       0.74393583       1.73448452
H       -1.97934153       1.11257495      -0.18420353
H       -0.09512486       0.40037703      -1.59088645
H        1.51959056      -1.39053795      -0.86646081
H       -0.15291124      -2.00725122      -0.94683417
H        0.58170339      -1.63483790       0.61195782
H        1.28454746       1.89794217      -0.33649985
13
Frame=4 idx=001148 GeodesicLength=0.42418060315838235 rxn_smarts="[C:1]([C:2]([C:3]([H:10])([H:11])[H:12])([C:4](=[O:5])[H:13])[H:9])([H:6])([H:7])[H:8]>>[C:1]1([H:6])([H:8])[C@@:2]([C:3]([H:10])([H:11])[H:12])([H:9])[C@@:4]1([O:5][H:7])[H:13]"
C       -1.29577465       0.36966598       0.21320479
C       -0.05310157       0.07962229      -0.54935403
C        0.52213648      -1.32665394      -0.42948498
C        0.76434127       1.08452142       0.17620815
O        0.86067552       1.12820014       1.46938814
H       -1.79251107      -0.47191684       0.68374830
H       -0.13437338       0.73410224       1.73409208
H       -1.95544176       1.13283383      -0.17882862
H       -0.09377637       0.39003299      -1.59895123
H        1.52357177      -1.40022956      -0.85869225
H       -0.15078571      -2.01637568      -0.94188573
H        0.58145833      -1.63810234       0.61553676
H        1.22358113       1.93429949      -0.33498137
13
Frame=5 idx=001148 GeodesicLength=0.5302204646002855 rxn_smarts="[C:1]([C:2]([C:3]([H:10])([H:11])[H:12])([C:4](=[O:5])[H:13])[H:9])([H:6])([H:7])[H:8]>>[C:1]1([H:6])([H:8])[C@@:2]([C:3]([H:10])([H:11])[H:12])([H:9])[C@@:4]1([O:5][H:7])[H:13]"
C       -1.27765952       0.38493146       0.22053996
C       -0.04663905       0.07255112      -0.55722707
C        0.52409448      -1.33313585      -0.42720029
C        0.76090282       1.08343064       0.17256858
O        0.88137544       1.10037052       1.46513247
H       -1.79139726      -0.45618603       0.67364572
H       -0.15049227       0.72461005       1.73374011
H       -1.93216293       1.15220294      -0.17360999
H       -0.09305551       0.38011179      -1.60674964
H        1.52744812      -1.40903576      -0.85133641
H       -0.14848411      -2.02513139      -0.93704974
H        0.58163746      -1.64076775       0.61892093
H        1.16443234       1.96604827      -0.33137462
13
Frame=6 idx=001148 GeodesicLength=0.6363460078667781 rxn_smarts="[C:1]([C:2]([C:3]([H:10])([H:11])[H:12])([C:4](=[O:5])[H:13])[H:9])([H:6])([H:7])[H:8]>>[C:1]1([H:6])([H:8])[C@@:2]([C:3]([H:10])([H:11])[H:12])([H:9])[C@@:4]1([O:5][H:7])[H:13]"
C       -1.25991125       0.39956759       0.22763660
C       -0.04057242       0.06585646      -0.56486472
C        0.52605582      -1.33907899      -0.42505628
C        0.75719225       1.08286189       0.16874843
O        0.90171613       1.07430902       1.45966346
H       -1.79006379      -0.44045477       0.66383793
H       -0.16681456       0.71536931       1.73348910
H       -1.90953833       1.17070603      -0.16850323
H       -0.09295468       0.37058328      -1.61425829
H        1.53120704      -1.41695748      -0.84434201
H       -0.14599422      -2.03351598      -0.93232649
H        0.58219626      -1.64286126       0.62213063
H        1.10748175       1.99361491      -0.32615512
13
Frame=7 idx=001148 GeodesicLength=0.7426120859215033 rxn_smarts="[C:1]([C:2]([C:3]([H:10])([H:11])[H:12])([C:4](=[O:5])[H:13])[H:9])([H:6])([H:7])[H:8]>>[C:1]1([H:6])([H:8])[C@@:2]([C:3]([H:10])([H:11])[H:12])([H:9])[C@@:4]1([O:5][H:7])[H:13]"
C       -1.24257619       0.41359183       0.23452808
C       -0.03490342       0.05952431      -0.57225496
C        0.52802549      -1.34450016      -0.42302823
C        0.75314964       1.08279011       0.16482473
O        0.92185507       1.04986206       1.45307797
H       -1.78857828      -0.42479913       0.65426889
H       -0.18355339       0.70631516       1.73338786
H       -1.88759812       1.18838622      -0.16347136
H       -0.09347477       0.36143451      -1.62146331
H        1.53486639      -1.42400604      -0.83766340
H       -0.14330226      -2.04154493      -0.92770448
H        0.58310476      -1.64441771       0.62519023
H        1.05298508       2.01736378      -0.31969201
13
Frame=8 idx=001148 GeodesicLength=0.849003074176678 rxn_smarts="[C:1]([C:2]([C:3]([H:10])([H:11])[H:12])([C:4](=[O:5])[H:13])[H:9])([H:6])([H:7])[H:8]>>[C:1]1([H:6])([H:8])[C@@:2]([C:3]([H:10])([H:11])[H:12])([H:9])[C@@:4]1([O:5][H:7])[H:13]"
C       -1.22568159       0.42701455       0.24125145
C       -0.02961924       0.05353641      -0.57939309
C        0.53000401      -1.34943830      -0.42110014
C        0.74874329       1.08318837       0.16085721
O        0.94193441       1.02689032       1.44543090
H       -1.78700211      -0.40926656       0.64489254
H       -0.20088628       0.69743199       1.73347770
H       -1.86635214       1.20527921      -0.15847783
H       -0.09458809       0.35264053      -1.62835621
H        1.53844179      -1.43022810      -0.83128265
H       -0.14040525      -2.04925252      -0.92317769
H        0.58432745      -1.64548572       0.62812102
H        1.00108374       2.03768980      -0.31224323
13
Frame=9 idx=001148 GeodesicLength=0.9556157968168025 rxn_smarts="[C:1]([C:2]([C:3]([H:10])([H:11])[H:12])([C:4](=[O:5])[H:13])[H:9])([H:6])([H:7])[H:8]>>[C:1]1([H:6])([H:8])[C@@:2]([C:3]([H:10])([H:11])[H:12])([H:9])[C@@:4]1([O:5][H:7])[H:13]"
C       -1.20909354       0.43993890       0.24776259
C       -0.02464655       0.04783315      -0.58628140
C        0.53197108      -1.35399072      -0.41921526
C        0.74412746       1.08386707       0.15686390
O        0.96223847       1.00499476       1.43696934
H       -1.78534237      -0.39383524       0.63568317
H       -0.21894177       0.68865329       1.73373993
H       -1.84565186       1.22150380      -0.15356018
H       -0.09619501       0.34423016      -1.63498241
H        1.54197144      -1.43580793      -0.82505465
H       -0.13740752      -2.05664544      -0.91872244
H        0.58580025      -1.64621778       0.63097224
H        0.95116992       2.05547600      -0.30417483
13
Frame=10 idx=001148 GeodesicLength=1.0623371921283806 rxn_smarts="[C:1]([C:2]([C:3]([H:10])([H:11])[H:12])([C:4](=[O:5])[H:13])[H:9])([H:6])([H:7])[H:8]>>[C:1]1([H:6])([H:8])[C@@:2]([C:3]([H:10])([H:11])[H:12])([H:9])[C@@:4]1([O:5][H:7])[H:13]"
C       -1.19293940       0.45230960       0.25415579
C       -0.02000232       0.04242447      -0.59290127
C        0.53393810      -1.35814022      -0.41739425
C        0.73917973       1.08487629       0.15296632
O        0.98279189       0.98428843       1.42753187
H       -1.78366457      -0.37858006       0.62655366
H       -0.23786774       0.67998202       1.73426768
H       -1.82559000       1.23703693      -0.14864337
H       -0.09831229       0.33612376      -1.64126871
H        1.54542359      -1.44069086      -0.81905059
H       -0.13422513      -2.06376315      -0.91435360
H        0.58750437      -1.64656419       0.63372565
H        0.90376378       2.07069699      -0.29558918
13
Frame=11 idx=001148 GeodesicLength=1.1691970279776351 rxn_smarts="[C:1]([C:2]([C:3]([H:10])([H:11])[H:12])([C:4](=[O:5])[H:13])[H:9])([H:6])([H:7])[H:8]>>[C:1]1([H:6])([H:8])[C@@:2]([C:3]([H:10])([H:11])[H:12])([H:9])[C@@:4]1([O:5][H:7])[H:13]"
C       -1.17720339       0.46416410       0.26044160
C       -0.01566031       0.03729164      -0.59924924
C        0.53590586      -1.36192069      -0.41561416
C        0.73392388       1.08615154       0.14921518
O        1.00378035       0.96461130       1.41715345
H       -1.78200045      -0.36351780       0.61746316
H       -0.25780103       0.67138209       1.73507787
H       -1.80613762       1.25193291      -0.14371729
H       -0.10090983       0.32831682      -1.64721790
H        1.54881710      -1.44493158      -0.81322025
H       -0.13087557      -2.07061434      -0.91006101
H        0.58941660      -1.64657849       0.63640510
H        0.85874442       2.08371250      -0.28667651
13
Frame=12 idx=001148 GeodesicLength=1.2761157426419614 rxn_smarts="[C:1]([C:2]([C:3]([H:10])([H:11])[H:12])([C:4](=[O:5])[H:13])[H:9])([H:6])([H:7])[H:8]>>[C:1]1([H:6])([H:8])[C@@:2]([C:3]([H:10])([H:11])[H:12])([H:9])[C@@:4]1([O:5][H:7])[H:13]"
C       -1.16186033       0.47553018       0.26664110
C       -0.01158891       0.03241195      -0.60532760
C        0.53787201      -1.36537577      -0.41385984
C        0.72839409       1.08763365       0.14564546
O        1.02534958       0.94583738       1.40583714
H       -1.78037006      -0.34864840       0.60836948
H       -0.27885610       0.66284697       1.73618314
H       -1.78725386       1.26623385      -0.13876994
H       -0.10394755       0.32079274      -1.65283377
H        1.55215980      -1.44860139      -0.80754007
H       -0.12737917      -2.07722452      -0.90583255
H        0.59151596      -1.64630692       0.63902811
H        0.81596456       2.09487027      -0.27754065
13
Frame=13 idx=001148 GeodesicLength=1.3830999845197873 rxn_smarts="[C:1]([C:2]([C:3]([H:10])([H:11])[H:12])([C:4](=[O:5])[H:13])[H:9])([H:6])([H:7])[H:8]>>[C:1]1([H:6])([H:8])[C@@:2]([C:3]([H:10])([H:11])[H:12])([H:9])[C@@:4]1([O:5][H:7])[H:13]"
C       -1.14688374       0.48643523       0.27278175
C       -0.00775694       0.02776752      -0.61113430
C        0.53983550      -1.36854191      -0.41211598
C        0.72262251       1.08927439       0.14229577
O        1.04766288       0.92786041       1.39353257
H       -1.77879338      -0.33397024       0.59921639
H       -0.30116849       0.65435789       1.73760226
H       -1.76889411       1.27998204      -0.13378040
H       -0.10738904       0.31353212      -1.65811073
H        1.55545862      -1.45175927      -0.80198411
H       -0.12374950      -2.08361729      -0.90165634
H        0.59378081      -1.64578312       0.64161208
H        0.77527490       2.10446223      -0.26825895
13
Frame=14 idx=001148 GeodesicLength=1.490037265421768 rxn_smarts="[C:1]([C:2]([C:3]([H:10])([H:11])[H:12])([C:4](=[O:5])[H:13])[H:9])([H:6])([H:7])[H:8]>>[C:1]1([H:6])([H:8])[C@@:2]([C:3]([H:10])([H:11])[H:12])([H:9])[C@@:4]1([O:5][H:7])[H:13]"
C       -1.13224256       0.49689735       0.27888780
C       -0.00413604       0.02333822      -0.61667377
C        0.54179373      -1.37145390      -0.41037141
C        0.71664132       1.09103637       0.13918010
O        1.07084859       0.91060295       1.38018674
H       -1.77727921      -0.31947253       0.58996124
H       -0.32485655       0.64592075       1.73933770
H       -1.75101975       1.29320276      -0.12873180
H       -0.11119940       0.30651721      -1.66305237
H        1.55871573      -1.45446546      -0.79654345
H       -0.12000559      -2.08981474      -0.89751538
H        0.59620176      -1.64503135       0.64417243
H        0.73653797       2.11272238      -0.25883782
13
Frame=15 idx=001148 GeodesicLength=1.5968712173901225 rxn_smarts="[C:1]([C:2]([C:3]([H:10])([H:11])[H:12])([C:4](=[O:5])[H:13])[H:9])([H:6])([H:7])[H:8]>>[C:1]1([H:6])([H:8])[C@@:2]([C:3]([H:10])([H:11])[H:12])([H:9])[C@@:4]1([O:5][H:7])[H:13]"
C       -1.11790266       0.50693527       0.28498987
C       -0.00069632       0.01910565      -0.62194677
C        0.54374495      -1.37414300      -0.40861351
C        0.71048704       1.09288026       0.13632025
O        1.09504907       0.89400475       1.36571196
H       -1.77583933      -0.30514235       0.58054633
H       -0.35005905       0.63752427       1.74139498
H       -1.73358472       1.30592474      -0.12360076
H       -0.11534672       0.29972829      -1.66765560
H        1.56192998      -1.45677554      -0.79120818
H       -0.11616377      -2.09583850      -0.89338993
H        0.59877230      -1.64406879       0.64672577
H        0.69960924       2.11986496      -0.24927441
13
Frame=16 idx=001148 GeodesicLength=1.7035147215414488 rxn_smarts="[C:1]([C:2]([C:3]([H:10])([H:11])[H:12])([C:4](=[O:5])[H:13])[H:9])([H:6])([H:7])[H:8]>>[C:1]1([H:6])([H:8])[C@@:2]([C:3]([H:10])([H:11])[H:12])([H:9])[C@@:4]1([O:5][H:7])[H:13]"
C       -1.10383113       0.51656382       0.29111987
C        0.00258577       0.01505476      -0.62695652
C        0.54568944      -1.37663714      -0.40682943
C        0.70419128       1.09477735       0.13372752
O        1.12039737       0.87802138       1.35000223
H       -1.77448227      -0.29096251       0.57091358
H       -0.37692325       0.62916301       1.74377014
H       -1.71654784       1.31817203      -0.11836071
H       -0.11980808       0.29315015      -1.67192000
H        1.56510332      -1.45873837      -0.78597496
H       -0.11223939      -2.10171033      -0.88925348
H        0.60149700      -1.64290276       0.64929007
H        0.66436778       2.12604860      -0.23952832
