15
Frame=0 idx=010615 GeodesicLength=0.0 rxn_smarts="[O:1]=[C:2]1[C:3]([H:8])([H:9])[C:4]([H:10])([H:11])[C@@:5]2([H:12])[C:6]([H:13])([H:14])[C@@:7]12[H:15]>>[O:1]=[C:2]1[C:3]([H:8])([H:9])[C:4]([H:10])([H:11])[C:5][C@:7]1([C:6]([H:12])([H:13])[H:14])[H:15]"
O       -0.10817139       2.57198714      -0.01234106
C       -0.14654120       1.37431008       0.04186786
C       -1.31679790       0.48112676      -0.35227719
C       -1.05928427      -0.82066045       0.41481651
C        0.36370180      -0.83171271       0.99161769
C        1.45511572      -0.48359514      -0.48695845
C        0.93811995       0.47672961       0.58691863
H       -1.31380781       0.35280161      -1.43789265
H       -2.25411197       0.97342455      -0.09775953
H       -1.68069943      -0.86367708       1.31442359
H       -1.28995171      -1.72824781      -0.14310617
H        1.14241833      -1.53320363      -0.05652920
H        1.03166655      -0.35233292      -1.47705714
H        2.53475129      -0.58187600      -0.46435188
H        1.70359201       0.96492606       1.17862904
15
Frame=1 idx=010615 GeodesicLength=0.05363672167005021 rxn_smarts="[O:1]=[C:2]1[C:3]([H:8])([H:9])[C:4]([H:10])([H:11])[C@@:5]2([H:12])[C:6]([H:13])([H:14])[C@@:7]12[H:15]>>[O:1]=[C:2]1[C:3]([H:8])([H:9])[C:4]([H:10])([H:11])[C:5][C@:7]1([C:6]([H:12])([H:13])[H:14])[H:15]"
O       -0.10828633       2.57045214      -0.01894226
C       -0.14830229       1.37297113       0.04001476
C       -1.32033299       0.48062988      -0.35040086
C       -1.06344086      -0.82049739       0.41769414
C        0.36302796      -0.83509508       0.97921772
C        1.46074601      -0.48060729      -0.48888630
C        0.93703629       0.47646317       0.58445456
H       -1.31847563       0.34962776      -1.43571300
H       -2.25692202       0.97424526      -0.09573436
H       -1.67693719      -0.85862051       1.32327330
H       -1.30412951      -1.72827204      -0.13581775
H        1.14349696      -1.54651009      -0.06180758
H        1.05348752      -0.33607740      -1.48398114
H        2.53992594      -0.58143067      -0.45547624
H        1.69910614       0.96272112       1.18210500
15
Frame=2 idx=010615 GeodesicLength=0.10724653783210394 rxn_smarts="[O:1]=[C:2]1[C:3]([H:8])([H:9])[C:4]([H:10])([H:11])[C@@:5]2([H:12])[C:6]([H:13])([H:14])[C@@:7]12[H:15]>>[O:1]=[C:2]1[C:3]([H:8])([H:9])[C:4]([H:10])([H:11])[C:5][C@:7]1([C:6]([H:12])([H:13])[H:14])[H:15]"
O       -0.10847039       2.56887700      -0.02555964
C       -0.15007815       1.37160507       0.03803878
C       -1.32391120       0.48010999      -0.34854614
C       -1.06762041      -0.82031123       0.42063282
C        0.36231252      -0.83850882       0.96651531
C        1.46641794      -0.47751610      -0.49091522
C        0.93591402       0.47616577       0.58192604
H       -1.32320538       0.34637404      -1.43354113
H       -2.25976075       0.97505904      -0.09371923
H       -1.67293566      -0.85347501       1.33222370
H       -1.31842521      -1.72822852      -0.12827957
H        1.14450084      -1.55998619      -0.06718858
H        1.07576814      -0.31943329      -1.49066371
H        2.54499713      -0.58113996      -0.44652244
H        1.69449656       0.96040821       1.18559900
15
Frame=3 idx=010615 GeodesicLength=0.16081547536367413 rxn_smarts="[O:1]=[C:2]1[C:3]([H:8])([H:9])[C:4]([H:10])([H:11])[C@@:5]2([H:12])[C:6]([H:13])([H:14])[C@@:7]12[H:15]>>[O:1]=[C:2]1[C:3]([H:8])([H:9])[C:4]([H:10])([H:11])[C:5][C@:7]1([C:6]([H:12])([H:13])[H:14])[H:15]"
O       -0.10872909       2.56726830      -0.03217343
C       -0.15186595       1.37021575       0.03593027
C       -1.32753402       0.47957203      -0.34671247
C       -1.07181762      -0.82009979       0.42362495
C        0.36154726      -0.84193858       0.95351076
C        1.47212444      -0.47432536      -0.49304405
C        0.93475409       0.47584150       0.57932685
H       -1.32800704       0.34305242      -1.43137642
H       -2.26262741       0.97586852      -0.09170603
H       -1.66869298      -0.84825492       1.34125404
H       -1.33280911      -1.72811079      -0.12050879
H        1.14544046      -1.57364118      -0.07263429
H        1.09849592      -0.30243229      -1.49707706
H        2.54995160      -0.58100532      -0.43750949
H        1.68976946       0.95798972       1.18909517
15
Frame=4 idx=010615 GeodesicLength=0.21435580398549214 rxn_smarts="[O:1]=[C:2]1[C:3]([H:8])([H:9])[C:4]([H:10])([H:11])[C@@:5]2([H:12])[C:6]([H:13])([H:14])[C@@:7]12[H:15]>>[O:1]=[C:2]1[C:3]([H:8])([H:9])[C:4]([H:10])([H:11])[C:5][C@:7]1([C:6]([H:12])([H:13])[H:14])[H:15]"
O       -0.10906936       2.56563569      -0.03876503
C       -0.15366262       1.36880731       0.03367778
C       -1.33120431       0.47902380      -0.34489850
C       -1.07602568      -0.81986221       0.42666173
C        0.36072644      -0.84537164       0.94020595
C        1.47786393      -0.47103791      -0.49527197
C        0.93355885       0.47549464       0.57665137
H       -1.33289552       0.33967952      -1.42921907
H       -2.26552277       0.97668124      -0.08968206
H       -1.66420964      -0.84297966       1.35034158
H       -1.34724547      -1.72791111      -0.11253281
H        1.14632738      -1.58749068      -0.07809057
H        1.12164591      -0.28511331      -1.50320075
H        2.55478103      -0.58102711      -0.42845658
H        1.68493183       0.95547142       1.19257893
15
Frame=5 idx=010615 GeodesicLength=0.26784022835498966 rxn_smarts="[O:1]=[C:2]1[C:3]([H:8])([H:9])[C:4]([H:10])([H:11])[C@@:5]2([H:12])[C:6]([H:13])([H:14])[C@@:7]12[H:15]>>[O:1]=[C:2]1[C:3]([H:8])([H:9])[C:4]([H:10])([H:11])[C:5][C@:7]1([C:6]([H:12])([H:13])[H:14])[H:15]"
O       -0.10948515       2.56397033      -0.04536324
C       -0.15547201       1.36737338       0.03127569
C       -1.33492485       0.47846295      -0.34310125
C       -1.08024241      -0.81959595       0.42974390
C        0.35984459      -0.84881122       0.92657752
C        1.48363759      -0.46765133      -0.49760398
C        0.93232070       0.47511900       0.57389518
H       -1.33788269       0.33624991      -1.42706320
H       -2.26844558       0.97749691      -0.08763624
H       -1.65946485      -0.83764090       1.35949104
H       -1.36174633      -1.72762634      -0.10433288
H        1.14715969      -1.60153648      -0.08357085
H        1.14525817      -0.26743688      -1.50901137
H        2.55947862      -0.58121243      -0.41935652
H        1.67996450       0.95283907       1.19605621
15
Frame=6 idx=010615 GeodesicLength=0.32129165549896255 rxn_smarts="[O:1]=[C:2]1[C:3]([H:8])([H:9])[C:4]([H:10])([H:11])[C@@:5]2([H:12])[C:6]([H:13])([H:14])[C@@:7]12[H:15]>>[O:1]=[C:2]1[C:3]([H:8])([H:9])[C:4]([H:10])([H:11])[C:5][C@:7]1([C:6]([H:12])([H:13])[H:14])[H:15]"
O       -0.10997285       2.56228063      -0.05197373
C       -0.15729071       1.36591780       0.02871226
C       -1.33870148       0.47789371      -0.34132047
C       -1.08446482      -0.81930356       0.43286649
C        0.35889916      -0.85225350       0.91261643
C        1.48945051      -0.46416136      -0.50004039
C        0.93104213       0.47471693       0.57105513
H       -1.34299027       0.33277507      -1.42491115
H       -2.27139930       0.97831906      -0.08555603
H       -1.65445021      -0.83225308       1.36869309
H       -1.37630274      -1.72725758      -0.09591582
H        1.14793680      -1.61579562      -0.08905128
H        1.16933309      -0.24941252      -1.51448601
H        2.56404192      -0.58155914      -0.41021563
H        1.67486877       0.95009317       1.19952710
15
Frame=7 idx=010615 GeodesicLength=0.3747071835164295 rxn_smarts="[O:1]=[C:2]1[C:3]([H:8])([H:9])[C:4]([H:10])([H:11])[C@@:5]2([H:12])[C:6]([H:13])([H:14])[C@@:7]12[H:15]>>[O:1]=[C:2]1[C:3]([H:8])([H:9])[C:4]([H:10])([H:11])[C:5][C@:7]1([C:6]([H:12])([H:13])[H:14])[H:15]"
O       -0.11053246       2.56056731      -0.05860132
C       -0.15911860       1.36444041       0.02597725
C       -1.34253732       0.47731968      -0.33955298
C       -1.08868735      -0.81898333       0.43602323
C        0.35788424      -0.85569158       0.89831030
C        1.49530286      -0.46056699      -0.50258271
C        0.92972042       0.47428865       0.56812530
H       -1.34823510       0.32926343      -1.42275873
H       -2.27438276       0.97915123      -0.08342541
H       -1.64915476      -0.82682373       1.37793492
H       -1.39090038      -1.72679930      -0.08728944
H        1.14866449      -1.63028021      -0.09450592
H        1.19387606      -0.23104682      -1.51959976
H        2.56846296      -0.58206917      -0.40104122
H        1.66963770       0.94723042       1.20298649
15
Frame=8 idx=010615 GeodesicLength=0.4280834697347536 rxn_smarts="[O:1]=[C:2]1[C:3]([H:8])([H:9])[C:4]([H:10])([H:11])[C@@:5]2([H:12])[C:6]([H:13])([H:14])[C@@:7]12[H:15]>>[O:1]=[C:2]1[C:3]([H:8])([H:9])[C:4]([H:10])([H:11])[C:5][C@:7]1([C:6]([H:12])([H:13])[H:14])[H:15]"
O       -0.11116323       2.55883287      -0.06525254
C       -0.16095517       1.36294143       0.02305988
C       -1.34643667       0.47674493      -0.33779649
C       -1.09290472      -0.81863491       0.43920804
C        0.35679483      -0.85912022       0.88364612
C        1.50119553      -0.45686734      -0.50523329
C        0.92835411       0.47383418       0.56509959
H       -1.35363645       0.32572409      -1.42060403
H       -2.27739653       0.97999824      -0.08122897
H       -1.64356673      -0.82136296       1.38720564
H       -1.40552679      -1.72624816      -0.07846117
H        1.14934763      -1.64500213      -0.09990539
H        1.21889284      -0.21234168      -1.52432688
H        2.57273479      -0.58274565      -0.39184021
H        1.66426657       0.94424730       1.20642969
15
Frame=9 idx=010615 GeodesicLength=0.4814220166793458 rxn_smarts="[O:1]=[C:2]1[C:3]([H:8])([H:9])[C:4]([H:10])([H:11])[C@@:5]2([H:12])[C:6]([H:13])([H:14])[C@@:7]12[H:15]>>[O:1]=[C:2]1[C:3]([H:8])([H:9])[C:4]([H:10])([H:11])[C:5][C@:7]1([C:6]([H:12])([H:13])[H:14])[H:15]"
O       -0.11186463       2.55708029      -0.07193302
C       -0.16279981       1.36142184       0.01994838
C       -1.35040385       0.47617403      -0.33604806
C       -1.09711127      -0.81825785       0.44241371
C        0.35562590      -0.86253285       0.86861027
C        1.50712984      -0.45306083      -0.50799414
C        0.92694162       0.47335437       0.56197143
H       -1.35921496       0.32216800      -1.41844402
H       -2.28044044       0.98086450      -0.07894906
H       -1.63767451      -0.81588173       1.39649227
H       -1.42016840      -1.72560095      -0.06944002
H        1.14999133      -1.65997605      -0.10521794
H        1.24438884      -0.19330376      -1.52864102
H        2.57685035      -0.58359021      -0.38262025
H        1.65874999       0.94114121       1.20985148
15
Frame=10 idx=010615 GeodesicLength=0.5347218533434968 rxn_smarts="[O:1]=[C:2]1[C:3]([H:8])([H:9])[C:4]([H:10])([H:11])[C@@:5]2([H:12])[C:6]([H:13])([H:14])[C@@:7]12[H:15]>>[O:1]=[C:2]1[C:3]([H:8])([H:9])[C:4]([H:10])([H:11])[C:5][C@:7]1([C:6]([H:12])([H:13])[H:14])[H:15]"
O       -0.11263564       2.55531250      -0.07864997
C       -0.16465196       1.35988250       0.01663061
C       -1.35444358       0.47561213      -0.33430437
C       -1.10130081      -0.81785207       0.44563216
C        0.35437244      -0.86592303       0.85318812
C        1.51310705      -0.44914614      -0.51086780
C        0.92548137       0.47284988       0.55873362
H       -1.36499314       0.31860722      -1.41627562
H       -2.28351441       0.98175549      -0.07656621
H       -1.63146579      -0.81039267       1.40578124
H       -1.43481076      -1.72485460      -0.06023703
H        1.15060162      -1.67521640      -0.11040666
H        1.27036860      -0.17393905      -1.53251495
H        2.58080251      -0.58460492      -0.37338930
H        1.65308250       0.93790915       1.21324615
15
Frame=11 idx=010615 GeodesicLength=0.5879842406507513 rxn_smarts="[O:1]=[C:2]1[C:3]([H:8])([H:9])[C:4]([H:10])([H:11])[C@@:5]2([H:12])[C:6]([H:13])([H:14])[C@@:7]12[H:15]>>[O:1]=[C:2]1[C:3]([H:8])([H:9])[C:4]([H:10])([H:11])[C:5][C@:7]1([C:6]([H:12])([H:13])[H:14])[H:15]"
O       -0.11347538       2.55353295      -0.08541026
C       -0.16651104       1.35832487       0.01309368
C       -1.35856078       0.47506519      -0.33256141
C       -1.10546662      -0.81741759       0.44885392
C        0.35302946      -0.86928327       0.83736436
C        1.51912857      -0.44512171      -0.51385683
C        0.92397176       0.47232197       0.55537833
H       -1.37099533       0.31505602      -1.41409493
H       -2.28661785       0.98267703      -0.07405837
H       -1.62492832      -0.80491007       1.41505691
H       -1.44943782      -1.72400625      -0.05086590
H        1.15118565      -1.69073952      -0.11542950
H        1.29683532      -0.15425757      -1.53592095
H        2.58458410      -0.58579076      -0.36415624
H        1.64725829       0.93454869       1.21660720
15
Frame=12 idx=010615 GeodesicLength=0.6412078963850703 rxn_smarts="[O:1]=[C:2]1[C:3]([H:8])([H:9])[C:4]([H:10])([H:11])[C@@:5]2([H:12])[C:6]([H:13])([H:14])[C@@:7]12[H:15]>>[O:1]=[C:2]1[C:3]([H:8])([H:9])[C:4]([H:10])([H:11])[C:5][C@:7]1([C:6]([H:12])([H:13])[H:14])[H:15]"
O       -0.11438258       2.55174514      -0.09222185
C       -0.16837655       1.35675022       0.00932442
C       -1.36276066       0.47453985      -0.33081484
C       -1.10960146      -0.81695494       0.45206854
C        0.35159206      -0.87260635       0.82112247
C        1.52519560      -0.44098641      -0.51696466
C        0.92241125       0.47177164       0.55189687
H       -1.37724747       0.31153001      -1.41189809
H       -2.28975013       0.98363616      -0.07140181
H       -1.61804930      -0.79945014       1.42430309
H       -1.46403279      -1.72305343      -0.04134246
H        1.15175160      -1.70656143      -0.12023741
H        1.32379116      -0.13426824      -1.53883082
H        2.58818767      -0.58714898      -0.35493081
H        1.64127160       0.93105689       1.21992737
15
Frame=13 idx=010615 GeodesicLength=0.6943958232879432 rxn_smarts="[O:1]=[C:2]1[C:3]([H:8])([H:9])[C:4]([H:10])([H:11])[C@@:5]2([H:12])[C:6]([H:13])([H:14])[C@@:7]12[H:15]>>[O:1]=[C:2]1[C:3]([H:8])([H:9])[C:4]([H:10])([H:11])[C:5][C@:7]1([C:6]([H:12])([H:13])[H:14])[H:15]"
O       -0.11535618       2.54995320      -0.09909104
C       -0.17024816       1.35516063       0.00530878
C       -1.36704879       0.47404335      -0.32905943
C       -1.11369806      -0.81646472       0.45526385
C        0.35005466      -0.87588371       0.80444513
C        1.53130900      -0.43673846      -0.52019537
C        0.92079831       0.47120065       0.54827977
H       -1.38377775       0.30804680      -1.40967976
H       -2.29290975       0.98463975      -0.06856999
H       -1.61081643      -0.79403023       1.43350085
H       -1.47857837      -1.72199380      -0.03168568
H        1.15231051      -1.72270076      -0.12477418
H        1.35123818      -0.11398457      -1.54121729
H        2.59160589      -0.58867950      -0.34572417
H        1.63511697       0.92743137       1.22319852
15
Frame=14 idx=010615 GeodesicLength=0.7475606969404075 rxn_smarts="[O:1]=[C:2]1[C:3]([H:8])([H:9])[C:4]([H:10])([H:11])[C@@:5]2([H:12])[C:6]([H:13])([H:14])[C@@:7]12[H:15]>>[O:1]=[C:2]1[C:3]([H:8])([H:9])[C:4]([H:10])([H:11])[C:5][C@:7]1([C:6]([H:12])([H:13])[H:14])[H:15]"
O       -0.11638832       2.54817128      -0.10603541
C       -0.17212316       1.35356277       0.00103094
C       -1.37143535       0.47358515      -0.32729213
C       -1.11775158      -0.81595413       0.45842759
C        0.34841376      -0.87911426       0.78731621
C        1.53747199      -0.43237546      -0.52355349
C        0.91913660       0.47061149       0.54451927
H       -1.39062602       0.30462741      -1.40744125
H       -2.29609933       0.98570006      -0.06553583
H       -1.60321641      -0.78867951       1.44263591
H       -1.49306492      -1.72083398      -0.02191731
H        1.15287416      -1.73918032      -0.12897268
H        1.37917315      -0.09341029      -1.54305578
H        2.59483768      -0.59038060      -0.33654506
H        1.62879775       0.92367041       1.22641902
15
Frame=15 idx=010615 GeodesicLength=0.8006627820745874 rxn_smarts="[O:1]=[C:2]1[C:3]([H:8])([H:9])[C:4]([H:10])([H:11])[C@@:5]2([H:12])[C:6]([H:13])([H:14])[C@@:7]12[H:15]>>[O:1]=[C:2]1[C:3]([H:8])([H:9])[C:4]([H:10])([H:11])[C:5][C@:7]1([C:6]([H:12])([H:13])[H:14])[H:15]"
O       -0.11749308       2.54637109      -0.11305019
C       -0.17400667       1.35194492      -0.00352015
C       -1.37591226       0.47317284      -0.32549746
C       -1.12174030      -0.81540635       0.46153806
C        0.34666435      -0.88226910       0.76969885
C        1.54368796      -0.42789512      -0.52703843
C        0.91740682       0.47000167       0.54059765
H       -1.39779758       0.30129210      -1.40515546
H       -2.29930136       0.98681969      -0.06225518
H       -1.59522920      -0.78339526       1.45166915
H       -1.50744527      -1.71954567      -0.01206190
H        1.15345199      -1.75600354      -0.13277976
H        1.40758582      -0.07260129      -1.54430098
H        2.59786218      -0.59224769      -0.32741104
H        1.62226660       0.91976171       1.22956685
15
Frame=16 idx=010615 GeodesicLength=0.8537553334651942 rxn_smarts="[O:1]=[C:2]1[C:3]([H:8])([H:9])[C:4]([H:10])([H:11])[C@@:5]2([H:12])[C:6]([H:13])([H:14])[C@@:7]12[H:15]>>[O:1]=[C:2]1[C:3]([H:8])([H:9])[C:4]([H:10])([H:11])[C:5][C@:7]1([C:6]([H:12])([H:13])[H:14])[H:15]"
O       -0.11864325       2.54458185      -0.12019191
C       -0.17589500       1.35031874      -0.00836712
C       -1.38050318       0.47281355      -0.32367593
C       -1.12567189      -0.81484319       0.46459190
C        0.34480137      -0.88537036       0.75156941
C        1.54996460      -0.42328958      -0.53066385
C        0.91562099       0.46937177       0.53651080
H       -1.40536120       0.29805680      -1.40283390
H       -2.30252835       0.98801425      -0.05870108
H       -1.58683393      -0.77821727       1.46061003
H       -1.52175231      -1.71815606      -0.00212259
H        1.15404958      -1.77320402      -0.13613476
H        1.43652002      -0.05149221      -1.54493560
H        2.60068934      -0.59428692      -0.31831385
H        1.61554320       0.91570265       1.23265844
