14
Frame=0 idx=009420 GeodesicLength=0.0 rxn_smarts="[O:1]([C@@:2]1([H:9])[C:3]([H:10])([H:11])[O:4][C:5]([H:12])=[N:6][C:7]1([H:13])[H:14])[H:8]>>[H:13][H:14].[O:1]([C@@:2]1([H:9])[C:3]([H:10])([H:11])[O:4][C:5]([H:12])=[N+:6]=[C-:7]1)[H:8]"
O       -1.04830775      -0.60866241       1.22764544
C       -0.91638597       0.11065496       0.01740995
C       -0.14178753       1.42390580       0.24480646
O        1.26055858       1.20629084       0.48931394
C        1.74273860      -0.00407992       0.15896451
N        1.13252182      -0.83908732      -0.57900011
C       -0.07252794      -0.48743605      -1.07605035
H       -0.23301566      -1.09173082       1.39146340
H       -1.92686470       0.34721268      -0.31449937
H       -0.23489859       2.10468290      -0.60204186
H       -0.54097715       1.89232619       1.14302506
H        2.73478483      -0.18461496       0.55466046
H       -0.78625635      -1.68369358      -1.62775744
H       -0.96958222      -2.18576833      -1.02794015
14
Frame=1 idx=009420 GeodesicLength=0.05961818080548447 rxn_smarts="[O:1]([C@@:2]1([H:9])[C:3]([H:10])([H:11])[O:4][C:5]([H:12])=[N:6][C:7]1([H:13])[H:14])[H:8]>>[H:13][H:14].[O:1]([C@@:2]1([H:9])[C:3]([H:10])([H:11])[O:4][C:5]([H:12])=[N+:6]=[C-:7]1)[H:8]"
O       -1.04407570      -0.60401405       1.24608017
C       -0.91510300       0.10364125       0.02912450
C       -0.14249131       1.42018133       0.24026216
O        1.25960463       1.20770839       0.48950674
C        1.74631874      -0.00240793       0.16534771
N        1.13879366      -0.84698277      -0.56374150
C       -0.07200825      -0.50668500      -1.05819355
H       -0.22805425      -1.08410282       1.41453398
H       -1.92660281       0.33515276      -0.30337192
H       -0.23604492       2.08908098      -0.61611619
H       -0.54271839       1.89998474       1.13201253
H        2.74337633      -0.17190621       0.55358621
H       -0.79271405      -1.66767980      -1.66906163
H       -0.98828069      -2.17197086      -1.05996921
14
Frame=2 idx=009420 GeodesicLength=0.11911309361507828 rxn_smarts="[O:1]([C@@:2]1([H:9])[C:3]([H:10])([H:11])[O:4][C:5]([H:12])=[N:6][C:7]1([H:13])[H:14])[H:8]>>[H:13][H:14].[O:1]([C@@:2]1([H:9])[C:3]([H:10])([H:11])[O:4][C:5]([H:12])=[N+:6]=[C-:7]1)[H:8]"
O       -1.03944137      -0.59910582       1.26531310
C       -0.91380118       0.09615571       0.04133845
C       -0.14335567       1.41602505       0.23524878
O        1.25858775       1.20914397       0.48888383
C        1.74994059      -0.00074598       0.17141222
N        1.14505243      -0.85528603      -0.54803457
C       -0.07169725      -0.52696993      -1.03955346
H       -0.22256274      -1.07591814       1.43843283
H       -1.92643228       0.32233113      -0.29153919
H       -0.23766669       2.07242938      -0.63081806
H       -0.54447156       1.90752045       1.12023098
H        2.75138108      -0.15955751       0.55315992
H       -0.79811482      -1.64905727      -1.71052754
H       -1.00741828      -2.15696501      -1.09354730
14
Frame=3 idx=009420 GeodesicLength=0.17851630236918076 rxn_smarts="[O:1]([C@@:2]1([H:9])[C:3]([H:10])([H:11])[O:4][C:5]([H:12])=[N:6][C:7]1([H:13])[H:14])[H:8]>>[H:13][H:14].[O:1]([C@@:2]1([H:9])[C:3]([H:10])([H:11])[O:4][C:5]([H:12])=[N+:6]=[C-:7]1)[H:8]"
O       -1.03466136      -0.59387986       1.28539050
C       -0.91253408       0.08815409       0.05408508
C       -0.14440095       1.41135105       0.22977704
O        1.25743536       1.21044668       0.48761284
C        1.75350246       0.00068367       0.17750150
N        1.15124636      -0.86423484      -0.53150725
C       -0.07154703      -0.54848469      -1.01991256
H       -0.21684254      -1.06713618       1.46335634
H       -1.92634532       0.30874845      -0.27909236
H       -0.23964529       2.05457918      -0.64617408
H       -0.54634592       1.91493383       1.10758444
H        2.75934542      -0.14710046       0.55238020
H       -0.80216159      -1.62753341      -1.75213720
H       -1.02704552      -2.14052753      -1.12886449
14
Frame=4 idx=009420 GeodesicLength=0.23789792799156345 rxn_smarts="[O:1]([C@@:2]1([H:9])[C:3]([H:10])([H:11])[O:4][C:5]([H:12])=[N:6][C:7]1([H:13])[H:14])[H:8]>>[H:13][H:14].[O:1]([C@@:2]1([H:9])[C:3]([H:10])([H:11])[O:4][C:5]([H:12])=[N+:6]=[C-:7]1)[H:8]"
O       -1.02975073      -0.58824518       1.30643759
C       -0.91133446       0.07957054       0.06743705
C       -0.14566373       1.40603933       0.22379010
O        1.25611647       1.21153010       0.48564943
C        1.75696685       0.00180579       0.18368333
N        1.15732322      -0.87392781      -0.51400160
C       -0.07161681      -0.57138719      -0.99911635
H       -0.21090460      -1.05762282       1.48947470
H       -1.92638132       0.29430447      -0.26596591
H       -0.24202863       2.03528167      -0.66229051
H       -0.54837236       1.92217184       1.09395094
H        2.76735052      -0.13447264       0.55096913
H       -0.80450281      -1.60275121      -1.79388599
H       -1.04720162      -2.12229687      -1.16613191
14
Frame=5 idx=009420 GeodesicLength=0.2971313192457876 rxn_smarts="[O:1]([C@@:2]1([H:9])[C:3]([H:10])([H:11])[O:4][C:5]([H:12])=[N:6][C:7]1([H:13])[H:14])[H:8]>>[H:13][H:14].[O:1]([C@@:2]1([H:9])[C:3]([H:10])([H:11])[O:4][C:5]([H:12])=[N+:6]=[C-:7]1)[H:8]"
O       -1.02459572      -0.58217731       1.32849425
C       -0.91020974       0.07035850       0.08143213
C       -0.14719280       1.40003542       0.21719855
O        1.25460966       1.21238283       0.48276769
C        1.76032764       0.00262029       0.18974130
N        1.16325704      -0.88436985      -0.49561746
C       -0.07200291      -0.59580035      -0.97711835
H       -0.20460093      -1.04731760       1.51677017
H       -1.92658151       0.27892528      -0.25203898
H       -0.24495491       2.01444642      -0.67922652
H       -0.55054495       1.92918248       1.07922686
H        2.77514044      -0.12193682       0.54927211
H       -0.80497062      -1.57432907      -1.83552352
H       -1.06768070      -2.10202023      -1.20537823
14
Frame=6 idx=009420 GeodesicLength=0.3563543236077882 rxn_smarts="[O:1]([C@@:2]1([H:9])[C:3]([H:10])([H:11])[O:4][C:5]([H:12])=[N:6][C:7]1([H:13])[H:14])[H:8]>>[H:13][H:14].[O:1]([C@@:2]1([H:9])[C:3]([H:10])([H:11])[O:4][C:5]([H:12])=[N+:6]=[C-:7]1)[H:8]"
O       -1.01906953      -0.57562111       1.35173995
C       -0.90916890       0.06042706       0.09619051
C       -0.14903565       1.39324784       0.20988402
O        1.25289638       1.21301176       0.47867729
C        1.76355625       0.00314598       0.19544771
N        1.16897302      -0.89560247      -0.47640195
C       -0.07282432      -0.62188505      -0.95379299
H       -0.19778375      -1.03610526       1.54535518
H       -1.92698485       0.26243977      -0.23707143
H       -0.24857614       1.99186283      -0.69712681
H       -0.55284595       1.93592441       1.06326137
H        2.78242317      -0.10974427       0.54758609
H       -0.80307294      -1.54185469      -1.87694611
H       -1.08848679      -2.07924681      -1.24680284
14
Frame=7 idx=009420 GeodesicLength=0.415415328600586 rxn_smarts="[O:1]([C@@:2]1([H:9])[C:3]([H:10])([H:11])[O:4][C:5]([H:12])=[N:6][C:7]1([H:13])[H:14])[H:8]>>[H:13][H:14].[O:1]([C@@:2]1([H:9])[C:3]([H:10])([H:11])[O:4][C:5]([H:12])=[N+:6]=[C-:7]1)[H:8]"
O       -1.01292958      -0.56848047       1.37628631
C       -0.90821603       0.04968368       0.11181851
C       -0.15129981       1.38556753       0.20168794
O        1.25091393       1.21338130       0.47297890
C        1.76661525       0.00333922       0.20049825
N        1.17440566      -0.90772130      -0.45642152
C       -0.07424349      -0.64987890      -0.92900689
H       -0.19014586      -1.02381341       1.57526943
H       -1.92766129       0.24468464      -0.22079584
H       -0.25320222       1.96728317      -0.71612649
H       -0.55528384       1.94235705       1.04584331
H        2.78888883      -0.09827417       0.54646305
H       -0.79841847      -1.50473574      -1.91785508
H       -1.10942309      -2.05339260      -1.29063989
14
Frame=8 idx=009420 GeodesicLength=0.4745780610954737 rxn_smarts="[O:1]([C@@:2]1([H:9])[C:3]([H:10])([H:11])[O:4][C:5]([H:12])=[N:6][C:7]1([H:13])[H:14])[H:8]>>[H:13][H:14].[O:1]([C@@:2]1([H:9])[C:3]([H:10])([H:11])[O:4][C:5]([H:12])=[N+:6]=[C-:7]1)[H:8]"
O       -1.00673699      -0.56058175       1.40233120
C       -0.90756563       0.03803647       0.12839619
C       -0.15400726       1.37679535       0.19264775
O        1.24866733       1.21323153       0.46593250
C        1.76943627       0.00286879       0.20539668
N        1.17943537      -0.92106305      -0.43517138
C       -0.07634334      -0.68016182      -0.90247770
H       -0.18228218      -1.01026716       1.60691957
H       -1.92880622       0.22559236      -0.20333712
H       -0.25861167       1.94034882      -0.73629330
H       -0.55800664       1.94843032       1.02690322
H        2.79541138      -0.08682789       0.54404073
H       -0.79021797      -1.46251885      -1.95802364
H       -1.13037244      -2.02388313      -1.33726470
14
Frame=9 idx=009420 GeodesicLength=0.5336990886969867 rxn_smarts="[O:1]([C@@:2]1([H:9])[C:3]([H:10])([H:11])[O:4][C:5]([H:12])=[N:6][C:7]1([H:13])[H:14])[H:8]>>[H:13][H:14].[O:1]([C@@:2]1([H:9])[C:3]([H:10])([H:11])[O:4][C:5]([H:12])=[N+:6]=[C-:7]1)[H:8]"
O       -1.00014101      -0.55183302       1.42973592
C       -0.90715613       0.02548747       0.14596652
C       -0.15732835       1.36678124       0.18260040
O        1.24586350       1.21234082       0.45710554
C        1.77167588       0.00154630       0.20978175
N        1.18372854      -0.93568357      -0.41274135
C       -0.07938070      -0.71277527      -0.87400432
H       -0.17390129      -0.99542801       1.64001709
H       -1.93028163       0.20520445      -0.18446356
H       -0.26518036       1.91089696      -0.75760525
H       -0.56101955       1.95395759       1.00611890
H        2.80133877      -0.07598101       0.54046771
H       -0.77748851      -1.41463641      -1.99658486
H       -1.15072915      -1.98987755      -1.38639450
14
Frame=10 idx=009420 GeodesicLength=0.5929392748613682 rxn_smarts="[O:1]([C@@:2]1([H:9])[C:3]([H:10])([H:11])[O:4][C:5]([H:12])=[N:6][C:7]1([H:13])[H:14])[H:8]>>[H:13][H:14].[O:1]([C@@:2]1([H:9])[C:3]([H:10])([H:11])[O:4][C:5]([H:12])=[N+:6]=[C-:7]1)[H:8]"
O       -0.99347054      -0.54217756       1.45865375
C       -0.90717657       0.01195646       0.16455314
C       -0.16129797       1.35539167       0.17150221
O        1.24256531       1.21057649       0.44629659
C        1.77331353      -0.00077811       0.21353473
N        1.18714786      -0.95165930      -0.38923878
C       -0.08355597      -0.74789784      -0.84371129
H       -0.16529979      -0.97918145       1.67471700
H       -1.93234721       0.18340321      -0.16411723
H       -0.27287916       1.87875141      -0.78014981
H       -0.56437627       1.95879497       0.98353109
H        2.80679144      -0.06573810       0.53514420
H       -0.75948625      -1.36076040      -2.03276460
H       -1.16992841      -1.95068143      -1.43795098
14
Frame=11 idx=009420 GeodesicLength=0.6525461271053473 rxn_smarts="[O:1]([C@@:2]1([H:9])[C:3]([H:10])([H:11])[O:4][C:5]([H:12])=[N:6][C:7]1([H:13])[H:14])[H:8]>>[H:13][H:14].[O:1]([C@@:2]1([H:9])[C:3]([H:10])([H:11])[O:4][C:5]([H:12])=[N+:6]=[C-:7]1)[H:8]"
O       -0.98663470      -0.53149029       1.48878938
C       -0.90775890      -0.00238242       0.18402316
C       -0.16607049       1.34268066       0.15940124
O        1.23872435       1.20780268       0.43326981
C        1.77423185      -0.00425889       0.21618783
N        1.18938764      -0.96894819      -0.36515875
C       -0.08926747      -0.78526233      -0.81195711
H       -0.15635661      -0.96157399       1.71049252
H       -1.93521634       0.16045913      -0.14226708
H       -0.28207325       1.84412751      -0.80365538
H       -0.56809290       1.96289025       0.95928244
H        2.81144328      -0.05681881       0.52821760
H       -0.73539622      -1.30121478      -2.06548038
H       -1.18692024      -1.90601054      -1.49114528
14
Frame=12 idx=009420 GeodesicLength=0.7123235808461125 rxn_smarts="[O:1]([C@@:2]1([H:9])[C:3]([H:10])([H:11])[O:4][C:5]([H:12])=[N:6][C:7]1([H:13])[H:14])[H:8]>>[H:13][H:14].[O:1]([C@@:2]1([H:9])[C:3]([H:10])([H:11])[O:4][C:5]([H:12])=[N+:6]=[C-:7]1)[H:8]"
O       -0.97961414      -0.51971600       1.51932358
C       -0.90894693      -0.01727701       0.20401161
C       -0.17159405       1.32866191       0.14651443
O        1.23429982       1.20386925       0.41802676
C        1.77405131      -0.00891685       0.21758269
N        1.18987141      -0.98717611      -0.34096421
C       -0.09698974      -0.82421991      -0.77926353
H       -0.14718801      -0.94263434       1.74635529
H       -1.93884536       0.13670368      -0.11923036
H       -0.29284091       1.80732067      -0.82745741
H       -0.57184964       1.96592867       0.93368441
H        2.81495600      -0.04960804       0.51943562
H       -0.70495557      -1.23678036      -2.09328171
H       -1.20035418      -1.85615556      -1.54473716
14
Frame=13 idx=009420 GeodesicLength=0.7725984883218341 rxn_smarts="[O:1]([C@@:2]1([H:9])[C:3]([H:10])([H:11])[O:4][C:5]([H:12])=[N:6][C:7]1([H:13])[H:14])[H:8]>>[H:13][H:14].[O:1]([C@@:2]1([H:9])[C:3]([H:10])([H:11])[O:4][C:5]([H:12])=[N+:6]=[C-:7]1)[H:8]"
O       -0.97332633      -0.50738368       1.54916567
C       -0.91074899      -0.03204420       0.22365376
C       -0.17772941       1.31384587       0.13349165
O        1.22919766       1.19851017       0.40178325
C        1.77265542      -0.01489990       0.21785954
N        1.18856963      -1.00573466      -0.31747039
C       -0.10620095      -0.86311379      -0.74731060
H       -0.13894567      -0.92341150       1.78119003
H       -1.94298730       0.11338645      -0.09626078
H       -0.30427954       1.76989689      -0.85072420
H       -0.57594851       1.96771112       0.90791719
H        2.81759758      -0.04387605       0.50690411
H       -0.66865460      -1.17020021      -2.11478556
H       -1.20919899      -1.80268649      -1.59541367
14
Frame=14 idx=009420 GeodesicLength=0.8335201682138054 rxn_smarts="[O:1]([C@@:2]1([H:9])[C:3]([H:10])([H:11])[O:4][C:5]([H:12])=[N:6][C:7]1([H:13])[H:14])[H:8]>>[H:13][H:14].[O:1]([C@@:2]1([H:9])[C:3]([H:10])([H:11])[O:4][C:5]([H:12])=[N+:6]=[C-:7]1)[H:8]"
O       -0.96807722      -0.49490599       1.57713337
C       -0.91321527      -0.04610752       0.24228767
C       -0.18424992       1.29903069       0.12094960
O        1.22373787       1.19213872       0.38535512
C        1.77024246      -0.02194913       0.21716563
N        1.18555902      -1.02409728      -0.29542650
C       -0.11683116      -0.90064933      -0.71727142
H       -0.13198262      -0.90473188       1.81365207
H       -1.94771441       0.09140110      -0.07416718
H       -0.31604359       1.73348440      -0.87241408
H       -0.58019603       1.96863010       0.88298235
H        2.81967888      -0.03978045       0.49069599
H       -0.62796589      -1.10412650      -2.12967996
H       -1.21294213      -1.74833693      -1.64126264
14
Frame=15 idx=009420 GeodesicLength=0.894949639612429 rxn_smarts="[O:1]([C@@:2]1([H:9])[C:3]([H:10])([H:11])[O:4][C:5]([H:12])=[N:6][C:7]1([H:13])[H:14])[H:8]>>[H:13][H:14].[O:1]([C@@:2]1([H:9])[C:3]([H:10])([H:11])[O:4][C:5]([H:12])=[N+:6]=[C-:7]1)[H:8]"
O       -0.96417686      -0.48272082       1.60246790
C       -0.91618750      -0.05904793       0.25937814
C       -0.19085275       1.28468862       0.10936032
O        1.21805993       1.18497037       0.36976306
C        1.76692376      -0.02975243       0.21602697
N        1.18107299      -1.04165216      -0.27508372
C       -0.12839749      -0.93567933      -0.69000571
H       -0.12675386      -0.88722444       1.84308439
H       -1.95270542       0.07140908      -0.05382184
H       -0.32744804       1.69915454      -0.89196389
H       -0.58447282       1.96874342       0.85963950
H        2.82139544      -0.03692281       0.47033153
H       -0.58463723      -1.04057585      -2.13828884
H       -1.21182016      -1.69539027      -1.68088781
14
Frame=16 idx=009420 GeodesicLength=0.9567111449470642 rxn_smarts="[O:1]([C@@:2]1([H:9])[C:3]([H:10])([H:11])[O:4][C:5]([H:12])=[N:6][C:7]1([H:13])[H:14])[H:8]>>[H:13][H:14].[O:1]([C@@:2]1([H:9])[C:3]([H:10])([H:11])[O:4][C:5]([H:12])=[N+:6]=[C-:7]1)[H:8]"
O       -0.96180660      -0.47114748       1.62488294
C       -0.91952281      -0.07068290       0.27469542
C       -0.19728176       1.27116450       0.09899109
O        1.21233111       1.17730209       0.35576786
C        1.76293176      -0.03799123       0.21498438
N        1.17548452      -1.05805072      -0.25639680
C       -0.14043137      -0.96767511      -0.66581609
H       -0.12351616      -0.87129966       1.86933241
H       -1.95773337       0.05369030      -0.03570967
H       -0.33793184       1.66752927      -0.90916737
H       -0.58870234       1.96825209       0.83827555
H        2.82294558      -0.03483450       0.44557211
H       -0.54016505      -0.98069024      -2.14144915
H       -1.20660167      -1.64556640      -1.71396269
