15
Frame=0 idx=001709 GeodesicLength=0.0 rxn_smarts="[C:1]([C:2]1([H:9])[C:3]([H:10])([H:11])[C:4]([H:12])([H:13])[C:5]1([H:14])[H:15])([H:6])([H:7])[H:8]>>[C:1](=[C:2]([C:3]1([H:10])[C:4]([H:12])([H:13])[C:5]1([H:14])[H:15])[H:9])([H:7])[H:8].[H:6][H:11]"
C        1.79950641       0.01621699       0.04660160
C        0.48599028       0.46862210       0.22375933
C       -0.54265282      -0.60945632       0.39960720
C       -1.77804735       0.06314284      -0.15187400
C       -0.67561218       0.72975222      -0.94847961
H        1.34267176      -1.15559021       1.41198910
H        2.00893328      -0.75515332      -0.68576337
H        2.64452052       0.58791669       0.40386268
H        0.36740925       1.29094710       0.92848804
H       -0.28562656      -1.50935862      -0.16227389
H        0.55280312      -1.34832611       1.62977605
H       -2.28775811       0.73665729       0.53421949
H       -2.47939683      -0.56428452      -0.69147819
H       -0.72270122       1.80909112      -1.05442692
H       -0.43003951       0.23982271      -1.88400744
15
Frame=1 idx=001709 GeodesicLength=0.10270988855944352 rxn_smarts="[C:1]([C:2]1([H:9])[C:3]([H:10])([H:11])[C:4]([H:12])([H:13])[C:5]1([H:14])[H:15])([H:6])([H:7])[H:8]>>[C:1](=[C:2]([C:3]1([H:10])[C:4]([H:12])([H:13])[C:5]1([H:14])[H:15])[H:9])([H:7])[H:8].[H:6][H:11]"
C        1.80942083       0.00784723       0.06471244
C        0.49371003       0.46572410       0.22056762
C       -0.53737770      -0.61356875       0.37775411
C       -1.77926755       0.06493820      -0.14923756
C       -0.68276365       0.73086068      -0.95428060
H        1.34847007      -1.15754981       1.43535743
H        2.03103478      -0.77521537      -0.65199995
H        2.64826600       0.61648422       0.37338206
H        0.36848273       1.28438792       0.92893227
H       -0.28342784      -1.51079231      -0.18920579
H        0.52453051      -1.34735193       1.62672903
H       -2.27640466       0.73277093       0.55125383
H       -2.48794271      -0.55995483      -0.68233546
H       -0.73065424       1.81090430      -1.05446512
H       -0.44607658       0.25051541      -1.89716430
15
Frame=2 idx=001709 GeodesicLength=0.20538003014973394 rxn_smarts="[C:1]([C:2]1([H:9])[C:3]([H:10])([H:11])[C:4]([H:12])([H:13])[C:5]1([H:14])[H:15])([H:6])([H:7])[H:8]>>[C:1](=[C:2]([C:3]1([H:10])[C:4]([H:12])([H:13])[C:5]1([H:14])[H:15])[H:9])([H:7])[H:8].[H:6][H:11]"
C        1.81943446      -0.00015167       0.08380048
C        0.50165864       0.46304529       0.21732346
C       -0.53167229      -0.61738920       0.35543777
C       -1.78011354       0.06631892      -0.14665439
C       -0.69005652       0.73244590      -0.95998135
H        1.35398000      -1.15855644       1.46001652
H        2.05286212      -0.79541425      -0.61610982
H        2.65127085       0.64248262       0.33960426
H        0.36957300       1.27788606       0.92939570
H       -0.28040733      -1.51164914      -0.21680532
H        0.49551820      -1.34604753       1.62321316
H       -2.26479585       0.72783579       0.56818384
H       -2.49571283      -0.55630662      -0.67328057
H       -0.73903434       1.81319987      -1.05379552
H       -0.46250455       0.26230040      -1.91034821
15
Frame=3 idx=001709 GeodesicLength=0.3079410160519146 rxn_smarts="[C:1]([C:2]1([H:9])[C:3]([H:10])([H:11])[C:4]([H:12])([H:13])[C:5]1([H:14])[H:15])([H:6])([H:7])[H:8]>>[C:1](=[C:2]([C:3]1([H:10])[C:4]([H:12])([H:13])[C:5]1([H:14])[H:15])[H:9])([H:7])[H:8].[H:6][H:11]"
C        1.82952771      -0.00763928       0.10375919
C        0.50984296       0.46065369       0.21397931
C       -0.52547991      -0.62086397       0.33264064
C       -1.78057676       0.06724547      -0.14411272
C       -0.69754374       0.73452295      -0.96558993
H        1.35932481      -1.15845240       1.48591158
H        2.07431774      -0.81563985      -0.57809894
H        2.65354848       0.66528420       0.30291998
H        0.37067831       1.27152318       0.92980003
H       -0.27647152      -1.51185598      -0.24509550
H        0.46580637      -1.34433248       1.61913119
H       -2.25293110       0.72180257       0.58501343
H       -2.50268135      -0.55342862      -0.66428301
H       -0.74794394       1.81597796      -1.05242672
H       -0.47941805       0.27520258      -1.92354852
15
Frame=4 idx=001709 GeodesicLength=0.4105171674848788 rxn_smarts="[C:1]([C:2]1([H:9])[C:3]([H:10])([H:11])[C:4]([H:12])([H:13])[C:5]1([H:14])[H:15])([H:6])([H:7])[H:8]>>[C:1](=[C:2]([C:3]1([H:10])[C:4]([H:12])([H:13])[C:5]1([H:14])[H:15])[H:9])([H:7])[H:8].[H:6][H:11]"
C        1.83968582      -0.01449675       0.12443706
C        0.51827310       0.45861470       0.21048062
C       -0.51876469      -0.62394272       0.30934742
C       -1.78066548       0.06768054      -0.14159339
C       -0.70527670       0.73709428      -0.97112093
H        1.36468572      -1.15707183       1.51296763
H        2.09530847      -0.83578163      -0.53803876
H        2.65516787       0.68432680       0.26385360
H        0.37180879       1.26539297       0.93006678
H       -0.27155958      -1.51135793      -0.27410391
H        0.43539474      -1.34213596       1.61438540
H       -2.24082008       0.71464282       0.60176356
H       -2.50885322      -0.55141278      -0.65530170
H       -0.75746804       1.81923140      -1.05037542
H       -0.49691672       0.28921607      -1.93676796
15
Frame=5 idx=001709 GeodesicLength=0.5129646073218924 rxn_smarts="[C:1]([C:2]1([H:9])[C:3]([H:10])([H:11])[C:4]([H:12])([H:13])[C:5]1([H:14])[H:15])([H:6])([H:7])[H:8]>>[C:1](=[C:2]([C:3]1([H:10])[C:4]([H:12])([H:13])[C:5]1([H:14])[H:15])[H:9])([H:7])[H:8].[H:6][H:11]"
C        1.84986057      -0.02064415       0.14566030
C        0.52695174       0.45697557       0.20677549
C       -0.51148862      -0.62657315       0.28554895
C       -1.78037056       0.06759243      -0.13908932
C       -0.71331629       0.74016486      -0.97658407
H        1.37022310      -1.15419914       1.54115628
H        2.11569587      -0.85574694      -0.49601283
H        2.65622500       0.69910406       0.22295554
H        0.37298212       1.25954969       0.93011235
H       -0.26562633      -1.51008379      -0.30383715
H        0.40434370      -1.33943287       1.60885322
H       -2.22844288       0.70632558       0.61841955
H       -2.51420292      -0.55032883      -0.64631202
H       -0.76770349       1.82294391      -1.04765757
H       -0.51513100       0.30435275      -1.94998873
15
Frame=6 idx=001709 GeodesicLength=0.6154216158169864 rxn_smarts="[C:1]([C:2]1([H:9])[C:3]([H:10])([H:11])[C:4]([H:12])([H:13])[C:5]1([H:14])[H:15])([H:6])([H:7])[H:8]>>[C:1](=[C:2]([C:3]1([H:10])[C:4]([H:12])([H:13])[C:5]1([H:14])[H:15])[H:9])([H:7])[H:8].[H:6][H:11]"
C        1.86002052      -0.02604410       0.16724410
C        0.53588024       0.45576708       0.20282316
C       -0.50364631      -0.62871306       0.26123750
C       -1.77970467       0.06696100      -0.13659098
C       -0.72170470       0.74372160      -0.98198176
H        1.37617479      -1.14964533       1.57045856
H        2.13535757      -0.87545845      -0.45215604
H        2.65685309       0.70927521       0.18078078
H        0.37421154       1.25404992       0.92987200
H       -0.25866118      -1.50799109      -0.33430837
H        0.37262868      -1.33621565       1.60239643
H       -2.21580528       0.69685689       0.63497697
H       -2.51873931      -0.55023402      -0.63728768
H       -0.77870576       1.82708871      -1.04427912
H       -0.53415923       0.32058128      -1.96318554
15
Frame=7 idx=001709 GeodesicLength=0.7177592588465704 rxn_smarts="[C:1]([C:2]1([H:9])[C:3]([H:10])([H:11])[C:4]([H:12])([H:13])[C:5]1([H:14])[H:15])([H:6])([H:7])[H:8]>>[C:1](=[C:2]([C:3]1([H:10])[C:4]([H:12])([H:13])[C:5]1([H:14])[H:15])[H:9])([H:7])[H:8].[H:6][H:11]"
C        1.87010968      -0.03069683       0.18900172
C        0.54505450       0.45499735       0.19859874
C       -0.49523642      -0.63032353       0.23641433
C       -1.77866345       0.06577260      -0.13410269
C       -0.73048411       0.74775303      -0.98731265
H        1.38274267      -1.14316003       1.60091662
H        2.15413622      -0.89485594      -0.40661221
H        2.65718043       0.71457607       0.13784234
H        0.37552064       1.24890507       0.92929763
H       -0.25067791      -1.50502385      -0.36551582
H        0.34028610      -1.33254103       1.59485976
H       -2.20288180       0.68623920       0.65140275
H       -2.52244783      -0.55115874      -0.62822682
H       -0.79052307       1.83163019      -1.04024482
H       -0.55411564       0.33788645      -1.97631887
15
Frame=8 idx=001709 GeodesicLength=0.8199244232482572 rxn_smarts="[C:1]([C:2]1([H:9])[C:3]([H:10])([H:11])[C:4]([H:12])([H:13])[C:5]1([H:14])[H:15])([H:6])([H:7])[H:8]>>[C:1](=[C:2]([C:3]1([H:10])[C:4]([H:12])([H:13])[C:5]1([H:14])[H:15])[H:9])([H:7])[H:8].[H:6][H:11]"
C        1.88032488      -0.03462524       0.21081109
C        0.55455079       0.45473096       0.19410266
C       -0.48632134      -0.63147032       0.21103302
C       -1.77746392       0.06399981      -0.13166093
C       -0.73975359       0.75235324      -0.99255968
H        1.39003114      -1.13428685       1.63282595
H        2.17218508      -0.91416812      -0.35930594
H        2.65772246       0.71485884       0.09425557
H        0.37695205       1.24427600       0.92840940
H       -0.24169783      -1.50132804      -0.39755552
H        0.30742038      -1.32873781       1.58600160
H       -2.18994249       0.67451624       0.66767361
H       -2.52561759      -0.55322828      -0.61920134
H       -0.80328210       1.83678506      -1.03547618
H       -0.57510794       0.35632451      -1.98935330
15
Frame=9 idx=001709 GeodesicLength=0.9224844843565618 rxn_smarts="[C:1]([C:2]1([H:9])[C:3]([H:10])([H:11])[C:4]([H:12])([H:13])[C:5]1([H:14])[H:15])([H:6])([H:7])[H:8]>>[C:1](=[C:2]([C:3]1([H:10])[C:4]([H:12])([H:13])[C:5]1([H:14])[H:15])[H:9])([H:7])[H:8].[H:6][H:11]"
C        1.88995370      -0.03789324       0.23245580
C        0.56411891       0.45473572       0.18940432
C       -0.47682204      -0.63189360       0.18521014
C       -1.77549442       0.06168305      -0.12922597
C       -0.74924548       0.75722757      -0.99769935
H        1.39878396      -1.12322285       1.66572856
H        2.18847818      -0.93268914      -0.31071608
H        2.65726138       0.71007624       0.05057972
H        0.37841132       1.23965186       0.92722763
H       -0.23178199      -1.49634191      -0.43026292
H        0.27350185      -1.32433182       1.57593340
H       -2.17619826       0.66157152       0.68375939
H       -2.52740562      -0.55613533      -0.61015225
H       -0.81657822       1.84184649      -1.03003815
H       -0.59698325       0.37571545      -2.00220424
15
Frame=10 idx=001709 GeodesicLength=1.0246335620296627 rxn_smarts="[C:1]([C:2]1([H:9])[C:3]([H:10])([H:11])[C:4]([H:12])([H:13])[C:5]1([H:14])[H:15])([H:6])([H:7])[H:8]>>[C:1](=[C:2]([C:3]1([H:10])[C:4]([H:12])([H:13])[C:5]1([H:14])[H:15])[H:9])([H:7])[H:8].[H:6][H:11]"
C        1.89958461      -0.04059655       0.25370752
C        0.57395495       0.45517339       0.18450481
C       -0.46695244      -0.63177896       0.15896198
C       -1.77340124       0.05882933      -0.12686961
C       -0.75923406       0.76256130      -1.00274869
H        1.40900111      -1.10933245       1.70007971
H        2.20369184      -0.95087844      -0.26114019
H        2.65717875       0.70017934       0.00758013
H        0.38004007       1.23551118       0.92574917
H       -0.22109427      -1.49057598      -0.46362054
H        0.23909187      -1.32004053       1.56426747
H       -2.16246249       0.64772662       0.69951280
H       -2.52867135      -0.56014906      -0.60118962
H       -0.83071961       1.84736026      -1.02396990
H       -0.62000773       0.39601056      -2.01482504
15
Frame=11 idx=001709 GeodesicLength=1.1267774631287106 rxn_smarts="[C:1]([C:2]1([H:9])[C:3]([H:10])([H:11])[C:4]([H:12])([H:13])[C:5]1([H:14])[H:15])([H:6])([H:7])[H:8]>>[C:1](=[C:2]([C:3]1([H:10])[C:4]([H:12])([H:13])[C:5]1([H:14])[H:15])[H:9])([H:7])[H:8].[H:6][H:11]"
C        1.90899058      -0.04283773       0.27447152
C        0.58395636       0.45591644       0.17950953
C       -0.45673287      -0.63106642       0.13228584
C       -1.77100620       0.05545423      -0.12464007
C       -0.76960243       0.76829847      -1.00764945
H        1.42124479      -1.09220342       1.73609603
H        2.21738432      -0.96868716      -0.21054666
H        2.65702425       0.68518988      -0.03497675
H        0.38177777       1.23159665       0.92410796
H       -0.20968452      -1.48382209      -0.49767838
H        0.20392596      -1.31598910       1.55083299
H       -2.14851925       0.63290021       0.71489766
H       -2.52915350      -0.56512984      -0.59243024
H       -0.84553042       1.85313288      -1.01715425
H       -0.64407482       0.41724701      -2.02712575
15
Frame=12 idx=001709 GeodesicLength=1.2288726963033942 rxn_smarts="[C:1]([C:2]1([H:9])[C:3]([H:10])([H:11])[C:4]([H:12])([H:13])[C:5]1([H:14])[H:15])([H:6])([H:7])[H:8]>>[C:1](=[C:2]([C:3]1([H:10])[C:4]([H:12])([H:13])[C:5]1([H:14])[H:15])[H:9])([H:7])[H:8].[H:6][H:11]"
C        1.91824622      -0.04474618       0.29461662
C        0.59412152       0.45691541       0.17450896
C       -0.44625900      -0.62979885       0.10517153
C       -1.76842805       0.05157271      -0.12261263
C       -0.78038081       0.77449369      -1.01236953
H        1.43595822      -1.07114103       1.77413670
H        2.22951145      -0.98628567      -0.15892754
H        2.65691600       0.66503961      -0.07706925
H        0.38363780       1.22786220       0.92242859
H       -0.19765903      -1.47611782      -0.53249676
H        0.16807013      -1.31261421       1.53535984
H       -2.13451250       0.61713429       0.72982783
H       -2.52900548      -0.57105792      -0.58403048
H       -0.86100316       1.85925880      -1.00950972
H       -0.66921332       0.43948497      -2.03903415
15
Frame=13 idx=001709 GeodesicLength=1.3310951845729133 rxn_smarts="[C:1]([C:2]1([H:9])[C:3]([H:10])([H:11])[C:4]([H:12])([H:13])[C:5]1([H:14])[H:15])([H:6])([H:7])[H:8]>>[C:1](=[C:2]([C:3]1([H:10])[C:4]([H:12])([H:13])[C:5]1([H:14])[H:15])[H:9])([H:7])[H:8].[H:6][H:11]"
C        1.92701574      -0.04644034       0.31398925
C        0.60425433       0.45797914       0.16972169
C       -0.43560941      -0.62787751       0.07770205
C       -1.76544099       0.04723694      -0.12084879
C       -0.79132667       0.78102052      -1.01682186
H        1.45406004      -1.04572172       1.81429520
H        2.23949973      -1.00346758      -0.10649961
H        2.65600585       0.63973613      -0.11889126
H        0.38547146       1.22396225       0.92096384
H       -0.18510369      -1.46720605      -0.56800923
H        0.13116015      -1.31000383       1.51771562
H       -2.12026498       0.60041161       0.74420514
H       -2.52784777      -0.57770699      -0.57617402
H       -0.87678614       1.86541793      -1.00093375
H       -0.69508765       0.46265948      -2.05041427
15
Frame=14 idx=001709 GeodesicLength=1.4332339289215779 rxn_smarts="[C:1]([C:2]1([H:9])[C:3]([H:10])([H:11])[C:4]([H:12])([H:13])[C:5]1([H:14])[H:15])([H:6])([H:7])[H:8]>>[C:1](=[C:2]([C:3]1([H:10])[C:4]([H:12])([H:13])[C:5]1([H:14])[H:15])[H:9])([H:7])[H:8].[H:6][H:11]"
C        1.93557060      -0.04814589       0.33244461
C        0.61440651       0.45905990       0.16522981
C       -0.42495838      -0.62543017       0.04984033
C       -1.76238848       0.04248385      -0.11946496
C       -0.80259196       0.78801600      -1.02100800
H        1.47617572      -1.01479685       1.85706646
H        2.24755796      -1.02059490      -0.05327063
H        2.65478425       0.60913298      -0.16008095
H        0.38734768       1.21991636       0.91984391
H       -0.17222539      -1.45728199      -0.60431434
H        0.09348764      -1.30890784       1.49749021
H       -2.10614730       0.58285150       0.75790646
H       -2.52617324      -0.58507930      -0.56907179
H       -0.89297791       1.87189990      -0.99138800
H       -0.72186770       0.48687644      -2.06122311
15
Frame=15 idx=001709 GeodesicLength=1.5353791171066167 rxn_smarts="[C:1]([C:2]1([H:9])[C:3]([H:10])([H:11])[C:4]([H:12])([H:13])[C:5]1([H:14])[H:15])([H:6])([H:7])[H:8]>>[C:1](=[C:2]([C:3]1([H:10])[C:4]([H:12])([H:13])[C:5]1([H:14])[H:15])[H:9])([H:7])[H:8].[H:6][H:11]"
C        1.94377996      -0.05005980       0.34987386
C        0.62444649       0.45997540       0.16123130
C       -0.41441090      -0.62245505       0.02153601
C       -1.75924502       0.03733563      -0.11858481
C       -0.81407042       0.79551680      -1.02482837
H        1.50338576      -0.97708372       1.90284852
H        2.25331493      -1.03781446       0.00100761
H        2.65271314       0.57286967      -0.20101102
H        0.38915300       1.21540128       0.91935831
H       -0.15911234      -1.44618002      -0.64156953
H        0.05489346      -1.30980183       1.47429669
H       -2.09219079       0.56434218       0.77084691
H       -2.52389519      -0.59301164      -0.56303069
H       -0.90940654       1.87865117      -0.98063396
H       -0.74935553       0.51231437      -2.07134083
15
Frame=16 idx=001709 GeodesicLength=1.6375661812012625 rxn_smarts="[C:1]([C:2]1([H:9])[C:3]([H:10])([H:11])[C:4]([H:12])([H:13])[C:5]1([H:14])[H:15])([H:6])([H:7])[H:8]>>[C:1](=[C:2]([C:3]1([H:10])[C:4]([H:12])([H:13])[C:5]1([H:14])[H:15])[H:9])([H:7])[H:8].[H:6][H:11]"
C        1.95161173      -0.05244240       0.36618365
C        0.63426331       0.46052832       0.15793590
C       -0.40411394      -0.61900047      -0.00729223
C       -1.75611058       0.03181353      -0.11836567
C       -0.82571642       0.80362398      -1.02818723
H        1.53703376      -0.93090966       1.95198321
H        2.25650239      -1.05536247       0.05671717
H        2.64937716       0.53039860      -0.24190463
H        0.39078168       1.21009935       0.91982321
H       -0.14588255      -1.43380264      -0.67998021
H        0.01528991      -1.31333275       1.44766591
H       -2.07856909       0.54477202       0.78291494
H       -2.52111025      -0.60135250      -0.55842342
H       -0.92595689       1.88573854      -0.96841774
H       -0.77740023       0.53922855      -2.08065287
