13
Frame=0 idx=009827 GeodesicLength=0.0 rxn_smarts="[C:1]1([H:8])([H:9])[O:2][C@@:3]2([H:10])[C@@:4]3([H:11])[O:5][C@:6]1([H:12])[C@@:7]23[H:13]>>[C:1]([C:6]1=[C:7]([H:13])[C@:4]([C:3](=[O:2])[H:10])([H:11])[O:5]1)([H:8])([H:9])[H:12]"
C        0.66420592       1.12807917       1.16794764
O        0.34816465      -1.37819257       1.18589844
C        0.03423108      -1.55181710      -0.00177250
C       -1.05311917      -0.75013653      -0.68572873
O       -1.41008886       0.29411912       0.24132823
C       -0.13481064       0.83623256       0.02284568
C        0.13542155       0.04331516      -1.13264946
H        1.71571460       1.34774810       1.02867517
H        0.16162054       1.46580135       2.06566790
H        0.56753833      -2.26947089      -0.64500678
H       -1.85877719      -1.17104149      -1.28324034
H       -0.05806657       2.00539870      -0.06681085
H        0.88796580      -0.00003561      -1.89715440
13
Frame=1 idx=009827 GeodesicLength=0.05990152376055749 rxn_smarts="[C:1]1([H:8])([H:9])[O:2][C@@:3]2([H:10])[C@@:4]3([H:11])[O:5][C@:6]1([H:12])[C@@:7]23[H:13]>>[C:1]([C:6]1=[C:7]([H:13])[C@:4]([C:3](=[O:2])[H:10])([H:11])[O:5]1)([H:8])([H:9])[H:12]"
C        0.66087568       1.12489087       1.16285785
O        0.35651899      -1.36729833       1.18827560
C        0.03703706      -1.55075055      -0.00015996
C       -1.05142805      -0.75223593      -0.68449297
O       -1.41486254       0.29819023       0.23202289
C       -0.14048504       0.84360332       0.01260094
C        0.13818101       0.03955132      -1.13294979
H        1.71229810       1.34725664       1.02326032
H        0.16097699       1.45015255       2.06695708
H        0.55829992      -2.28401148      -0.63484845
H       -1.85222687      -1.17829350      -1.28446473
H       -0.04856428       2.02610954      -0.04394088
H        0.88337903       0.00283531      -1.90511790
13
Frame=2 idx=009827 GeodesicLength=0.11977675481777567 rxn_smarts="[C:1]1([H:8])([H:9])[O:2][C@@:3]2([H:10])[C@@:4]3([H:11])[O:5][C@:6]1([H:12])[C@@:7]23[H:13]>>[C:1]([C:6]1=[C:7]([H:13])[C@:4]([C:3](=[O:2])[H:10])([H:11])[O:5]1)([H:8])([H:9])[H:12]"
C        0.65757546       1.12167629       1.15764723
O        0.36483595      -1.35644316       1.19054581
C        0.03990608      -1.54968107       0.00139198
C       -1.04961523      -0.75423681      -0.68329140
O       -1.41942480       0.30229510       0.22256793
C       -0.14596349       0.85112332       0.00209088
C        0.14115000       0.03576552      -1.13324220
H        1.70890228       1.34684871       1.01786157
H        0.16036601       1.43459479       2.06786773
H        0.54880316      -2.29858111      -0.62424150
H       -1.84556389      -1.18535424      -1.28568994
H       -0.03958607       2.04629112      -0.02025244
H        0.87861454       0.00570151      -1.91325565
13
Frame=3 idx=009827 GeodesicLength=0.17960418411995574 rxn_smarts="[C:1]1([H:8])([H:9])[O:2][C@@:3]2([H:10])[C@@:4]3([H:11])[O:5][C@:6]1([H:12])[C@@:7]23[H:13]>>[C:1]([C:6]1=[C:7]([H:13])[C@:4]([C:3](=[O:2])[H:10])([H:11])[O:5]1)([H:8])([H:9])[H:12]"
C        0.65430854       1.11844766       1.15232146
O        0.37312307      -1.34563917       1.19270175
C        0.04283521      -1.54861608       0.00287430
C       -1.04768346      -0.75613542      -0.68212423
O       -1.42377183       0.30643725       0.21296577
C       -0.15123105       0.85876598      -0.00866736
C        0.14432263       0.03196698      -1.13352779
H        1.70552844       1.34653812       1.01248463
H        0.15978714       1.41914925       2.06840984
H        0.53904696      -2.31315024      -0.61319288
H       -1.83879870      -1.19221286      -1.28691418
H       -0.03113642       2.06589374       0.00421583
H        0.87366948       0.00855479      -1.92154714
13
Frame=4 idx=009827 GeodesicLength=0.23936209646587736 rxn_smarts="[C:1]1([H:8])([H:9])[O:2][C@@:3]2([H:10])[C@@:4]3([H:11])[O:5][C@:6]1([H:12])[C@@:7]23[H:13]>>[C:1]([C:6]1=[C:7]([H:13])[C@:4]([C:3](=[O:2])[H:10])([H:11])[O:5]1)([H:8])([H:9])[H:12]"
C        0.65107985       1.11521694       1.14688669
O        0.38138653      -1.33490206       1.19473651
C        0.04582149      -1.54756484       0.00427826
C       -1.04563707      -0.75792835      -0.68099137
O       -1.42790324       0.31062001       0.20321887
C       -0.15627564       0.86650496      -0.01965666
C        0.14769266       0.02816675      -1.13380919
H        1.70218228       1.34633533       1.00713571
H        0.15924203       1.40383506       2.06859494
H        0.52903406      -2.32768633      -0.60170851
H       -1.83194398      -1.19885928      -1.28813474
H       -0.02322435       2.08487457       0.02941834
H        0.86854538       0.01138724      -1.92996886
13
Frame=5 idx=009827 GeodesicLength=0.2991168517626502 rxn_smarts="[C:1]1([H:8])([H:9])[O:2][C@@:3]2([H:10])[C@@:4]3([H:11])[O:5][C@:6]1([H:12])[C@@:7]23[H:13]>>[C:1]([C:6]1=[C:7]([H:13])[C@:4]([C:3](=[O:2])[H:10])([H:11])[O:5]1)([H:8])([H:9])[H:12]"
C        0.64788820       1.11200939       1.14134563
O        0.38962745      -1.32423799       1.19663505
C        0.04885734      -1.54654032       0.00558884
C       -1.04348524      -0.75962388      -0.67989246
O       -1.43182615       0.31484339       0.19333242
C       -0.16108701       0.87431730      -0.03086536
C        0.15124445       0.02436419      -1.13409721
H        1.69887127       1.34625692       1.00181442
H        0.15871886       1.38867919       2.06843924
H        0.51877207      -2.34216225      -0.58980176
H       -1.82501549      -1.20530481      -1.28934514
H       -0.01581786       2.10321341       0.05535247
H        0.86325211       0.01418546      -1.93850614
13
Frame=6 idx=009827 GeodesicLength=0.3587858412799231 rxn_smarts="[C:1]1([H:8])([H:9])[O:2][C@@:3]2([H:10])[C@@:4]3([H:11])[O:5][C@:6]1([H:12])[C@@:7]23[H:13]>>[C:1]([C:6]1=[C:7]([H:13])[C@:4]([C:3](=[O:2])[H:10])([H:11])[O:5]1)([H:8])([H:9])[H:12]"
C        0.64469770       1.10880734       1.13571400
O        0.39789486      -1.31363371       1.19840419
C        0.05196354      -1.54551867       0.00681418
C       -1.04123071      -0.76121060      -0.67881209
O       -1.43553215       0.31910225       0.18331817
C       -0.16567164       0.88217514      -0.04225950
C        0.15494110       0.02058457      -1.13437694
H        1.69553471       1.34627695       0.99654577
H        0.15820117       1.37366946       2.06795227
H        0.50827258      -2.35652762      -0.57751678
H       -1.81801970      -1.21153350      -1.29052875
H       -0.00881301       2.12085338       0.08186048
H        0.85776156       0.01695502      -1.94711500
13
Frame=7 idx=009827 GeodesicLength=0.41845717338441435 rxn_smarts="[C:1]1([H:8])([H:9])[O:2][C@@:3]2([H:10])[C@@:4]3([H:11])[O:5][C@:6]1([H:12])[C@@:7]23[H:13]>>[C:1]([C:6]1=[C:7]([H:13])[C@:4]([C:3](=[O:2])[H:10])([H:11])[O:5]1)([H:8])([H:9])[H:12]"
C        0.64153709       1.10565584       1.12999960
O        0.40617954      -1.30311569       1.20002983
C        0.05512429      -1.54453842       0.00793220
C       -1.03889135      -0.76270475      -0.67776479
O       -1.43904928       0.32340417       0.17317461
C       -0.17002152       0.89006981      -0.05383082
C        0.15878818       0.01682173      -1.13467209
H        1.69222766       1.34644489       0.99132963
H        0.15769979       1.35883992       2.06716886
H        0.49753412      -2.37079160      -0.56485221
H       -1.81098842      -1.21756969      -1.29170252
H       -0.00224888       2.13781103       0.10897703
H        0.85210877       0.01967276      -1.95578933
13
Frame=8 idx=009827 GeodesicLength=0.47802717188650673 rxn_smarts="[C:1]1([H:8])([H:9])[O:2][C@@:3]2([H:10])[C@@:4]3([H:11])[O:5][C@:6]1([H:12])[C@@:7]23[H:13]>>[C:1]([C:6]1=[C:7]([H:13])[C@:4]([C:3](=[O:2])[H:10])([H:11])[O:5]1)([H:8])([H:9])[H:12]"
C        0.63840406       1.10252807       1.12420796
O        0.41445945      -1.29268750       1.20148520
C        0.05831932      -1.54357293       0.00894396
C       -1.03645136      -0.76408581      -0.67672512
O       -1.44235778       0.32773552       0.16291354
C       -0.17413666       0.89794918      -0.06556928
C        0.16278230       0.01310505      -1.13496137
H        1.68892746       1.34673427       0.98615592
H        0.15721056       1.34414916       2.06609717
H        0.48657416      -2.38487259      -0.55179422
H       -1.80388716      -1.22337932      -1.29282247
H        0.00387211       2.15404981       0.13657417
H        0.84628354       0.02234709      -1.96450546
13
Frame=9 idx=009827 GeodesicLength=0.5375702673720463 rxn_smarts="[C:1]1([H:8])([H:9])[O:2][C@@:3]2([H:10])[C@@:4]3([H:11])[O:5][C@:6]1([H:12])[C@@:7]23[H:13]>>[C:1]([C:6]1=[C:7]([H:13])[C@:4]([C:3](=[O:2])[H:10])([H:11])[O:5]1)([H:8])([H:9])[H:12]"
C        0.63528135       1.09947202       1.11833898
O        0.42280430      -1.28232782       1.20279268
C        0.06158972      -1.54263476       0.00984284
C       -1.03392978      -0.76537031      -0.67571698
O       -1.44548420       0.33211248       0.15251768
C       -0.17802261       0.90584354      -0.07746315
C        0.16689621       0.00943138      -1.13527806
H        1.68562941       1.34717606       0.98103773
H        0.15673120       1.32960262       2.06476213
H        0.47534839      -2.39881095      -0.53834811
H       -1.79675137      -1.22900758      -1.29393233
H        0.00962247       2.16955375       0.16470263
H        0.84028491       0.02495957      -1.97325603
13
Frame=10 idx=009827 GeodesicLength=0.5970233387234809 rxn_smarts="[C:1]1([H:8])([H:9])[O:2][C@@:3]2([H:10])[C@@:4]3([H:11])[O:5][C@:6]1([H:12])[C@@:7]23[H:13]>>[C:1]([C:6]1=[C:7]([H:13])[C@:4]([C:3](=[O:2])[H:10])([H:11])[O:5]1)([H:8])([H:9])[H:12]"
C        0.63216399       1.09649057       1.11239047
O        0.43122163      -1.27203042       1.20393091
C        0.06493725      -1.54170999       0.01062012
C       -1.03131875      -0.76655090      -0.67473035
O       -1.44842550       0.33652702       0.14199417
C       -0.18167752       0.91373766      -0.08950447
C        0.17112291       0.00581529      -1.13562049
H        1.68232587       1.34777962       0.97596537
H        0.15625691       1.31516238       2.06317586
H        0.46382176      -2.41258038      -0.52448987
H       -1.78955947      -1.23445099      -1.29501559
H        0.01500939       2.18428739       0.19330749
H        0.83412155       0.02752274      -1.98202363
13
Frame=11 idx=009827 GeodesicLength=0.6564616559720484 rxn_smarts="[C:1]1([H:8])([H:9])[O:2][C@@:3]2([H:10])[C@@:4]3([H:11])[O:5][C@:6]1([H:12])[C@@:7]23[H:13]>>[C:1]([C:6]1=[C:7]([H:13])[C@:4]([C:3](=[O:2])[H:10])([H:11])[O:5]1)([H:8])([H:9])[H:12]"
C        0.62904882       1.09358551       1.10637736
O        0.43971097      -1.26180861       1.20489656
C        0.06834818      -1.54080707       0.01127438
C       -1.02863118      -0.76763383      -0.67376279
O       -1.45119701       0.34097296       0.13134962
C       -0.18512230       0.92159960      -0.10167614
C        0.17544685       0.00226545      -1.13599233
H        1.67900766       1.34852355       0.97094810
H        0.15578919       1.30084640       2.06135664
H        0.45205263      -2.42613528      -0.51025259
H       -1.78233288      -1.23971489      -1.29606503
H        0.02008308       2.19829420       0.22232872
H        0.82779600       0.03001201      -1.99078249
13
Frame=12 idx=009827 GeodesicLength=0.715858021997273 rxn_smarts="[C:1]1([H:8])([H:9])[O:2][C@@:3]2([H:10])[C@@:4]3([H:11])[O:5][C@:6]1([H:12])[C@@:7]23[H:13]>>[C:1]([C:6]1=[C:7]([H:13])[C@:4]([C:3](=[O:2])[H:10])([H:11])[O:5]1)([H:8])([H:9])[H:12]"
C        0.62592190       1.09077042       1.10029926
O        0.44830027      -1.25164507       1.20567496
C        0.07184190      -1.53991907       0.01179329
C       -1.02586954      -0.76862197      -0.67281285
O       -1.45380764       0.34544536       0.12058425
C       -0.18835831       0.92943482      -0.11397599
C        0.17984886      -0.00120817      -1.13640368
H        1.67567006       1.34941855       0.96598343
H        0.15532002       1.28662513       2.05931981
H        0.43999979      -2.43947232      -0.49560935
H       -1.77507136      -1.24481566      -1.29707700
H        0.02487690       2.21154947       0.25174896
H        0.82132713       0.03243853      -1.99952509
13
Frame=13 idx=009827 GeodesicLength=0.7752235551984907 rxn_smarts="[C:1]1([H:8])([H:9])[O:2][C@@:3]2([H:10])[C@@:4]3([H:11])[O:5][C@:6]1([H:12])[C@@:7]23[H:13]>>[C:1]([C:6]1=[C:7]([H:13])[C@:4]([C:3](=[O:2])[H:10])([H:11])[O:5]1)([H:8])([H:9])[H:12]"
C        0.62278039       1.08805229       1.09415888
O        0.45700834      -1.24153693       1.20626113
C        0.07542590      -1.53904218       0.01217106
C       -1.02303304      -0.76951537      -0.67188276
O       -1.45626468       0.34994124       0.10969505
C       -0.19139710       0.93723456      -0.12639794
C        0.18432488      -0.00459498      -1.13686316
H        1.67230399       1.35047445       0.96106767
H        0.15485652       1.27247961       2.05707945
H        0.42763909      -2.45258010      -0.48054698
H       -1.76776945      -1.24976270      -1.29805592
H        0.02940709       2.22405769       0.28155323
H        0.81471807       0.03479243      -2.00823970
13
Frame=14 idx=009827 GeodesicLength=0.8345579195334525 rxn_smarts="[C:1]1([H:8])([H:9])[O:2][C@@:3]2([H:10])[C@@:4]3([H:11])[O:5][C@:6]1([H:12])[C@@:7]23[H:13]>>[C:1]([C:6]1=[C:7]([H:13])[C@:4]([C:3](=[O:2])[H:10])([H:11])[O:5]1)([H:8])([H:9])[H:12]"
C        0.61961467       1.08543620       1.08795942
O        0.46585437      -1.23147837       1.20664169
C        0.07910625      -1.53817572       0.01240239
C       -1.02012095      -0.77031643      -0.67096861
O       -1.45857250       0.35445841       0.09868139
C       -0.19424143       0.94499298      -0.13893686
C        0.18886461      -0.00789102      -1.13737322
H        1.66889888       1.35169362       0.95620436
H        0.15439203       1.25838893       2.05464561
H        0.41495336      -2.46544403      -0.46504780
H       -1.76042094      -1.25456365      -1.29899852
H        0.03370150       2.23582545       0.31172175
H        0.80797014       0.03707364      -2.01693159
13
Frame=15 idx=009827 GeodesicLength=0.8938914180307724 rxn_smarts="[C:1]1([H:8])([H:9])[O:2][C@@:3]2([H:10])[C@@:4]3([H:11])[O:5][C@:6]1([H:12])[C@@:7]23[H:13]>>[C:1]([C:6]1=[C:7]([H:13])[C@:4]([C:3](=[O:2])[H:10])([H:11])[O:5]1)([H:8])([H:9])[H:12]"
C        0.61641794       1.08293352       1.08170382
O        0.47486294      -1.22146159       1.20680929
C        0.08289256      -1.53731989       0.01247926
C       -1.01713459      -0.77103142      -0.67007483
O       -1.46074000       0.35898989       0.08754071
C       -0.19690113       0.95270749      -0.15159257
C        0.19346485      -0.01109066      -1.13794904
H        1.66544883       1.35308778       0.95139207
H        0.15392944       1.24433839       2.05203332
H        0.40191121      -2.47805835      -0.44908864
H       -1.75302516      -1.25923384      -1.29991363
H        0.03778423       2.24686106       0.34226052
H        0.80108889       0.03927762      -2.02560027
13
Frame=16 idx=009827 GeodesicLength=0.9532209887628098 rxn_smarts="[C:1]1([H:8])([H:9])[O:2][C@@:3]2([H:10])[C@@:4]3([H:11])[O:5][C@:6]1([H:12])[C@@:7]23[H:13]>>[C:1]([C:6]1=[C:7]([H:13])[C@:4]([C:3](=[O:2])[H:10])([H:11])[O:5]1)([H:8])([H:9])[H:12]"
C        0.61317881       1.08053815       1.07538657
O        0.48405624      -1.21147622       1.20674556
C        0.08679527      -1.53646615       0.01239546
C       -1.01406995      -0.77165433      -0.66920056
O       -1.46276997       0.36353265       0.07626621
C       -0.19938540       0.96036871      -0.16436657
C        0.19811557      -0.01418851      -1.13858953
H        1.66193732       1.35464933       0.94662359
H        0.15347095       1.23029589       2.04923756
H        0.38849858      -2.49039057      -0.43263421
H       -1.74557273      -1.26376766      -1.30079832
H        0.04167065       2.25716491       0.37316614
H        0.79407466       0.04139380      -2.03423189
