13
Frame=0 idx=007862 GeodesicLength=0.0 rxn_smarts="[N:1]([C:2](=[O:3])[C:4]([O:5]/[C:6](=[N:7]/[H:13])[H:12])([H:10])[H:11])([H:8])[H:9]>>[C:4](=[O:5])([H:10])[H:11].[C:6](#[N:7])[H:12].[N:1]([C:2](=[O:3])[H:13])([H:8])[H:9]"
N       -1.78898944      -0.32988412      -0.94489431
C       -1.02379348       0.40389702      -0.09256825
O       -1.43832145       1.28029339       0.62016005
C        0.33159956      -0.87146403       0.86624783
O        1.33709101      -0.27025360       1.33426016
C        2.07346159       0.81367595       0.11334346
N        1.42999722       1.01127289      -0.85882523
H       -2.73978162      -0.03372480      -1.09838900
H       -1.34928266      -0.87011978      -1.66814781
H        0.46305358      -1.58102124       0.03855993
H       -0.51301562      -1.04265429       1.53347439
H        2.98337479       1.00934585       0.64922363
H        0.23460656       0.48063680      -0.49244479
13
Frame=1 idx=007862 GeodesicLength=0.11290766851709372 rxn_smarts="[N:1]([C:2](=[O:3])[C:4]([O:5]/[C:6](=[N:7]/[H:13])[H:12])([H:10])[H:11])([H:8])[H:9]>>[C:4](=[O:5])([H:10])[H:11].[C:6](#[N:7])[H:12].[N:1]([C:2](=[O:3])[H:13])([H:8])[H:9]"
N       -1.78143710      -0.31833155      -0.96456637
C       -1.03688750       0.39463566      -0.07785950
O       -1.47235981       1.23905006       0.66134581
C        0.32280919      -0.86733185       0.88597381
O        1.33763583      -0.25824620       1.33119861
C        2.09034701       0.78617892       0.07930737
N        1.45205822       0.97894114      -0.89874867
H       -2.74039996      -0.04421795      -1.10629795
H       -1.31780929      -0.81155505      -1.70681666
H        0.44881512      -1.59775669       0.07585750
H       -0.50062739      -1.04630805       1.57736398
H        2.96806339       1.02302651       0.65176947
H        0.22979228       0.52191505      -0.50852741
13
Frame=2 idx=007862 GeodesicLength=0.22577518165951344 rxn_smarts="[N:1]([C:2](=[O:3])[C:4]([O:5]/[C:6](=[N:7]/[H:13])[H:12])([H:10])[H:11])([H:8])[H:9]>>[C:4](=[O:5])([H:10])[H:11].[C:6](#[N:7])[H:12].[N:1]([C:2](=[O:3])[H:13])([H:8])[H:9]"
N       -1.77154312      -0.30529052      -0.98489656
C       -1.04987768       0.38545873      -0.06312349
O       -1.51047019       1.19310187       0.70247193
C        0.31369763      -0.86304464       0.90639260
O        1.33815009      -0.24678432       1.32769478
C        2.10627336       0.75698160       0.04517482
N        1.47152449       0.94428551      -0.93784918
H       -2.73783038      -0.05477345      -1.11890649
H       -1.28363752      -0.75235608      -1.74126285
H        0.43408912      -1.61388044       0.11434261
H       -0.48685680      -1.04937717       1.62246541
H        2.95223162       1.03309430       0.64789638
H        0.22424938       0.57258460      -0.52039993
13
Frame=3 idx=007862 GeodesicLength=0.3386247253166319 rxn_smarts="[N:1]([C:2](=[O:3])[C:4]([O:5]/[C:6](=[N:7]/[H:13])[H:12])([H:10])[H:11])([H:8])[H:9]>>[C:4](=[O:5])([H:10])[H:11].[C:6](#[N:7])[H:12].[N:1]([C:2](=[O:3])[H:13])([H:8])[H:9]"
N       -1.75892220      -0.29086479      -1.00577289
C       -1.06232838       0.37650870      -0.04880554
O       -1.55237912       1.14191167       0.74259349
C        0.30417165      -0.85864287       0.92782032
O        1.33856683      -0.23584822       1.32374474
C        2.12041306       0.72630236       0.01069846
N        1.48632178       0.90927063      -0.97526530
H       -2.73164342      -0.06543074      -1.13610069
H       -1.24643133      -0.69301039      -1.77155072
H        0.41879459      -1.62954767       0.15445727
H       -0.47185706      -1.05140520       1.66895891
H        2.93715475       1.03781062       0.63695216
H        0.21813884       0.63294591      -0.52773020
13
Frame=4 idx=007862 GeodesicLength=0.4514984016002268 rxn_smarts="[N:1]([C:2](=[O:3])[C:4]([O:5]/[C:6](=[N:7]/[H:13])[H:12])([H:10])[H:11])([H:8])[H:9]>>[C:4](=[O:5])([H:10])[H:11].[C:6](#[N:7])[H:12].[N:1]([C:2](=[O:3])[H:13])([H:8])[H:9]"
N       -1.74367520      -0.27528354      -1.02684713
C       -1.07357592       0.36796690      -0.03556095
O       -1.59654904       1.08583342       0.78024026
C        0.29423690      -0.85442801       0.95044667
O        1.33881391      -0.22563369       1.31932807
C        2.13171516       0.69495636      -0.02394204
N        1.49488977       0.87672976      -1.01010615
H       -2.72190605      -0.07604194      -1.15703553
H       -1.20679337      -0.63436066      -1.79780892
H        0.40303151      -1.64497904       0.19630661
H       -0.45585703      -1.05201792       1.71680939
H        2.92377234       1.03605296       0.61947642
H        0.21189701       0.70120540      -0.53130671
13
Frame=5 idx=007862 GeodesicLength=0.56426867111028 rxn_smarts="[N:1]([C:2](=[O:3])[C:4]([O:5]/[C:6](=[N:7]/[H:13])[H:12])([H:10])[H:11])([H:8])[H:9]>>[C:4](=[O:5])([H:10])[H:11].[C:6](#[N:7])[H:12].[N:1]([C:2](=[O:3])[H:13])([H:8])[H:9]"
N       -1.72640371      -0.25866883      -1.04742424
C       -1.08268365       0.36006505      -0.02406214
O       -1.63979752       1.02646711       0.81381875
C        0.28390242      -0.85104461       0.97401940
O        1.33887056      -0.21694671       1.31421536
C        2.13964333       0.66384970      -0.05810057
N        1.49757641       0.84824873      -1.04221689
H       -2.70926469      -0.08677865      -1.17934150
H       -1.16651140      -0.57667744      -1.82036963
H        0.38670789      -1.66050244       0.23936299
H       -0.43927479      -1.05110780       1.76544169
H        2.91089637       1.02954300       0.59810675
H        0.20633877       0.77355290      -0.53344997
13
Frame=6 idx=007862 GeodesicLength=0.6770142653340273 rxn_smarts="[N:1]([C:2](=[O:3])[C:4]([O:5]/[C:6](=[N:7]/[H:13])[H:12])([H:10])[H:11])([H:8])[H:9]>>[C:4](=[O:5])([H:10])[H:11].[C:6](#[N:7])[H:12].[N:1]([C:2](=[O:3])[H:13])([H:8])[H:9]"
N       -1.70801791      -0.24143445      -1.06710827
C       -1.08966683       0.35284105      -0.01439650
O       -1.68059371       0.96522816       0.84274061
C        0.27329312      -0.84868766       0.99840407
O        1.33850659      -0.20976436       1.30858030
C        2.14378985       0.63443411      -0.09102740
N        1.49536415       0.82529969      -1.07155001
H       -2.69465515      -0.09752091      -1.20202994
H       -1.12685265      -0.52073742      -1.83963400
H        0.37023715      -1.67600323       0.28307607
H       -0.42223988      -1.04888307       1.81443742
H        2.89912099       1.01818435       0.57447181
H        0.20171428       0.84704375      -0.53596417
13
Frame=7 idx=007862 GeodesicLength=0.7897008564059715 rxn_smarts="[N:1]([C:2](=[O:3])[C:4]([O:5]/[C:6](=[N:7]/[H:13])[H:12])([H:10])[H:11])([H:8])[H:9]>>[C:4](=[O:5])([H:10])[H:11].[C:6](#[N:7])[H:12].[N:1]([C:2](=[O:3])[H:13])([H:8])[H:9]"
N       -1.68918918      -0.22370077      -1.08556542
C       -1.09458933       0.34629506      -0.00635772
O       -1.71775848       0.90328771       0.86706478
C        0.26245550      -0.84756219       1.02332450
O        1.33763677      -0.20439997       1.30235683
C        2.14451014       0.60709207      -0.12243213
N        1.48989234       0.80738352      -1.09867347
H       -2.67876757      -0.10819005      -1.22411803
H       -1.08875379      -0.46661355      -1.85599208
H        0.35360152      -1.69152834       0.32692030
H       -0.40482389      -1.04563497       1.86335906
H        2.88749512       1.00380890       0.55040260
H        0.19829085       0.91976258      -0.54028921
13
Frame=8 idx=007862 GeodesicLength=0.9023536052129648 rxn_smarts="[N:1]([C:2](=[O:3])[C:4]([O:5]/[C:6](=[N:7]/[H:13])[H:12])([H:10])[H:11])([H:8])[H:9]>>[C:4](=[O:5])([H:10])[H:11].[C:6](#[N:7])[H:12].[N:1]([C:2](=[O:3])[H:13])([H:8])[H:9]"
N       -1.67032391      -0.20551084      -1.10266243
C       -1.09771524       0.34037216       0.00042255
O       -1.75101428       0.84125393       0.88724851
C        0.25142456      -0.84770757       1.04861860
O        1.33623181      -0.20102154       1.29551991
C        2.14232579       0.58181033      -0.15229359
N        1.48245965       0.79359906      -1.12417153
H       -2.66199327      -0.11866641      -1.24524593
H       -1.05257355      -0.41424727      -1.86977905
H        0.33672344      -1.70710793       0.37060775
H       -0.38699723      -1.04161114       1.91196817
H        2.87528482       0.98784018       0.52691989
H        0.19616743       0.99099704      -0.54715287
13
Frame=9 idx=007862 GeodesicLength=1.015086808950274 rxn_smarts="[N:1]([C:2](=[O:3])[C:4]([O:5]/[C:6](=[N:7]/[H:13])[H:12])([H:10])[H:11])([H:8])[H:9]>>[C:4](=[O:5])([H:10])[H:11].[C:6](#[N:7])[H:12].[N:1]([C:2](=[O:3])[H:13])([H:8])[H:9]"
N       -1.65164235      -0.18677411      -1.11838970
C       -1.09931866       0.33506803       0.00625848
O       -1.78037673       0.77950264       0.90376970
C        0.24016756      -0.84904707       1.07413478
O        1.33432191      -0.19972869       1.28812685
C        2.13786947       0.55837108      -0.18063587
N        1.47403370       0.78295029      -1.14861923
H       -2.64457733      -0.12957704      -1.26498373
H       -1.01849247      -0.36312645      -1.88134728
H        0.31940307      -1.72272036       0.41389935
H       -0.36886597      -1.03692679       1.96000787
H        2.86216024       0.97127179       0.50477324
H        0.19531755       1.06073668      -0.55699447
13
Frame=10 idx=007862 GeodesicLength=1.1278773738134713 rxn_smarts="[N:1]([C:2](=[O:3])[C:4]([O:5]/[C:6](=[N:7]/[H:13])[H:12])([H:10])[H:11])([H:8])[H:9]>>[C:4](=[O:5])([H:10])[H:11].[C:6](#[N:7])[H:12].[N:1]([C:2](=[O:3])[H:13])([H:8])[H:9]"
N       -1.63327728      -0.16748418      -1.13274968
C       -1.09971285       0.33024750       0.01154018
O       -1.80626401       0.71797838       0.91718904
C        0.22874190      -0.85152205       1.09989004
O        1.33189915      -0.20052447       1.28015470
C        2.13142385       0.53664672      -0.20765060
N        1.46509350       0.77481260      -1.17228693
H       -2.62654972      -0.14033317      -1.28372698
H       -0.98628098      -0.31349931      -1.89078551
H        0.30161753      -1.73842256       0.45684566
H       -0.35028143      -1.03173677       2.00747698
H        2.84779359       0.95468318       0.48396362
H        0.19579675       1.12915412      -0.56986053
13
Frame=11 idx=007862 GeodesicLength=1.2407651676284475 rxn_smarts="[N:1]([C:2](=[O:3])[C:4]([O:5]/[C:6](=[N:7]/[H:13])[H:12])([H:10])[H:11])([H:8])[H:9]>>[C:4](=[O:5])([H:10])[H:11].[C:6](#[N:7])[H:12].[N:1]([C:2](=[O:3])[H:13])([H:8])[H:9]"
N       -1.61530814      -0.14753840      -1.14575758
C       -1.09913336       0.32583378       0.01654840
O       -1.82897197       0.65665657       0.92792131
C        0.21716300      -0.85505716       1.12585578
O        1.32898930      -0.20344012       1.27162265
C        2.12331605       0.51647780      -0.23344837
N        1.45600582       0.76857134      -1.19545216
H       -2.60793545      -0.15094360      -1.30153471
H       -0.95579646      -0.26528664      -1.89820904
H        0.28326474      -1.75423847       0.49943944
H       -0.33123796      -1.02612126       2.05427365
H        2.83200620       0.93854212       0.46461667
H        0.19763822       1.19654405      -0.58587604
13
Frame=12 idx=007862 GeodesicLength=1.3537896954708224 rxn_smarts="[N:1]([C:2](=[O:3])[C:4]([O:5]/[C:6](=[N:7]/[H:13])[H:12])([H:10])[H:11])([H:8])[H:9]>>[C:4](=[O:5])([H:10])[H:11].[C:6](#[N:7])[H:12].[N:1]([C:2](=[O:3])[H:13])([H:8])[H:9]"
N       -1.59780613      -0.12679177      -1.15741921
C       -1.09777017       0.32175941       0.02152183
O       -1.84875228       0.59551148       0.93632045
C        0.20545659      -0.85959802       1.15200899
O        1.32561553      -0.20852186       1.26255596
C        2.11380698       0.49774323      -0.25810583
N        1.44702283       0.76369202      -1.21833005
H       -2.58873157      -0.16143097      -1.31844553
H       -0.92690537      -0.21844637      -1.90369606
H        0.26426080      -1.77019497       0.54167979
H       -0.31173550      -1.02017338       2.10029098
H        2.81461306       0.92324719       0.44682397
H        0.20092523       1.26320401      -0.60520529
13
Frame=13 idx=007862 GeodesicLength=1.4669709363020653 rxn_smarts="[N:1]([C:2](=[O:3])[C:4]([O:5]/[C:6](=[N:7]/[H:13])[H:12])([H:10])[H:11])([H:8])[H:9]>>[C:4](=[O:5])([H:10])[H:11].[C:6](#[N:7])[H:12].[N:1]([C:2](=[O:3])[H:13])([H:8])[H:9]"
N       -1.58084974      -0.10504752      -1.16771573
C       -1.09576747       0.31795670       0.02666765
O       -1.86578438       0.53453134       0.94268316
C        0.19364849      -0.86512414       1.17832274
O        1.32179908      -0.21583473       1.25296852
C        2.10311308       0.48037358      -0.28166516
N        1.43831599       0.75968669      -1.24107777
H       -2.56892433      -0.17180225      -1.33446162
H       -0.89947663      -0.17298826      -1.90728231
H        0.24452836      -1.78634145       0.58355845
H       -0.29179813      -1.01401200       2.14541583
H        2.79540538       0.90920880       0.43067098
H        0.20579031       1.32939324      -0.62808475
13
Frame=14 idx=007862 GeodesicLength=1.580312926811294 rxn_smarts="[N:1]([C:2](=[O:3])[C:4]([O:5]/[C:6](=[N:7]/[H:13])[H:12])([H:10])[H:11])([H:8])[H:9]>>[C:4](=[O:5])([H:10])[H:11].[C:6](#[N:7])[H:12].[N:1]([C:2](=[O:3])[H:13])([H:8])[H:9]"
N       -1.56452070      -0.08212495      -1.17660693
C       -1.09325621       0.31432616       0.03218555
O       -1.88027218       0.47364602       0.94727579
C        0.18179811      -0.87164212       1.20479804
O        1.31755863      -0.22545106       1.24285865
C        2.09137096       0.46435488      -0.30415529
N        1.42998196       0.75615137      -1.26379899
H       -2.54848149      -0.18179622      -1.34967775
H       -0.87336093      -0.12907122      -1.90896091
H        0.22404196      -1.80274523       0.62511172
H       -0.27138071      -1.00777538       2.18958795
H        2.77411600       0.89680732       0.41620379
H        0.21240461       1.39532043      -0.65482162
13
Frame=15 idx=007862 GeodesicLength=1.6938318457454933 rxn_smarts="[N:1]([C:2](=[O:3])[C:4]([O:5]/[C:6](=[N:7]/[H:13])[H:12])([H:10])[H:11])([H:8])[H:9]>>[C:4](=[O:5])([H:10])[H:11].[C:6](#[N:7])[H:12].[N:1]([C:2](=[O:3])[H:13])([H:8])[H:9]"
N       -1.54891182      -0.05779468      -1.18402014
C       -1.09032404       0.31077024       0.03825038
O       -1.89233350       0.41281306       0.95032738
C        0.16996170      -0.87919039       1.23141967
O        1.31292142      -0.23747459       1.23222678
C        2.07871836       0.44970858      -0.32555502
N        1.42209196       0.75266358      -1.28658925
H       -2.52737588      -0.19119229      -1.36410195
H       -0.84844797      -0.08682772      -1.90870259
H        0.20276986      -1.81948853       0.66634559
H       -0.25046487      -1.00163140       2.23272661
H        2.75041971       0.88649201       0.40354911
H        0.22097507       1.46115214      -0.68587657
13
Frame=16 idx=007862 GeodesicLength=1.8075516295576384 rxn_smarts="[N:1]([C:2](=[O:3])[C:4]([O:5]/[C:6](=[N:7]/[H:13])[H:12])([H:10])[H:11])([H:8])[H:9]>>[C:4](=[O:5])([H:10])[H:11].[C:6](#[N:7])[H:12].[N:1]([C:2](=[O:3])[H:13])([H:8])[H:9]"
N       -1.53412649      -0.03178342      -1.18984883
C       -1.08701962       0.30720311       0.04502329
O       -1.90202523       0.35203838       0.95205607
C        0.15820354      -0.88784098       1.25816407
O        1.30791623      -0.25203743       1.22108109
C        2.06528587       0.43648910      -0.34579016
N        1.41470900       0.74876238      -1.30953267
H       -2.50556972      -0.19980680      -1.37767584
H       -0.82468278      -0.04633133      -1.90647321
H        0.18069022      -1.83666611       0.70723848
H       -0.22902834      -0.99581114       2.27474465
H        2.72387671       0.87878487       0.39291296
H        0.23177061       1.52699937      -0.72189989
