14
Frame=0 idx=001720 GeodesicLength=0.0 rxn_smarts="[O:1]([C@@:2]1([H:8])[C:3]([H:9])([H:10])[C:4]([H:11])([H:12])[O:5][C:6]1([H:13])[H:14])[H:7]>>[C:2]1([H:8])=[C:3]([H:10])[C:4]([H:11])([H:12])[O:5][C:6]1([H:13])[H:14].[O:1]([H:7])[H:9]"
O        0.52718228      -1.07341359      -1.69131311
C        0.34740398       0.50546985      -0.70392017
C       -1.01130312       0.25614263      -0.38826116
C       -1.05330506      -0.04400551       1.09880800
O        0.29307010      -0.38136808       1.42818801
C        1.13626521       0.33516016       0.55896749
H        1.05316286      -1.75649318      -1.25743991
H        0.70204292       1.14880199      -1.49695292
H       -0.55828881      -0.86478523      -1.13373919
H       -1.81129343       0.79579062      -0.87818683
H       -1.67593921      -0.89720241       1.37160447
H       -1.38018586       0.82316897       1.69216515
H        1.34825309       1.34751825       0.94324587
H        2.08293506      -0.19478450       0.45683426
14
Frame=1 idx=001720 GeodesicLength=0.07444766237102826 rxn_smarts="[O:1]([C@@:2]1([H:8])[C:3]([H:9])([H:10])[C:4]([H:11])([H:12])[O:5][C:6]1([H:13])[H:14])[H:7]>>[C:2]1([H:8])=[C:3]([H:10])[C:4]([H:11])([H:12])[O:5][C:6]1([H:13])[H:14].[O:1]([H:7])[H:9]"
O        0.53051482      -1.09678223      -1.67938564
C        0.35063935       0.51158712      -0.70985790
C       -1.00969192       0.26850286      -0.39182301
C       -1.04778604      -0.05405778       1.09108702
O        0.30074096      -0.38996279       1.41361529
C        1.13917977       0.34568604       0.55427991
H        1.02997312      -1.76953524      -1.20020078
H        0.70301874       1.15728995      -1.50210561
H       -0.57876036      -0.86900836      -1.15435904
H       -1.80448476       0.83100917      -0.86441510
H       -1.66526510      -0.91575386       1.34906849
H       -1.38078753       0.80072091       1.69826814
H        1.34224215       1.35569934       0.94821631
H        2.09046680      -0.17539513       0.44761192
14
Frame=2 idx=001720 GeodesicLength=0.14894209727028912 rxn_smarts="[O:1]([C@@:2]1([H:8])[C:3]([H:9])([H:10])[C:4]([H:11])([H:12])[O:5][C:6]1([H:13])[H:14])[H:7]>>[C:2]1([H:8])=[C:3]([H:10])[C:4]([H:11])([H:12])[O:5][C:6]1([H:13])[H:14].[O:1]([H:7])[H:9]"
O        0.53337835      -1.12024772      -1.66699529
C        0.35394802       0.51768135      -0.71557751
C       -1.00792688       0.27995070      -0.39542386
C       -1.04237773      -0.06361826       1.08331071
O        0.30819600      -0.39775538       1.39958301
C        1.14208627       0.35579591       0.54981021
H        1.00671840      -1.78008019      -1.14512639
H        0.70373172       1.16644271      -1.50661585
H       -0.59852863      -0.87429443      -1.17444591
H       -1.79732627       0.86429121      -0.85051101
H       -1.65476429      -0.93327972       1.32691541
H       -1.38149115       0.77902262       1.70335979
H        1.33689957       1.36326850       0.95314567
H        2.09745662      -0.15717731       0.43857102
14
Frame=3 idx=001720 GeodesicLength=0.22347730262876586 rxn_smarts="[O:1]([C@@:2]1([H:8])[C:3]([H:9])([H:10])[C:4]([H:11])([H:12])[O:5][C:6]1([H:13])[H:14])[H:7]>>[C:2]1([H:8])=[C:3]([H:10])[C:4]([H:11])([H:12])[O:5][C:6]1([H:13])[H:14].[O:1]([H:7])[H:9]"
O        0.53579138      -1.14373760      -1.65424475
C        0.35731734       0.52376814      -0.72109077
C       -1.00603686       0.29055441      -0.39908211
C       -1.03709107      -0.07267539       1.07550519
O        0.31541621      -0.40482344       1.38607278
C        1.14498121       0.36548358       0.54553638
H        0.98359325      -1.78834184      -1.09220737
H        0.70416306       1.17633668      -1.51043781
H       -0.61766583      -0.88072031      -1.19392643
H       -1.78987639       0.89570436      -0.83656096
H       -1.64447345      -0.94978631       1.30518613
H       -1.38227095       0.75811425       1.70752072
H        1.33221270       1.37022684       0.95804716
H        2.10393941      -0.14010336       0.42968185
14
Frame=4 idx=001720 GeodesicLength=0.29803603648738175 rxn_smarts="[O:1]([C@@:2]1([H:8])[C:3]([H:9])([H:10])[C:4]([H:11])([H:12])[O:5][C:6]1([H:13])[H:14])[H:7]>>[C:2]1([H:8])=[C:3]([H:10])[C:4]([H:11])([H:12])[O:5][C:6]1([H:13])[H:14].[O:1]([H:7])[H:9]"
O        0.53777060      -1.16720653      -1.64121364
C        0.36074098       0.52986558      -0.72641332
C       -1.00405026       0.30039070      -0.40281401
C       -1.03194173      -0.08122143       1.06769520
O        0.32238744      -0.41124362       1.37306512
C        1.14786920       0.37474336       0.54143951
H        0.96077418      -1.79450682      -1.04144035
H        0.70430611       1.18703967      -1.51353830
H       -0.63623993      -0.88835672      -1.21272703
H       -1.78220051       0.92532384      -0.82264675
H       -1.63443353      -0.96528431       1.28391314
H       -1.38311335       0.73802248       1.71082908
H        1.32817007       1.37657895       0.96293028
H        2.10996071      -0.12414516       0.42092108
14
Frame=5 idx=001720 GeodesicLength=0.3727238733491399 rxn_smarts="[O:1]([C@@:2]1([H:8])[C:3]([H:9])([H:10])[C:4]([H:11])([H:12])[O:5][C:6]1([H:13])[H:14])[H:7]>>[C:2]1([H:8])=[C:3]([H:10])[C:4]([H:11])([H:12])[O:5][C:6]1([H:13])[H:14].[O:1]([H:7])[H:9]"
O        0.53939545      -1.19063885      -1.62795531
C        0.36421724       0.53597791      -0.73156280
C       -1.00197740       0.30954249      -0.40662642
C       -1.02692106      -0.08926530       1.05988792
O        0.32910679      -0.41708436       1.36051599
C        1.15074770       0.38359006       0.53749898
H        0.93835450      -1.79878494      -0.99275332
H        0.70415440       1.19859755      -1.51588122
H       -0.65439034      -0.89724566      -1.23083949
H       -1.77433797       0.95326428      -0.80881791
H       -1.62464995      -0.97981193       1.26308940
H       -1.38399236       0.71874426       1.71336555
H        1.32473443       1.38234926       0.96780900
H        2.11555857      -0.10923476       0.41226962
14
Frame=6 idx=001720 GeodesicLength=0.4474234880198842 rxn_smarts="[O:1]([C@@:2]1([H:8])[C:3]([H:9])([H:10])[C:4]([H:11])([H:12])[O:5][C:6]1([H:13])[H:14])[H:7]>>[C:2]1([H:8])=[C:3]([H:10])[C:4]([H:11])([H:12])[O:5][C:6]1([H:13])[H:14].[O:1]([H:7])[H:9]"
O        0.54064663      -1.21400488      -1.61451600
C        0.36774545       0.54213160      -0.73655227
C       -0.99983728       0.31807508      -0.41053442
C       -1.02204837      -0.09680445       1.05210329
O        0.33556517      -0.42240787       1.34841353
C        1.15362621       0.39202338       0.53370247
H        0.91648052      -1.80132347      -0.94616978
H        0.70371435       1.21105048      -1.51744024
H       -0.67215309      -0.90744499      -1.24818734
H       -1.76634298       0.97959744      -0.79515157
H       -1.61516238      -0.99338392       1.24273951
H       -1.38491287       0.70029275       1.71519114
H        1.32189981       1.38754601       0.97268883
H        2.12077883      -0.09534717       0.40371285
14
Frame=7 idx=001720 GeodesicLength=0.5221473966744343 rxn_smarts="[O:1]([C@@:2]1([H:8])[C:3]([H:9])([H:10])[C:4]([H:11])([H:12])[O:5][C:6]1([H:13])[H:14])[H:7]>>[C:2]1([H:8])=[C:3]([H:10])[C:4]([H:11])([H:12])[O:5][C:6]1([H:13])[H:14].[O:1]([H:7])[H:9]"
O        0.54156533      -1.23729036      -1.60091984
C        0.37132851       0.54834273      -0.74139146
C       -0.99763183       0.32605334      -0.41454900
C       -1.01731691      -0.10384984       1.04434545
O        0.34176578      -0.42726586       1.33672508
C        1.15650370       0.40006243       0.53003449
H        0.89521563      -1.80229342      -0.90163741
H        0.70299579       1.22442035      -1.51818006
H       -0.68963534      -0.91898508      -1.26476652
H       -1.75824653       1.00441800      -0.78170116
H       -1.60597128      -1.00604026       1.22285476
H       -1.38585843       0.68265906       1.71637032
H        1.31963669       1.39218997       0.97758413
H        2.12564890      -0.08242105       0.39523122
14
Frame=8 idx=001720 GeodesicLength=0.5969282281341199 rxn_smarts="[O:1]([C@@:2]1([H:8])[C:3]([H:9])([H:10])[C:4]([H:11])([H:12])[O:5][C:6]1([H:13])[H:14])[H:7]>>[C:2]1([H:8])=[C:3]([H:10])[C:4]([H:11])([H:12])[O:5][C:6]1([H:13])[H:14].[O:1]([H:7])[H:9]"
O        0.54218492      -1.26048384      -1.58718560
C        0.37497307       0.55462853      -0.74608922
C       -0.99536912       0.33353653      -0.41868252
C       -1.01272050      -0.11041008       1.03661879
O        0.34771240      -0.43170309       1.32542661
C        1.15938224       0.40772073       0.52648342
H        0.87463749      -1.80182250      -0.85910857
H        0.70201290       1.23872032      -1.51806329
H       -0.70695680      -0.93190409      -1.28057173
H       -1.75008602       1.02781156      -0.76852757
H       -1.59708171      -1.01781727       1.20342395
H       -1.38680120       0.66583611       1.71695653
H        1.31792457       1.39629155       0.98251257
H        2.13018776      -0.07040446       0.38680664
14
Frame=9 idx=001720 GeodesicLength=0.6713975640915074 rxn_smarts="[O:1]([C@@:2]1([H:8])[C:3]([H:9])([H:10])[C:4]([H:11])([H:12])[O:5][C:6]1([H:13])[H:14])[H:7]>>[C:2]1([H:8])=[C:3]([H:10])[C:4]([H:11])([H:12])[O:5][C:6]1([H:13])[H:14].[O:1]([H:7])[H:9]"
O        0.54244118      -1.28363737      -1.57337050
C        0.37867285       0.56101369      -0.75067639
C       -0.99302143       0.34053951      -0.42294439
C       -1.00829298      -0.11648278       1.02889486
O        0.35338877      -0.43573074       1.31448687
C        1.16228079       0.41498631       0.52303056
H        0.85470304      -1.79986742      -0.81868902
H        0.70069756       1.25400136      -1.51701506
H       -0.72391962      -0.94630299      -1.29533597
H       -1.74181250       1.04982196      -0.75559299
H       -1.58853154      -1.02869471       1.18442138
H       -1.38783567       0.64980851       1.71690929
H        1.31677820       1.39986182       0.98743221
H        2.13445134      -0.05931716       0.37844913
14
Frame=10 idx=001720 GeodesicLength=0.7459399568800035 rxn_smarts="[O:1]([C@@:2]1([H:8])[C:3]([H:9])([H:10])[C:4]([H:11])([H:12])[O:5][C:6]1([H:13])[H:14])[H:7]>>[C:2]1([H:8])=[C:3]([H:10])[C:4]([H:11])([H:12])[O:5][C:6]1([H:13])[H:14].[O:1]([H:7])[H:9]"
O        0.54246829      -1.30667831      -1.55946778
C        0.38244697       0.56752487      -0.75514463
C       -0.99060894       0.34715080      -0.42734686
C       -1.00398812      -0.12210154       1.02119017
O        0.35882662      -0.43941955       1.30386885
C        1.16519348       0.42191231       0.51967018
H        0.83549404      -1.79677161      -0.78011333
H        0.69912730       1.27024437      -1.51504866
H       -0.74090271      -0.96211212      -1.30931335
H       -1.73351571       1.07057060      -0.74300897
H       -1.58027767      -1.03877496       1.16583371
H       -1.38885268       0.63454748       1.71635091
H        1.31614337       1.40293186       0.99241055
H        2.13844577      -0.04902417       0.37011921
14
Frame=11 idx=001720 GeodesicLength=0.8204987732328202 rxn_smarts="[O:1]([C@@:2]1([H:8])[C:3]([H:9])([H:10])[C:4]([H:11])([H:12])[O:5][C:6]1([H:13])[H:14])[H:7]>>[C:2]1([H:8])=[C:3]([H:10])[C:4]([H:11])([H:12])[O:5][C:6]1([H:13])[H:14].[O:1]([H:7])[H:9]"
O        0.54227919      -1.32960351      -1.54550363
C        0.38630002       0.57419019      -0.75950675
C       -0.98812144       0.35341597      -0.43189538
C       -0.99980473      -0.12728686       1.01349384
O        0.36403595      -0.44280095       1.29353825
C        1.16813330       0.42851874       0.51639164
H        0.81697504      -1.79265773      -0.74330427
H        0.69730460       1.28746332      -1.51214537
H       -0.75793364      -0.97933995      -1.32247376
H       -1.72520336       1.09012844      -0.73079043
H       -1.57231230      -1.04809858       1.14763391
H       -1.38987464       0.62001704       1.71530552
H        1.31600817       1.40553040       0.99744567
H        2.14221383      -0.03947652       0.36181075
14
Frame=12 idx=001720 GeodesicLength=0.8950572502132641 rxn_smarts="[O:1]([C@@:2]1([H:8])[C:3]([H:9])([H:10])[C:4]([H:11])([H:12])[O:5][C:6]1([H:13])[H:14])[H:7]>>[C:2]1([H:8])=[C:3]([H:10])[C:4]([H:11])([H:12])[O:5][C:6]1([H:13])[H:14].[O:1]([H:7])[H:9]"
O        0.54189023      -1.35240706      -1.53149805
C        0.39023981       0.58103741      -0.76377129
C       -0.98555241       0.35937588      -0.43660013
C       -0.99573863      -0.13205378       1.00579630
O        0.36902620      -0.44590374       1.28346828
C        1.17111060       0.43482203       0.51318684
H        0.79914096      -1.78761628      -0.70820487
H        0.69524038       1.30565836      -1.50827706
H       -0.77506735      -0.99801096      -1.33479173
H       -1.71689568       1.10856293      -0.71896656
H       -1.56463121      -1.05670156       1.12980106
H       -1.39090695       0.60619512       1.71379815
H        1.31636023       1.40767433       1.00254440
H        2.14578382      -0.03063269       0.35351468
14
Frame=13 idx=001720 GeodesicLength=0.9696638220629861 rxn_smarts="[O:1]([C@@:2]1([H:8])[C:3]([H:9])([H:10])[C:4]([H:11])([H:12])[O:5][C:6]1([H:13])[H:14])[H:7]>>[C:2]1([H:8])=[C:3]([H:10])[C:4]([H:11])([H:12])[O:5][C:6]1([H:13])[H:14].[O:1]([H:7])[H:9]"
O        0.54133929      -1.37510212      -1.51746086
C        0.39427769       0.58809359      -0.76794801
C       -0.98289024       0.36506795      -0.44147084
C       -0.99177977      -0.13642119       0.99808301
O        0.37381068      -0.44875289       1.27362645
C        1.17413539       0.44084349       0.51004882
H        0.78197042      -1.78172979      -0.67474369
H        0.69294259       1.32482048      -1.50341357
H       -0.79239281      -1.01813600      -1.34625581
H       -1.70861178       1.12594956      -0.70755903
H       -1.55722198      -1.06462341       1.11230345
H       -1.39194946       0.59304956       1.71184850
H        1.31718509       1.40938357       1.00771638
H        2.14918487      -0.02244280       0.34522521
14
Frame=14 idx=001720 GeodesicLength=1.044270786231183 rxn_smarts="[O:1]([C@@:2]1([H:8])[C:3]([H:9])([H:10])[C:4]([H:11])([H:12])[O:5][C:6]1([H:13])[H:14])[H:7]>>[C:2]1([H:8])=[C:3]([H:10])[C:4]([H:11])([H:12])[O:5][C:6]1([H:13])[H:14].[O:1]([H:7])[H:9]"
O        0.54062556      -1.39766454      -1.50340876
C        0.39841982       0.59539334      -0.77203230
C       -0.98012803       0.37052012      -0.44651847
C       -0.98792420      -0.14039760       0.99034570
O        0.37839563      -0.45137172       1.26399229
C        1.17721356       0.44659745       0.50697486
H        0.76546353      -1.77506329      -0.64289114
H        0.69042770       1.34493784      -1.49752964
H       -0.80995240      -1.03974844      -1.35682864
H       -1.70036804       1.14232721      -0.69660699
H       -1.55008152      -1.07188835       1.09512437
H       -1.39299834       0.58056784       1.70947069
H        1.31847724       1.41066342       1.01297802
H        2.15242949      -0.01487328       0.33693001
14
Frame=15 idx=001720 GeodesicLength=1.1188965158508293 rxn_smarts="[O:1]([C@@:2]1([H:8])[C:3]([H:9])([H:10])[C:4]([H:11])([H:12])[O:5][C:6]1([H:13])[H:14])[H:7]>>[C:2]1([H:8])=[C:3]([H:10])[C:4]([H:11])([H:12])[O:5][C:6]1([H:13])[H:14].[O:1]([H:7])[H:9]"
O        0.53977248      -1.42009188      -1.48935092
C        0.40267653       0.60297094      -0.77602522
C       -0.97725445       0.37576264      -0.45175378
C       -0.98416277      -0.14399789       0.98256928
O        0.38279264      -0.45378144       1.25453725
C        1.18035322       0.45210309       0.50396142
H        0.74959832      -1.76768161      -0.61259696
H        0.68770803       1.36598785      -1.49059812
H       -0.82781353      -1.06286824      -1.36648651
H       -1.69218347       1.15775468      -0.68613558
H       -1.54319849      -1.07852918       1.07823603
H       -1.39405244       0.56872609       1.70667829
H        1.32022619       1.41152625       1.01834383
H        2.15553774      -0.00788130       0.32862099
14
Frame=16 idx=001720 GeodesicLength=1.193551343483928 rxn_smarts="[O:1]([C@@:2]1([H:8])[C:3]([H:9])([H:10])[C:4]([H:11])([H:12])[O:5][C:6]1([H:13])[H:14])[H:7]>>[C:2]1([H:8])=[C:3]([H:10])[C:4]([H:11])([H:12])[O:5][C:6]1([H:13])[H:14].[O:1]([H:7])[H:9]"
O        0.53880139      -1.44238139      -1.47529201
C        0.40705733       0.61086149      -0.77992317
C       -0.97425753       0.38082224      -0.45718726
C       -0.98048762      -0.14723439       0.97473961
O        0.38701148      -0.45600002       1.24523610
C        1.18356168       0.45737856       0.50100827
H        0.73434800      -1.75963175      -0.58383705
H        0.68479932       1.38794492      -1.48259697
H       -0.84603601      -1.08752366      -1.37519332
H       -1.68407356       1.17228084      -0.67616928
H       -1.53656283      -1.08457363       1.06161244
H       -1.39511060       0.55750273       1.70347974
H        1.32242294       1.41198161       1.02383026
H        2.15852601      -0.00142754       0.32029264
