13
Frame=0 idx=003733 GeodesicLength=0.0 rxn_smarts="[C:1]1([H:7])([H:8])[N:2]([H:9])[C:3]12[C:4]([H:10])([H:11])[O:5][C:6]2([H:12])[H:13]>>[C-:1]([N:2]([C+:3]1[C:4]([H:10])([H:11])[O:5][C:6]1([H:12])[H:13])[H:9])([H:7])[H:8]"
C       -1.32598340      -1.39472857      -0.42220494
N       -0.99939339      -0.60921554       0.64684169
C       -0.06784137       0.14335414       0.07451298
C        0.30811822       1.58620760       0.26436728
O        1.67764546       1.25444672      -0.01501055
C        1.36470732      -0.12486755      -0.30898021
H       -1.33608214      -2.47712569      -0.33284942
H       -1.76375058      -0.92579852      -1.28815155
H       -1.40105903      -0.55277769       1.57611075
H        0.15748688       1.97865778       1.28001930
H       -0.08761642       2.30927265      -0.45795069
H        1.89412653      -0.83531152       0.33913156
H        1.57964196      -0.35211376      -1.35583621
13
Frame=1 idx=003733 GeodesicLength=0.030099178624377013 rxn_smarts="[C:1]1([H:7])([H:8])[N:2]([H:9])[C:3]12[C:4]([H:10])([H:11])[O:5][C:6]2([H:12])[H:13]>>[C-:1]([N:2]([C+:3]1[C:4]([H:10])([H:11])[O:5][C:6]1([H:12])[H:13])[H:9])([H:7])[H:8]"
C       -1.31644070      -1.39169344      -0.41909541
N       -0.97853745      -0.62962751       0.66417536
C       -0.06191013       0.13255577       0.07615726
C        0.30491578       1.57802265       0.26733586
O        1.67501871       1.25754418      -0.02269616
C        1.37050881      -0.12403329      -0.31412762
H       -1.34399135      -2.47388592      -0.33443768
H       -1.75954020      -0.92136351      -1.28169468
H       -1.44079345      -0.51369761       1.55824583
H        0.16129368       1.96711040       1.28525317
H       -0.10205770       2.30015346      -0.44953815
H        1.90796218      -0.83014411       0.33208110
H        1.58357181      -0.35094108      -1.36165887
13
Frame=2 idx=003733 GeodesicLength=0.06056083359013359 rxn_smarts="[C:1]1([H:7])([H:8])[N:2]([H:9])[C:3]12[C:4]([H:10])([H:11])[O:5][C:6]2([H:12])[H:13]>>[C-:1]([N:2]([C+:3]1[C:4]([H:10])([H:11])[O:5][C:6]1([H:12])[H:13])[H:9])([H:7])[H:8]"
C       -1.30760758      -1.38781935      -0.41535718
N       -0.96088433      -0.64684790       0.68091244
C       -0.05722897       0.12279459       0.07778953
C        0.30174683       1.57041154       0.27026935
O        1.67208664       1.25989699      -0.02980398
C        1.37488085      -0.12350587      -0.31872720
H       -1.35010384      -2.46945955      -0.33447050
H       -1.75416069      -0.91806779      -1.27662337
H       -1.47363756      -0.47933430       1.53793545
H        0.16521366       1.95635977       1.29026533
H       -0.11551088       2.29181871      -0.44125390
H        1.91915931      -0.82581548       0.32586845
H        1.58604655      -0.35043136      -1.36680443
13
Frame=3 idx=003733 GeodesicLength=0.09111406274335368 rxn_smarts="[C:1]1([H:7])([H:8])[N:2]([H:9])[C:3]12[C:4]([H:10])([H:11])[O:5][C:6]2([H:12])[H:13]>>[C-:1]([N:2]([C+:3]1[C:4]([H:10])([H:11])[O:5][C:6]1([H:12])[H:13])[H:9])([H:7])[H:8]"
C       -1.29975035      -1.38325252      -0.41140721
N       -0.94638264      -0.66096689       0.69652200
C       -0.05383000       0.11416669       0.07886803
C        0.29861840       1.56358978       0.27291918
O        1.66891834       1.26161147      -0.03597979
C        1.37787218      -0.12326504      -0.32277866
H       -1.35483473      -2.46422142      -0.33334388
H       -1.74776714      -0.91588454      -1.27331872
H       -1.49921591      -0.45021883       1.51790119
H        0.16874444       1.94662266       1.29475503
H       -0.12745420       2.28470215      -0.43350923
H        1.92744209      -0.82251102       0.32059362
H        1.58763953      -0.35037250      -1.37122156
13
Frame=4 idx=003733 GeodesicLength=0.12170401081741855 rxn_smarts="[C:1]1([H:7])([H:8])[N:2]([H:9])[C:3]12[C:4]([H:10])([H:11])[O:5][C:6]2([H:12])[H:13]>>[C-:1]([N:2]([C+:3]1[C:4]([H:10])([H:11])[O:5][C:6]1([H:12])[H:13])[H:9])([H:7])[H:8]"
C       -1.29264234      -1.37829126      -0.40738802
N       -0.93428495      -0.67270370       0.71119295
C       -0.05138977       0.10644141       0.07948153
C        0.29556677       1.55736971       0.27542351
O        1.66574605       1.26288157      -0.04145559
C        1.37995518      -0.12317010      -0.32652093
H       -1.35870264      -2.45846217      -0.33121790
H       -1.74060016      -0.91485137      -1.27158955
H       -1.51986829      -0.42488571       1.49853407
H        0.17207104       1.93761225       1.29900630
H       -0.13827548       2.27851480      -0.42608478
H        1.93375072      -0.81991146       0.31589433
H        1.58867385      -0.35054396      -1.37527592
13
Frame=5 idx=003733 GeodesicLength=0.1524100147707491 rxn_smarts="[C:1]1([H:7])([H:8])[N:2]([H:9])[C:3]12[C:4]([H:10])([H:11])[O:5][C:6]2([H:12])[H:13]>>[C-:1]([N:2]([C+:3]1[C:4]([H:10])([H:11])[O:5][C:6]1([H:12])[H:13])[H:9])([H:7])[H:8]"
C       -1.28609416      -1.37305887      -0.40331604
N       -0.92399867      -0.68263201       0.72510986
C       -0.04967083       0.09941009       0.07974826
C        0.29259185       1.55161433       0.27784576
O        1.66255080       1.26381210      -0.04643579
C        1.38131700      -0.12318908      -0.33006705
H       -1.36186128      -2.45236306      -0.32830600
H       -1.73268830      -0.91477220      -1.27112289
H       -1.53697321      -0.40228257       1.47980049
H        0.17530088       1.92911586       1.30310457
H       -0.14824143       2.27308765      -0.41882527
H        1.93854095      -0.81788809       0.31155808
H        1.58922642      -0.35085415      -1.37909398
13
Frame=6 idx=003733 GeodesicLength=0.18325730295522072 rxn_smarts="[C:1]1([H:7])([H:8])[N:2]([H:9])[C:3]12[C:4]([H:10])([H:11])[O:5][C:6]2([H:12])[H:13]>>[C-:1]([N:2]([C+:3]1[C:4]([H:10])([H:11])[O:5][C:6]1([H:12])[H:13])[H:9])([H:7])[H:8]"
C       -1.27998555      -1.36763248      -0.39921529
N       -0.91511503      -0.69114108       0.73837907
C       -0.04850605       0.09292687       0.07974648
C        0.28970329       1.54621826       0.28021894
O        1.65930438       1.26450032      -0.05106475
C        1.38207591      -0.12327717      -0.33346519
H       -1.36450835      -2.44601514      -0.32476686
H       -1.72406820      -0.91552750      -1.27167778
H       -1.55135685      -0.38175955       1.46161306
H        0.17853404       1.92098568       1.30706967
H       -0.15752769       2.26825251      -0.41161375
H        1.94210707      -0.81627703       0.30747671
H        1.58934302      -0.35125370      -1.38270030
13
Frame=7 idx=003733 GeodesicLength=0.2141904046107111 rxn_smarts="[C:1]1([H:7])([H:8])[N:2]([H:9])[C:3]12[C:4]([H:10])([H:11])[O:5][C:6]2([H:12])[H:13]>>[C-:1]([N:2]([C+:3]1[C:4]([H:10])([H:11])[O:5][C:6]1([H:12])[H:13])[H:9])([H:7])[H:8]"
C       -1.27425819      -1.36204771      -0.39512400
N       -0.90736127      -0.69850545       0.75112273
C       -0.04778111       0.08689503       0.07953203
C        0.28687568       1.54112781       0.28254657
O        1.65606136       1.26498933      -0.05539308
C        1.38239804      -0.12342421      -0.33675661
H       -1.36677886      -2.43947297      -0.32074291
H       -1.71491173      -0.91697077      -1.27308167
H       -1.56362197      -0.36294724       1.44403169
H        0.18172496       1.91317785       1.31094249
H       -0.16627841       2.26391264      -0.40448997
H        1.94476157      -0.81502534       0.30359750
H        1.58916995      -0.35170897      -1.38618477
13
Frame=8 idx=003733 GeodesicLength=0.24518466458338425 rxn_smarts="[C:1]1([H:7])([H:8])[N:2]([H:9])[C:3]12[C:4]([H:10])([H:11])[O:5][C:6]2([H:12])[H:13]>>[C-:1]([N:2]([C+:3]1[C:4]([H:10])([H:11])[O:5][C:6]1([H:12])[H:13])[H:9])([H:7])[H:8]"
C       -1.26889551      -1.35631278      -0.39106599
N       -0.90052936      -0.70494448       0.76342283
C       -0.04741495       0.08123496       0.07914688
C        0.28408525       1.53630718       0.28482086
O        1.65282195       1.26531783      -0.05947731
C        1.38237584      -0.12363353      -0.33995322
H       -1.36875638      -2.43277284      -0.31638919
H       -1.70531126      -0.91896591      -1.27519707
H       -1.57410593      -0.34558277       1.42710338
H        0.18484483       1.90566952       1.31472639
H       -0.17460090       2.26000009      -0.39747763
H        1.94669100      -0.81408517       0.29991168
H        1.58879541      -0.35223209      -1.38957161
13
Frame=9 idx=003733 GeodesicLength=0.27623026371141646 rxn_smarts="[C:1]1([H:7])([H:8])[N:2]([H:9])[C:3]12[C:4]([H:10])([H:11])[O:5][C:6]2([H:12])[H:13]>>[C-:1]([N:2]([C+:3]1[C:4]([H:10])([H:11])[O:5][C:6]1([H:12])[H:13])[H:9])([H:7])[H:8]"
C       -1.26389718      -1.35041320      -0.38707155
N       -0.89441168      -0.71064011       0.77525814
C       -0.04732943       0.07587583       0.07860268
C        0.28135121       1.53166822       0.28699359
O        1.64956082       1.26554526      -0.06332306
C        1.38203839      -0.12383757      -0.34300410
H       -1.37060642      -2.42586477      -0.31185972
H       -1.69540741      -0.92139768      -1.27781075
H       -1.58291738      -0.32960048       1.41081651
H        0.18791053       1.89839312       1.31828047
H       -0.18248972       2.25630498      -0.39060739
H        1.94795474      -0.81325824       0.29644881
H        1.58824351      -0.35277538      -1.39272362
13
Frame=10 idx=003733 GeodesicLength=0.30727321038423194 rxn_smarts="[C:1]1([H:7])([H:8])[N:2]([H:9])[C:3]12[C:4]([H:10])([H:11])[O:5][C:6]2([H:12])[H:13]>>[C-:1]([N:2]([C+:3]1[C:4]([H:10])([H:11])[O:5][C:6]1([H:12])[H:13])[H:9])([H:7])[H:8]"
C       -1.25926044      -1.34435139      -0.38314655
N       -0.88891126      -0.71571898       0.78674231
C       -0.04749833       0.07078541       0.07792853
C        0.27862354       1.52723954       0.28906863
O        1.64632310       1.26564124      -0.06690578
C        1.38147736      -0.12410033      -0.34595540
H       -1.37218906      -2.41882449      -0.30726419
H       -1.68532784      -0.92414357      -1.28085778
H       -1.59034648      -0.31479078       1.39529332
H        0.19078720       1.89140381       1.32168069
H       -0.19000443       2.25290700      -0.38397637
H        1.94870889      -0.81268768       0.29317161
H        1.58761776      -0.35335978      -1.39577902
13
Frame=11 idx=003733 GeodesicLength=0.3383271146483102 rxn_smarts="[C:1]1([H:7])([H:8])[N:2]([H:9])[C:3]12[C:4]([H:10])([H:11])[O:5][C:6]2([H:12])[H:13]>>[C-:1]([N:2]([C+:3]1[C:4]([H:10])([H:11])[O:5][C:6]1([H:12])[H:13])[H:9])([H:7])[H:8]"
C       -1.25494059      -1.33815414      -0.37928889
N       -0.88393932      -0.72026299       0.79788756
C       -0.04788050       0.06593112       0.07714729
C        0.27592147       1.52298065       0.29106531
O        1.64310430       1.26563687      -0.07026908
C        1.38070824      -0.12438843      -0.34881965
H       -1.37359478      -2.41165879      -0.30259702
H       -1.67503515      -0.92722331      -1.28426571
H       -1.59661231      -0.30099101       1.38041993
H        0.19354499       1.88464116       1.32493337
H       -0.19717973       2.24973421      -0.37751971
H        1.94900660      -0.81229294       0.29003506
H        1.58689677      -0.35395240      -1.39872846
13
Frame=12 idx=003733 GeodesicLength=0.3693948796888837 rxn_smarts="[C:1]1([H:7])([H:8])[N:2]([H:9])[C:3]12[C:4]([H:10])([H:11])[O:5][C:6]2([H:12])[H:13]>>[C-:1]([N:2]([C+:3]1[C:4]([H:10])([H:11])[O:5][C:6]1([H:12])[H:13])[H:9])([H:7])[H:8]"
C       -1.25091417      -1.33183440      -0.37549965
N       -0.87943225      -0.72433824       0.80872295
C       -0.04844575       0.06128626       0.07628346
C        0.27324713       1.51887270       0.29300163
O        1.63989733       1.26555257      -0.07346576
C        1.37975279      -0.12469654      -0.35161200
H       -1.37487479      -2.40438081      -0.29787019
H       -1.66448387      -0.93063834      -1.28800694
H       -1.60188385      -0.28805574       1.36614274
H        0.19622476       1.87807105       1.32806661
H       -0.20407369       2.24675950      -0.37119165
H        1.94891268      -0.81203927       0.28701805
H        1.58607369      -0.35455874      -1.40158924
13
Frame=13 idx=003733 GeodesicLength=0.40048093252515526 rxn_smarts="[C:1]1([H:7])([H:8])[N:2]([H:9])[C:3]12[C:4]([H:10])([H:11])[O:5][C:6]2([H:12])[H:13]>>[C-:1]([N:2]([C+:3]1[C:4]([H:10])([H:11])[O:5][C:6]1([H:12])[H:13])[H:9])([H:7])[H:8]"
C       -1.24714954      -1.32541471      -0.37177477
N       -0.87535207      -0.72798287       0.81927227
C       -0.04917948       0.05683959       0.07534450
C        0.27060559       1.51490604       0.29490138
O        1.63670505       1.26539878      -0.07652284
C        1.37862418      -0.12501875      -0.35435846
H       -1.37605320      -2.39701243      -0.29305736
H       -1.65362388      -0.93442203      -1.29206123
H       -1.60632980      -0.27585220       1.35239621
H        0.19886213       1.87166242       1.33111855
H       -0.21071691       2.24398360      -0.36494084
H        1.94846363      -0.81192229       0.28407846
H        1.58514430      -0.35516517      -1.40439587
13
Frame=14 idx=003733 GeodesicLength=0.4315922612398086 rxn_smarts="[C:1]1([H:7])([H:8])[N:2]([H:9])[C:3]12[C:4]([H:10])([H:11])[O:5][C:6]2([H:12])[H:13]>>[C-:1]([N:2]([C+:3]1[C:4]([H:10])([H:11])[O:5][C:6]1([H:12])[H:13])[H:9])([H:7])[H:8]"
C       -1.24362985      -1.31890784      -0.36810833
N       -0.87167365      -0.73122462       0.82955776
C       -0.05006985       0.05258027       0.07434539
C        0.26800422       1.51106944       0.29678654
O        1.63352170       1.26518515      -0.07947677
C        1.37732460      -0.12534999      -0.35707838
H       -1.37714188      -2.38956684      -0.28814555
H       -1.64238492      -0.93861296      -1.29642275
H       -1.61008446      -0.26426033       1.33912289
H        0.20150309       1.86538359       1.33411886
H       -0.21713981       2.24139962      -0.35871282
H        1.94768465      -0.81192864       0.28118299
H        1.58408615      -0.35576685      -1.40716981
13
Frame=15 idx=003733 GeodesicLength=0.4627819983376369 rxn_smarts="[C:1]1([H:7])([H:8])[N:2]([H:9])[C:3]12[C:4]([H:10])([H:11])[O:5][C:6]2([H:12])[H:13]>>[C-:1]([N:2]([C+:3]1[C:4]([H:10])([H:11])[O:5][C:6]1([H:12])[H:13])[H:9])([H:7])[H:8]"
C       -1.24029403      -1.31237426      -0.36445299
N       -0.86852818      -0.73396624       0.83972229
C       -0.05115676       0.04855080       0.07332594
C        0.26542789       1.50742142       0.29878821
O        1.63040221       1.26487239      -0.08243076
C        1.37589654      -0.12575312      -0.35991307
H       -1.37800535      -2.38214247      -0.28291903
H       -1.63045203      -0.94344903      -1.30130110
H       -1.61361080      -0.25293064       1.32617309
H        0.20423947       1.85920268       1.33735643
H       -0.22348441       2.23921887      -0.35232320
H        1.94670291      -0.81226140       0.27817841
H        1.58286254      -0.35638899      -1.41020422
13
Frame=16 idx=003733 GeodesicLength=0.4939927769732298 rxn_smarts="[C:1]1([H:7])([H:8])[N:2]([H:9])[C:3]12[C:4]([H:10])([H:11])[O:5][C:6]2([H:12])[H:13]>>[C-:1]([N:2]([C+:3]1[C:4]([H:10])([H:11])[O:5][C:6]1([H:12])[H:13])[H:9])([H:7])[H:8]"
C       -1.23721743      -1.30570277      -0.36094402
N       -0.86546420      -0.73655838       0.84939820
C       -0.05228750       0.04460547       0.07219665
C        0.26295525       1.50376027       0.30061270
O        1.62717228       1.26462277      -0.08521901
C        1.37422558      -0.12601358      -0.36252353
H       -1.37914485      -2.37449466      -0.27791083
H       -1.61850565      -0.94841943      -1.30601391
H       -1.61601250      -0.24249916       1.31369122
H        0.20698715       1.85309008       1.34011239
H       -0.22943745       2.23682023      -0.34608181
H        1.94521767      -0.81226571       0.27540198
H        1.58151163      -0.35694514      -1.41272002
