14
Frame=0 idx=006648 GeodesicLength=0.0 rxn_smarts="[C:1]1([H:8])([H:9])[N:2]([H:10])[C@:3]12[C@:4]1([H:11])[C:5]([H:12])([H:13])[C@@:6]2([H:14])[O:7]1>>[C-:1]1([H:8])[N+:2]([H:9])([H:10])[C@:3]12[C@:4]1([H:11])[C:5]([H:12])([H:13])[C@@:6]2([H:14])[O:7]1"
C       -1.30503942      -1.17511950      -0.42408951
N       -1.78583728       0.50880090      -0.15169161
C       -0.44468073      -0.02847782      -0.15018083
C        0.60943981       0.28707820       0.90925630
C        1.66309576      -0.31510028      -0.04100344
C        0.75283213       0.62866190      -0.84767596
O        0.82004951       1.59053423       0.26635110
H       -1.55687441      -1.68819037       0.51081068
H       -2.26144693      -0.30425685      -0.84859930
H       -2.17838419       0.56387118       0.78120478
H        0.54800532       0.25141462       1.99613309
H        1.61314650      -1.38277195      -0.25537064
H        2.67265484       0.05704507       0.11631074
H        0.85303909       1.00651061      -1.86145541
14
Frame=1 idx=006648 GeodesicLength=0.0516513746679696 rxn_smarts="[C:1]1([H:8])([H:9])[N:2]([H:10])[C@:3]12[C@:4]1([H:11])[C:5]([H:12])([H:13])[C@@:6]2([H:14])[O:7]1>>[C-:1]1([H:8])[N+:2]([H:9])([H:10])[C@:3]12[C@:4]1([H:11])[C:5]([H:12])([H:13])[C@@:6]2([H:14])[O:7]1"
C       -1.31250577      -1.16949058      -0.41758435
N       -1.78661890       0.49882252      -0.14653103
C       -0.44287137      -0.03033786      -0.14514390
C        0.61355794       0.28760693       0.91148752
C        1.66532774      -0.31406656      -0.04111096
C        0.75164457       0.62765885      -0.84631796
O        0.82060831       1.59083730       0.26659940
H       -1.56369747      -1.68982567       0.51286485
H       -2.26204254      -0.30058114      -0.87592941
H       -2.17922011       0.56385961       0.78529122
H        0.55578129       0.25319769       1.99858634
H        1.61596457      -1.38197687      -0.25432227
H        2.67490655       0.05950510       0.11279486
H        0.84916520       1.00479069      -1.86068430
14
Frame=2 idx=006648 GeodesicLength=0.10328311115790953 rxn_smarts="[C:1]1([H:8])([H:9])[N:2]([H:10])[C@:3]12[C@:4]1([H:11])[C:5]([H:12])([H:13])[C@@:6]2([H:14])[O:7]1>>[C-:1]1([H:8])[N+:2]([H:9])([H:10])[C@:3]12[C@:4]1([H:11])[C:5]([H:12])([H:13])[C@@:6]2([H:14])[O:7]1"
C       -1.31997544      -1.16389556      -0.41124632
N       -1.78748716       0.48888103      -0.14152112
C       -0.44115059      -0.03224917      -0.14012478
C        0.61757396       0.28809535       0.91370199
C        1.66747785      -0.31304156      -0.04121686
C        0.75037175       0.62662776      -0.84495126
O        0.82103661       1.59110531       0.26686029
H       -1.57031955      -1.69166021       0.51464794
H       -2.26214868      -0.29702343      -0.90252710
H       -2.17980479       0.56438843       0.78924260
H        0.56338990       0.25492560       2.00100494
H        1.61875042      -1.38118804      -0.25328498
H        2.67705236       0.06197614       0.10930323
H        0.84523338       1.00305834      -1.85988857
14
Frame=3 idx=006648 GeodesicLength=0.1548922340879947 rxn_smarts="[C:1]1([H:8])([H:9])[N:2]([H:10])[C@:3]12[C@:4]1([H:11])[C:5]([H:12])([H:13])[C@@:6]2([H:14])[O:7]1>>[C-:1]1([H:8])[N+:2]([H:9])([H:10])[C@:3]12[C@:4]1([H:11])[C:5]([H:12])([H:13])[C@@:6]2([H:14])[O:7]1"
C       -1.32743021      -1.15833472      -0.40506908
N       -1.78842448       0.47900601      -0.13664446
C       -0.43951339      -0.03420120      -0.13512957
C        0.62149378       0.28854769       0.91589730
C        1.66955170      -0.31202543      -0.04132199
C        0.74902467       0.62557292      -0.84357833
O        0.82135273       1.59134188       0.26713254
H       -1.57676040      -1.69366736       0.51616555
H       -2.26183428      -0.29360746      -0.92839566
H       -2.18016518       0.56539975       0.79304765
H        0.57083759       0.25660244       2.00338771
H        1.62150634      -1.38040544      -0.25226112
H        2.67909977       0.06445207       0.10583995
H        0.84126136       1.00131885      -1.85907049
14
Frame=4 idx=006648 GeodesicLength=0.2064774717954004 rxn_smarts="[C:1]1([H:8])([H:9])[N:2]([H:10])[C@:3]12[C@:4]1([H:11])[C:5]([H:12])([H:13])[C@@:6]2([H:14])[O:7]1>>[C-:1]1([H:8])[N+:2]([H:9])([H:10])[C@:3]12[C@:4]1([H:11])[C:5]([H:12])([H:13])[C@@:6]2([H:14])[O:7]1"
C       -1.33486122      -1.15281049      -0.39904651
N       -1.78941781       0.46922238      -0.13188526
C       -0.43795548      -0.03618421      -0.13016357
C        0.62532622       0.28896897       0.91807490
C        1.67155745      -0.31101714      -0.04142730
C        0.74761687       0.62450060      -0.84220437
O        0.82158069       1.59155388       0.26741570
H       -1.58304773      -1.69582695       0.51742709
H       -2.26116649      -0.29035640      -0.95354733
H       -2.18033147       0.56683619       0.79669947
H        0.57813404       0.25823246       2.00574124
H        1.62423346      -1.37962940      -0.25125371
H        2.68106215       0.06692959       0.10240876
H        0.83726931       0.99958051      -1.85823911
14
Frame=5 idx=006648 GeodesicLength=0.25805283162729875 rxn_smarts="[C:1]1([H:8])([H:9])[N:2]([H:10])[C@:3]12[C@:4]1([H:11])[C:5]([H:12])([H:13])[C@@:6]2([H:14])[O:7]1>>[C-:1]1([H:8])[N+:2]([H:9])([H:10])[C@:3]12[C@:4]1([H:11])[C:5]([H:12])([H:13])[C@@:6]2([H:14])[O:7]1"
C       -1.34222872      -1.14730698      -0.39316636
N       -1.79044255       0.45955575      -0.12722129
C       -0.43646774      -0.03818713      -0.12523478
C        0.62906672       0.28935880       0.92021907
C        1.67349235      -0.31002104      -0.04153333
C        0.74614999       0.62340720      -0.84082065
O        0.82171370       1.59172999       0.26770711
H       -1.58915738      -1.69809157       0.51843245
H       -2.26021334      -0.28729019      -0.97798876
H       -2.18031252       0.56865616       0.80018793
H        0.58527039       0.25981512       2.00803549
H        1.62693732      -1.37885637      -0.25026297
H        2.68292740       0.06939233       0.09901548
H        0.83326439       0.99783792      -1.85736937
14
Frame=6 idx=006648 GeodesicLength=0.3095822427794798 rxn_smarts="[C:1]1([H:8])([H:9])[N:2]([H:10])[C@:3]12[C@:4]1([H:11])[C:5]([H:12])([H:13])[C@@:6]2([H:14])[O:7]1>>[C-:1]1([H:8])[N+:2]([H:9])([H:10])[C@:3]12[C@:4]1([H:11])[C:5]([H:12])([H:13])[C@@:6]2([H:14])[O:7]1"
C       -1.34955110      -1.14183747      -0.38741990
N       -1.79149680       0.45002099      -0.12264655
C       -0.43504860      -0.04020607      -0.12033452
C        0.63273458       0.28972317       0.92234587
C        1.67536937      -0.30903226      -0.04164170
C        0.74463633       0.62230359      -0.83943553
O        0.82178606       1.59188691       0.26801071
H       -1.59516163      -1.70046174       0.51920100
H       -2.25899369      -0.28442109      -1.00176566
H       -2.18015266       0.57080360       0.80351053
H        0.59228604       0.26135669       2.01030254
H        1.62961832      -1.37808867      -0.24929300
H        2.68472062       0.07184910       0.09565328
H        0.82925316       0.99610324      -1.85648709
14
Frame=7 idx=006648 GeodesicLength=0.361100540727428 rxn_smarts="[C:1]1([H:8])([H:9])[N:2]([H:10])[C@:3]12[C@:4]1([H:11])[C:5]([H:12])([H:13])[C@@:6]2([H:14])[O:7]1>>[C-:1]1([H:8])[N+:2]([H:9])([H:10])[C@:3]12[C@:4]1([H:11])[C:5]([H:12])([H:13])[C@@:6]2([H:14])[O:7]1"
C       -1.35680830      -1.13639843      -0.38179832
N       -1.79256385       0.44062994      -0.11813845
C       -0.43369071      -0.04223776      -0.11547132
C        0.63633035       0.29006312       0.92444843
C        1.67719237      -0.30805127      -0.04175203
C        0.74308252       0.62118893      -0.83804801
O        0.82180108       1.59202184       0.26832470
H       -1.60106066      -1.70290626       0.51974045
H       -2.25757756      -0.28175556      -1.02490688
H       -2.17985502       0.57324007       0.80667208
H        0.59917483       0.26285718       2.01253135
H        1.63228300      -1.37732463      -0.24834330
H        2.68644176       0.07429881       0.09232711
H        0.82525019       0.99437401      -1.85558581
14
Frame=8 idx=006648 GeodesicLength=0.41259906424248044 rxn_smarts="[C:1]1([H:8])([H:9])[N:2]([H:10])[C@:3]12[C@:4]1([H:11])[C:5]([H:12])([H:13])[C@@:6]2([H:14])[O:7]1>>[C-:1]1([H:8])[N+:2]([H:9])([H:10])[C@:3]12[C@:4]1([H:11])[C:5]([H:12])([H:13])[C@@:6]2([H:14])[O:7]1"
C       -1.36399875      -1.13098621      -0.37628905
N       -1.79363757       0.43139540      -0.11368609
C       -0.43239024      -0.04427767      -0.11063613
C        0.63986386       0.29037988       0.92653078
C        1.67896682      -0.30707717      -0.04186592
C        0.74149136       0.62006626      -0.83665509
O        0.82177047       1.59213677       0.26865246
H       -1.60689005      -1.70540653       0.52006093
H       -2.25597672      -0.27931394      -1.04745693
H       -2.17944712       0.57593154       0.80967098
H        0.60596185       0.26431878       2.01472735
H        1.63493344      -1.37656270      -0.24741674
H        2.68809877       0.07674166       0.08902718
H        0.82125388       0.99265393      -1.85466374
14
Frame=9 idx=006648 GeodesicLength=0.46409183036108925 rxn_smarts="[C:1]1([H:8])([H:9])[N:2]([H:10])[C@:3]12[C@:4]1([H:11])[C:5]([H:12])([H:13])[C@@:6]2([H:14])[O:7]1>>[C-:1]1([H:8])[N+:2]([H:9])([H:10])[C@:3]12[C@:4]1([H:11])[C:5]([H:12])([H:13])[C@@:6]2([H:14])[O:7]1"
C       -1.37111750      -1.12559838      -0.37087957
N       -1.79470958       0.42232617      -0.10927565
C       -0.43114285      -0.04632254      -0.10582135
C        0.64334312       0.29067533       0.92859619
C        1.68069647      -0.30610945      -0.04198380
C        0.73986464       0.61893664      -0.83525412
O        0.82170265       1.59223271       0.26899589
H       -1.61266842      -1.70794524       0.52017341
H       -2.25421098      -0.27710245      -1.06946746
H       -2.17894933       0.57884550       0.81250940
H        0.61266303       0.26574364       2.01689431
H        1.63757118      -1.37580260      -0.24651122
H        2.68969715       0.07917596       0.08574256
H        0.81726041       0.99094471      -1.85371858
14
Frame=10 idx=006648 GeodesicLength=0.515576116592954 rxn_smarts="[C:1]1([H:8])([H:9])[N:2]([H:10])[C@:3]12[C@:4]1([H:11])[C:5]([H:12])([H:13])[C@@:6]2([H:14])[O:7]1>>[C-:1]1([H:8])[N+:2]([H:9])([H:10])[C@:3]12[C@:4]1([H:11])[C:5]([H:12])([H:13])[C@@:6]2([H:14])[O:7]1"
C       -1.37816303      -1.12023128      -0.36556120
N       -1.79577431       0.41342992      -0.10489435
C       -0.42994563      -0.04836970      -0.10101814
C        0.64677585       0.29095135       0.93064795
C        1.68238448      -0.30514801      -0.04210657
C        0.73820310       0.61780014      -0.83384205
O        0.82160529       1.59231109       0.26935647
H       -1.61841486      -1.71051003       0.52008440
H       -2.25228799      -0.27512483      -1.09098606
H       -2.17838076       0.58195229       0.81519136
H        0.61929861       0.26713793       2.01903592
H        1.64019681      -1.37504460      -0.24562592
H        2.69124122       0.08160090       0.08246662
H        0.81326122       0.98924482      -1.85274843
14
Frame=11 idx=006648 GeodesicLength=0.567058835926555 rxn_smarts="[C:1]1([H:8])([H:9])[N:2]([H:10])[C@:3]12[C@:4]1([H:11])[C:5]([H:12])([H:13])[C@@:6]2([H:14])[O:7]1>>[C-:1]1([H:8])[N+:2]([H:9])([H:10])[C@:3]12[C@:4]1([H:11])[C:5]([H:12])([H:13])[C@@:6]2([H:14])[O:7]1"
C       -1.38513514      -1.11488259      -0.36032377
N       -1.79682704       0.40471269      -0.10053109
C       -0.42879512      -0.05041880      -0.09621894
C        0.65016924       0.29120784       0.93268999
C        1.68403587      -0.30419192      -0.04223490
C        0.73650796       0.61665716      -0.83241681
O        0.82148358       1.59237263       0.26973644
H       -1.62415516      -1.71308622       0.51980304
H       -2.25021668      -0.27338690      -1.11206117
H       -2.17775545       0.58522781       0.81772377
H        0.62588523       0.26850356       2.02115742
H        1.64281643      -1.37428739      -0.24476402
H        2.69273614       0.08401998       0.07919373
H        0.80925013       0.98755216      -1.85175369
14
Frame=12 idx=006648 GeodesicLength=0.618534829477121 rxn_smarts="[C:1]1([H:8])([H:9])[N:2]([H:10])[C@:3]12[C@:4]1([H:11])[C:5]([H:12])([H:13])[C@@:6]2([H:14])[O:7]1>>[C-:1]1([H:8])[N+:2]([H:9])([H:10])[C@:3]12[C@:4]1([H:11])[C:5]([H:12])([H:13])[C@@:6]2([H:14])[O:7]1"
C       -1.39203129      -1.10954642      -0.35516183
N       -1.79786409       0.39618028      -0.09617439
C       -0.42768849      -0.05246217      -0.09142776
C        0.65352606       0.29144833       0.93471958
C        1.68565095      -0.30324181      -0.04236963
C        0.73478433       0.61551096      -0.83097901
O        0.82134684       1.59241881       0.27013445
H       -1.62988595      -1.71566182       0.51933503
H       -2.24802376      -0.27190227      -1.13271821
H       -2.17708346       0.58864714       0.82011734
H        0.63242325       0.26984225       2.02325482
H        1.64542374      -1.37353088      -0.24392359
H        2.69418436       0.08642557       0.07592587
H        0.80523749       0.98587202      -1.85073268
14
Frame=13 idx=006648 GeodesicLength=0.6700015755740303 rxn_smarts="[C:1]1([H:8])([H:9])[N:2]([H:10])[C@:3]12[C@:4]1([H:11])[C:5]([H:12])([H:13])[C@@:6]2([H:14])[O:7]1>>[C-:1]1([H:8])[N+:2]([H:9])([H:10])[C@:3]12[C@:4]1([H:11])[C:5]([H:12])([H:13])[C@@:6]2([H:14])[O:7]1"
C       -1.39885047      -1.10422013      -0.35006724
N       -1.79888220       0.38783954      -0.09181479
C       -0.42662277      -0.05449485      -0.08664785
C        0.65684897       0.29167350       0.93673719
C        1.68723219      -0.30229857      -0.04251293
C        0.73303677       0.61436627      -0.82953106
O        0.82120071       1.59245353       0.27055210
H       -1.63561208      -1.71822611       0.51869354
H       -2.24573116      -0.27068738      -1.15298789
H       -2.17637307       0.59219392       0.82238241
H        0.63891195       0.27115168       2.02533062
H        1.64801817      -1.37277688      -0.24311095
H        2.69558920       0.08881388       0.07266574
H        0.80123379       0.98421161      -1.84968890
14
Frame=14 idx=006648 GeodesicLength=0.7214643280851889 rxn_smarts="[C:1]1([H:8])([H:9])[N:2]([H:10])[C@:3]12[C@:4]1([H:11])[C:5]([H:12])([H:13])[C@@:6]2([H:14])[O:7]1>>[C-:1]1([H:8])[N+:2]([H:9])([H:10])[C@:3]12[C@:4]1([H:11])[C:5]([H:12])([H:13])[C@@:6]2([H:14])[O:7]1"
C       -1.40559477      -1.09889844      -0.34503227
N       -1.79987853       0.37969050      -0.08744236
C       -0.42559605      -0.05651507      -0.08187130
C        0.66014398       0.29188439       0.93874393
C        1.68877947      -0.30136073      -0.04266533
C        0.73126462       0.61322322      -0.82806764
O        0.82105197       1.59247510       0.27099145
H       -1.64135001      -1.72076624       0.51788341
H       -2.24333400      -0.26975211      -1.17291453
H       -2.17563111       0.59585152       0.82452582
H        0.64536714       0.27243392       2.02738345
H        1.65059624      -1.37202189      -0.24232498
H        2.69695167       0.09118568       0.06940553
H        0.79722939       0.98257016      -1.84861517
14
Frame=15 idx=006648 GeodesicLength=0.7729210508213891 rxn_smarts="[C:1]1([H:8])([H:9])[N:2]([H:10])[C@:3]12[C@:4]1([H:11])[C:5]([H:12])([H:13])[C@@:6]2([H:14])[O:7]1>>[C-:1]1([H:8])[N+:2]([H:9])([H:10])[C@:3]12[C@:4]1([H:11])[C:5]([H:12])([H:13])[C@@:6]2([H:14])[O:7]1"
C       -1.41226432      -1.09357797      -0.34005135
N       -1.80085331       0.37173827      -0.08304776
C       -0.42460663      -0.05851914      -0.07709568
C        0.66341427       0.29208289       0.94074304
C        1.69029515      -0.30043001      -0.04282794
C        0.72946926       0.61208466      -0.82659033
O        0.82090355       1.59248792       0.27145336
H       -1.64710538      -1.72327610       0.51691138
H       -2.24083802      -0.26910560      -1.19253640
H       -2.17486740       0.59960789       0.82656248
H        0.65179450       0.27368890       2.02941944
H        1.65315965      -1.37126978      -0.24156641
H        2.69827530       0.09353724       0.06614241
H        0.79322337       0.98095083      -1.84751624
14
Frame=16 idx=006648 GeodesicLength=0.8243724850510239 rxn_smarts="[C:1]1([H:8])([H:9])[N:2]([H:10])[C@:3]12[C@:4]1([H:11])[C:5]([H:12])([H:13])[C@@:6]2([H:14])[O:7]1>>[C-:1]1([H:8])[N+:2]([H:9])([H:10])[C@:3]12[C@:4]1([H:11])[C:5]([H:12])([H:13])[C@@:6]2([H:14])[O:7]1"
C       -1.41886140      -1.08825262      -0.33511853
N       -1.80180469       0.36398440      -0.07862232
C       -0.42365292      -0.06050353      -0.07231812
C        0.66666381       0.29227050       0.94273431
C        1.69177892      -0.29950543      -0.04300144
C        0.72765146       0.61095199      -0.82509657
O        0.82076108       1.59249162       0.27193881
H       -1.65288565      -1.72574527       0.51578146
H       -2.23824530      -0.26876054      -1.21188678
H       -2.17408640       0.60344959       0.82850248
H        0.65820165       0.27491603       2.03143662
H        1.65570479      -1.37051799      -0.24083559
H        2.69956089       0.09586717       0.06287393
H        0.78921376       0.97935408      -1.84638826
