15
Frame=0 idx=010476 GeodesicLength=0.0 rxn_smarts="[C:1]([C@@:2]([O:3][H:11])([C:4]([O:5][H:14])([H:12])[H:13])[C:6]#[C:7][H:15])([H:8])([H:9])[H:10]>>[C:1]([H:8])([H:9])([H:10])[H:11].[C:2](=[O:3])([C:4]([O:5][H:14])([H:12])[H:13])[C:6]#[C:7][H:15]"
C       -0.59896950      -1.52958804       0.61456582
C       -0.14753829      -0.01627987      -0.56165335
O       -0.62958054      -0.37732960      -1.73172603
C       -0.83739199       1.11676199       0.20943312
O       -0.50394993       2.34657916      -0.37261698
C        1.31843176       0.04969052      -0.43258881
C        2.50825588       0.16574025      -0.36236495
H       -1.49535022      -1.26470695       1.16751018
H        0.29410143      -1.54225468       1.22760254
H       -0.71248448      -2.53095599       0.16952889
H       -0.72697414      -1.21951949      -0.68300120
H       -0.56832608       1.07740608       1.27213541
H       -1.91358745       0.98895685       0.09440096
H        0.44447643       2.48115222      -0.29364935
H        3.56888718       0.25434751      -0.31757625
15
Frame=1 idx=010476 GeodesicLength=0.11392601284214998 rxn_smarts="[C:1]([C@@:2]([O:3][H:11])([C:4]([O:5][H:14])([H:12])[H:13])[C:6]#[C:7][H:15])([H:8])([H:9])[H:10]>>[C:1]([H:8])([H:9])([H:10])[H:11].[C:2](=[O:3])([C:4]([O:5][H:14])([H:12])[H:13])[C:6]#[C:7][H:15]"
C       -0.61665961      -1.54364137       0.61900680
C       -0.13440214      -0.01819433      -0.55687326
O       -0.60615800      -0.37687397      -1.73125229
C       -0.82697378       1.11727592       0.20760654
O       -0.49332919       2.34752422      -0.37360200
C        1.33133987       0.05477972      -0.42992629
C        2.52013683       0.18539688      -0.36591223
H       -1.51729347      -1.27916914       1.16568169
H        0.26543733      -1.55746679       1.24885930
H       -0.71963365      -2.54986637       0.18400313
H       -0.76964298      -1.22690021      -0.69456071
H       -0.56350651       1.07766326       1.27168424
H       -1.90329643       0.99046823       0.09277621
H        0.45432202       2.48433139      -0.28973167
H        3.57965970       0.29467257      -0.34775945
15
Frame=2 idx=010476 GeodesicLength=0.2278664099931113 rxn_smarts="[C:1]([C@@:2]([O:3][H:11])([C:4]([O:5][H:14])([H:12])[H:13])[C:6]#[C:7][H:15])([H:8])([H:9])[H:10]>>[C:1]([H:8])([H:9])([H:10])[H:11].[C:2](=[O:3])([C:4]([O:5][H:14])([H:12])[H:13])[C:6]#[C:7][H:15]"
C       -0.63469588      -1.55794654       0.62314268
C       -0.12033283      -0.02034949      -0.55154098
O       -0.58241318      -0.37838739      -1.72934772
C       -0.81602893       1.11757272       0.20586992
O       -0.48272129       2.34811639      -0.37508850
C        1.34516061       0.06050078      -0.42720271
C        2.53270910       0.20616826      -0.37022671
H       -1.53937648      -1.29384983       1.16380112
H        0.23587661      -1.57345123       1.26994057
H       -0.72786679      -2.56862211       0.19791300
H       -0.81391668      -1.23280051      -0.70626192
H       -0.55805433       1.07796929       1.27127727
H       -1.89247280       0.99151863       0.09143073
H        0.46402379       2.48772894      -0.28615959
H        3.59010908       0.33583208      -0.37754715
15
Frame=3 idx=010476 GeodesicLength=0.34184087852035255 rxn_smarts="[C:1]([C@@:2]([O:3][H:11])([C:4]([O:5][H:14])([H:12])[H:13])[C:6]#[C:7][H:15])([H:8])([H:9])[H:10]>>[C:1]([H:8])([H:9])([H:10])[H:11].[C:2](=[O:3])([C:4]([O:5][H:14])([H:12])[H:13])[C:6]#[C:7][H:15]"
C       -0.65322469      -1.57249729       0.62697920
C       -0.10518661      -0.02274044      -0.54547637
O       -0.55812694      -0.38197913      -1.72585486
C       -0.80459016       1.11763142       0.20424953
O       -0.47211568       2.34833082      -0.37703570
C        1.36000203       0.06693148      -0.42410496
C        2.54603245       0.22826261      -0.37505475
H       -1.56193198      -1.30877588       1.16158712
H        0.20508265      -1.59011854       1.29106012
H       -0.73716886      -2.58730100       0.21134989
H       -0.85940303      -1.23721554      -0.71818473
H       -0.55217001       1.07832947       1.27098336
H       -1.88112957       0.99206491       0.09022281
H        0.47355836       2.49138131      -0.28272528
H        3.60037202       0.37769580      -0.40799539
15
Frame=4 idx=010476 GeodesicLength=0.4558477643443118 rxn_smarts="[C:1]([C@@:2]([O:3][H:11])([C:4]([O:5][H:14])([H:12])[H:13])[C:6]#[C:7][H:15])([H:8])([H:9])[H:10]>>[C:1]([H:8])([H:9])([H:10])[H:11].[C:2](=[O:3])([C:4]([O:5][H:14])([H:12])[H:13])[C:6]#[C:7][H:15]"
C       -0.67230624      -1.58729289       0.63048823
C       -0.08897725      -0.02540166      -0.53867450
O       -0.53359663      -0.38773492      -1.72066253
C       -0.79255323       1.11742714       0.20280801
O       -0.46145629       2.34812225      -0.37945048
C        1.37585221       0.07401325      -0.42094644
C        2.56006319       0.25157509      -0.38095266
H       -1.58505228      -1.32393047       1.15894801
H        0.17296684      -1.60739832       1.31216017
H       -0.74758662      -2.60598872       0.22443442
H       -0.90597322      -1.24016939      -0.73043005
H       -0.54560563       1.07872458       1.27083078
H       -1.86918366       0.99212855       0.08936047
H        0.48298197       2.49523885      -0.27955568
H        3.61042684       0.42068666      -0.43835774
15
Frame=5 idx=010476 GeodesicLength=0.5698943803462411 rxn_smarts="[C:1]([C@@:2]([O:3][H:11])([C:4]([O:5][H:14])([H:12])[H:13])[C:6]#[C:7][H:15])([H:8])([H:9])[H:10]>>[C:1]([H:8])([H:9])([H:10])[H:11].[C:2](=[O:3])([C:4]([O:5][H:14])([H:12])[H:13])[C:6]#[C:7][H:15]"
C       -0.69208139      -1.60230902       0.63367831
C       -0.07153235      -0.02830868      -0.53090924
O       -0.50850350      -0.39568761      -1.71359363
C       -0.77997482       1.11693304       0.20159385
O       -0.45074992       2.34747330      -0.38223246
C        1.39283521       0.08186806      -0.41733984
C        2.57485744       0.27635147      -0.38753192
H       -1.60914024      -1.33936043       1.15546181
H        0.13909414      -1.62506357       1.33353601
H       -0.75896736      -2.62476380       0.23734185
H       -0.95312251      -1.24173992      -0.74318314
H       -0.53863384       1.07915613       1.27091882
H       -1.85666366       0.99163961       0.08866945
H        0.49224203       2.49935540      -0.27635296
H        3.62034077       0.46445602      -0.47005692
15
Frame=6 idx=010476 GeodesicLength=0.6839630044723684 rxn_smarts="[C:1]([C@@:2]([O:3][H:11])([C:4]([O:5][H:14])([H:12])[H:13])[C:6]#[C:7][H:15])([H:8])([H:9])[H:10]>>[C:1]([H:8])([H:9])([H:10])[H:11].[C:2](=[O:3])([C:4]([O:5][H:14])([H:12])[H:13])[C:6]#[C:7][H:15]"
C       -0.71256914      -1.61753390       0.63652029
C       -0.05291435      -0.03150198      -0.52223142
O       -0.48328923      -0.40585981      -1.70456286
C       -0.76672155       1.11611519       0.20068894
O       -0.43995046       2.34633332      -0.38537774
C        1.41089306       0.09041432      -0.41383094
C        2.59031702       0.30237007      -0.39551115
H       -1.63422446      -1.35503722       1.15104789
H        0.10342773      -1.64295970       1.35507732
H       -0.77130009      -2.64370306       0.25025706
H       -1.00080346      -1.24200732      -0.75660288
H       -0.53087593       1.07959007       1.27127239
H       -1.84346779       0.99061934       0.08847224
H        0.50139643       2.50365494      -0.27334033
H        3.63008224       0.50950574      -0.50187881
15
Frame=7 idx=010476 GeodesicLength=0.7980483893507908 rxn_smarts="[C:1]([C@@:2]([O:3][H:11])([C:4]([O:5][H:14])([H:12])[H:13])[C:6]#[C:7][H:15])([H:8])([H:9])[H:10]>>[C:1]([H:8])([H:9])([H:10])[H:11].[C:2](=[O:3])([C:4]([O:5][H:14])([H:12])[H:13])[C:6]#[C:7][H:15]"
C       -0.73387012      -1.63293857       0.63901760
C       -0.03298170      -0.03496460      -0.51244606
O       -0.45773470      -0.41822933      -1.69339706
C       -0.75282032       1.11493571       0.20016588
O       -0.42907065       2.34467621      -0.38876907
C        1.43011726       0.09975959      -0.41020720
C        2.60645747       0.32980194      -0.40466807
H       -1.66063444      -1.37099569       1.14528920
H        0.06556697      -1.66080070       1.37701702
H       -0.78440175      -2.66286840       0.26340208
H       -1.04858942      -1.24109283      -0.77094662
H       -0.52249501       1.08001350       1.27199493
H       -1.82960286       0.98898940       0.08869376
H        0.51039261       2.50816900      -0.27028982
H        3.63966667       0.55554478      -0.53485658
15
Frame=8 idx=010476 GeodesicLength=0.9121417367513573 rxn_smarts="[C:1]([C@@:2]([O:3][H:11])([C:4]([O:5][H:14])([H:12])[H:13])[C:6]#[C:7][H:15])([H:8])([H:9])[H:10]>>[C:1]([H:8])([H:9])([H:10])[H:11].[C:2](=[O:3])([C:4]([O:5][H:14])([H:12])[H:13])[C:6]#[C:7][H:15]"
C       -0.75603766      -1.64850425       0.64116410
C       -0.01169408      -0.03872142      -0.50148469
O       -0.43196528      -0.43277027      -1.67996260
C       -0.73820173       1.11334613       0.20011325
O       -0.41808843       2.34245155      -0.39233420
C        1.45051667       0.10990522      -0.40669588
C        2.62322325       0.35858655      -0.41530046
H       -1.68852758      -1.38722773       1.13792457
H        0.02527463      -1.67833081       1.39940632
H       -0.79817921      -2.68231889       0.27701616
H       -1.09627770      -1.23912125      -0.78646785
H       -0.51334446       1.08039232       1.27315843
H       -1.81500716       0.98670734       0.08948920
H        0.51924099       2.51285891      -0.26721657
H        3.64906776       0.60274659      -0.56880978
15
Frame=9 idx=010476 GeodesicLength=1.0262092571100034 rxn_smarts="[C:1]([C@@:2]([O:3][H:11])([C:4]([O:5][H:14])([H:12])[H:13])[C:6]#[C:7][H:15])([H:8])([H:9])[H:10]>>[C:1]([H:8])([H:9])([H:10])[H:11].[C:2](=[O:3])([C:4]([O:5][H:14])([H:12])[H:13])[C:6]#[C:7][H:15]"
C       -0.77914498      -1.66420380       0.64296255
C        0.01098095      -0.04283823      -0.48929588
O       -0.40616304      -0.44944818      -1.66413487
C       -0.72274820       1.11127551       0.20062779
O       -0.40693158       2.33957737      -0.39599985
C        1.47208816       0.12076620      -0.40361798
C        2.64055612       0.38849342      -0.42776700
H       -1.71805048      -1.40369446       1.12871397
H       -0.01768998      -1.69528851       1.42224964
H       -0.81260482      -2.70208025       0.29136489
H       -1.14372067      -1.23623813      -0.80343482
H       -0.50318376       1.08066511       1.27483131
H       -1.79957725       0.98373714       0.09106229
H        0.52801513       2.51761609      -0.26419279
H        3.65817440       0.65166071      -0.60336923
15
Frame=10 idx=010476 GeodesicLength=1.1402594374279824 rxn_smarts="[C:1]([C@@:2]([O:3][H:11])([C:4]([O:5][H:14])([H:12])[H:13])[C:6]#[C:7][H:15])([H:8])([H:9])[H:10]>>[C:1]([H:8])([H:9])([H:10])[H:11].[C:2](=[O:3])([C:4]([O:5][H:14])([H:12])[H:13])[C:6]#[C:7][H:15]"
C       -0.80326200      -1.68000956       0.64442403
C        0.03522807      -0.04728897      -0.47561940
O       -0.38000454      -0.46817962      -1.64568042
C       -0.70650704       1.10866722       0.20182369
O       -0.39567324       2.33602300      -0.39959116
C        1.49493033       0.13253233      -0.40071628
C        2.65843678       0.41986220      -0.44189629
H       -1.74949095      -1.42043830       1.11713010
H       -0.06382205      -1.71128566       1.44577899
H       -0.82746133      -2.72218182       0.30673671
H       -1.19041115      -1.23259910      -0.82224093
H       -0.49222499       1.08081355       1.27716451
H       -1.78333136       0.97993103       0.09334787
H        0.53658599       2.52250650      -0.26092252
H        3.66700747       0.70164721      -0.63973888
15
Frame=11 idx=010476 GeodesicLength=1.2542757424496715 rxn_smarts="[C:1]([C@@:2]([O:3][H:11])([C:4]([O:5][H:14])([H:12])[H:13])[C:6]#[C:7][H:15])([H:8])([H:9])[H:10]>>[C:1]([H:8])([H:9])([H:10])[H:11].[C:2](=[O:3])([C:4]([O:5][H:14])([H:12])[H:13])[C:6]#[C:7][H:15]"
C       -0.82846621      -1.69589018       0.64556196
C        0.06118646      -0.05211314      -0.46024719
O       -0.35335964      -0.48889435      -1.62437587
C       -0.68942235       1.10543908       0.20383175
O       -0.38429210       2.33170911      -0.40295865
C        1.51909857       0.14524387      -0.39798012
C        2.67681033       0.45273569      -0.45778362
H       -1.78304735      -1.43744778       1.10272374
H       -0.11356841      -1.72595635       1.47008348
H       -0.84266778      -2.74261602       0.32345584
H       -1.23594999      -1.22837577      -0.84329681
H       -0.48045169       1.08078826       1.28029302
H       -1.76620270       0.97517173       0.09642096
H        0.54493885       2.52748598      -0.25726424
H        3.67539401       0.75271987      -0.67846425
15
Frame=12 idx=010476 GeodesicLength=1.3682428103395474 rxn_smarts="[C:1]([C@@:2]([O:3][H:11])([C:4]([O:5][H:14])([H:12])[H:13])[C:6]#[C:7][H:15])([H:8])([H:9])[H:10]>>[C:1]([H:8])([H:9])([H:10])[H:11].[C:2](=[O:3])([C:4]([O:5][H:14])([H:12])[H:13])[C:6]#[C:7][H:15]"
C       -0.85480917      -1.71181604       0.64639667
C        0.08895151      -0.05737167      -0.44302734
O       -0.32625085      -0.51151849      -1.60001805
C       -0.67140176       1.10149802       0.20679418
O       -0.37276905       2.32654020      -0.40596879
C        1.54459479       0.15889610      -0.39561674
C        2.69556592       0.48705337      -0.47573616
H       -1.81880469      -1.45468897       1.08511000
H       -0.16731252      -1.73893020       1.49514634
H       -0.85821531      -2.76335281       0.34188074
H       -1.27998543      -1.22373149      -0.86701958
H       -0.46771267       1.08052634       1.28434439
H       -1.74809989       0.96934313       0.10046538
H        0.55307289       2.53247697      -0.25318538
H        3.68317621       0.80507554      -0.71956567
15
Frame=13 idx=010476 GeodesicLength=1.4821576126589349 rxn_smarts="[C:1]([C@@:2]([O:3][H:11])([C:4]([O:5][H:14])([H:12])[H:13])[C:6]#[C:7][H:15])([H:8])([H:9])[H:10]>>[C:1]([H:8])([H:9])([H:10])[H:11].[C:2](=[O:3])([C:4]([O:5][H:14])([H:12])[H:13])[C:6]#[C:7][H:15]"
C       -0.88233422      -1.72774645       0.64694611
C        0.11871078      -0.06307970      -0.42365460
O       -0.29840258      -0.53593612      -1.57231919
C       -0.65242233       1.09675624       0.21088614
O       -0.36112577       2.32043826      -0.40840852
C        1.57147264       0.17360082      -0.39347305
C        2.71459996       0.52298395      -0.49570108
H       -1.85688720      -1.47217187       1.06369347
H       -0.22561795      -1.74974115       1.52101412
H       -0.87401452      -2.78432481       0.36240745
H       -1.32187187      -1.21885336      -0.89394888
H       -0.45409553       1.07998424       1.28951157
H       -1.72897743       0.96227534       0.10552793
H        0.56091020       2.53746675      -0.24843071
H        3.69005582       0.85834786      -0.76405076
15
Frame=14 idx=010476 GeodesicLength=1.5959872866956935 rxn_smarts="[C:1]([C@@:2]([O:3][H:11])([C:4]([O:5][H:14])([H:12])[H:13])[C:6]#[C:7][H:15])([H:8])([H:9])[H:10]>>[C:1]([H:8])([H:9])([H:10])[H:11].[C:2](=[O:3])([C:4]([O:5][H:14])([H:12])[H:13])[C:6]#[C:7][H:15]"
C       -0.91104289      -1.74364402       0.64725015
C        0.15049013      -0.06932703      -0.40206385
O       -0.27005862      -0.56205756      -1.54111641
C       -0.63234136       1.09110241       0.21627432
O       -0.34935286       2.31327955      -0.41015129
C        1.59961786       0.18925638      -0.39208165
C        2.73367869       0.56026681      -0.51825139
H       -1.89715338      -1.48983530       1.03815942
H       -0.28878649      -1.75796947       1.54745960
H       -0.89018745      -2.80542834       0.38548756
H       -1.36122861      -1.21389214      -0.92451058
H       -0.43925283       1.07907305       1.29591680
H       -1.70870817       0.95385349       0.11196093
H        0.56846954       2.54230905      -0.24312485
H        3.69585644       0.91301313      -0.81120876
15
Frame=15 idx=010476 GeodesicLength=1.7097194159900988 rxn_smarts="[C:1]([C@@:2]([O:3][H:11])([C:4]([O:5][H:14])([H:12])[H:13])[C:6]#[C:7][H:15])([H:8])([H:9])[H:10]>>[C:1]([H:8])([H:9])([H:10])[H:11].[C:2](=[O:3])([C:4]([O:5][H:14])([H:12])[H:13])[C:6]#[C:7][H:15]"
C       -0.94091859      -1.75945832       0.64734151
C        0.18442447      -0.07612974      -0.37800486
O       -0.24108179      -0.58973418      -1.50615278
C       -0.61111450       1.08444016       0.22316982
O       -0.33749023       2.30497436      -0.41095303
C        1.62896889       0.20590077      -0.39148911
C        2.75256850       0.59892953      -0.54348258
H       -1.93949704      -1.50769787       1.00790489
H       -0.35735652      -1.76305794       1.57432272
H       -0.90674180      -2.82650708       0.41162858
H       -1.39726405      -1.20902926      -0.95926821
H       -0.42315963       1.07772552       1.30377015
H       -1.68723289       0.94390723       0.11993527
H        0.57567483       2.54694584      -0.23707561
H        3.70022034       0.96879098      -0.86164676
15
Frame=16 idx=010476 GeodesicLength=1.8233325797597986 rxn_smarts="[C:1]([C@@:2]([O:3][H:11])([C:4]([O:5][H:14])([H:12])[H:13])[C:6]#[C:7][H:15])([H:8])([H:9])[H:10]>>[C:1]([H:8])([H:9])([H:10])[H:11].[C:2](=[O:3])([C:4]([O:5][H:14])([H:12])[H:13])[C:6]#[C:7][H:15]"
C       -0.97190995      -1.77513337       0.64727339
C        0.22055105      -0.08353277      -0.35138588
O       -0.21161926      -0.61881892      -1.46726866
C       -0.58863906       1.07666297       0.23178510
O       -0.32555910       2.29541688      -0.41058743
C        1.65933492       0.22341885      -0.39211118
C        2.77093057       0.63872560      -0.57179806
H       -1.98361086      -1.52577173       0.97245098
H       -0.43174299      -1.76440822       1.60123843
H       -0.92380618      -2.84734671       0.44142898
H       -1.42923723      -1.20444318      -0.99871527
H       -0.40556017       1.07583783       1.31325125
H       -1.66445417       0.93230351       0.12979148
H        0.58251535       2.55123455      -0.23027232
H        3.70280707       1.02585470      -0.91508079
