15
Frame=0 idx=000974 GeodesicLength=0.0 rxn_smarts="[C:1]([N:2]([C:3]([H:10])([H:11])[H:12])[C:4]([C:5](=[O:6])[H:15])([H:13])[H:14])([H:7])([H:8])[H:9]>>[C:1]([N:2]([C:3]([H:10])([H:11])[H:12])[O:6][C:5](=[C:4]([H:13])[H:14])[H:15])([H:7])([H:8])[H:9]"
C       -1.34554821      -0.46499490       0.49800013
N       -0.30162964       0.36543200      -0.01775481
C       -0.80084756       1.61881408      -0.49499958
C        1.75389497      -0.88862719      -0.70535236
C        1.67158939      -0.90821129       0.67873294
O        1.43788633       0.13503418       1.33363097
H       -2.03722845      -0.75626569      -0.30491913
H       -1.94022415       0.06182946       1.25537201
H       -0.91863502      -1.37279477       0.92928882
H       -1.33161684       2.15246018       0.30485839
H        0.02168307       2.23674396      -0.85484822
H       -1.52750168       1.47102264      -1.30700078
H        1.87691489       0.04686677      -1.23019839
H        1.81513111      -1.81162711      -1.26991464
H        1.62613179      -1.88568227       1.18510461
15
Frame=1 idx=000974 GeodesicLength=0.07792477563267325 rxn_smarts="[C:1]([N:2]([C:3]([H:10])([H:11])[H:12])[C:4]([C:5](=[O:6])[H:15])([H:13])[H:14])([H:7])([H:8])[H:9]>>[C:1]([N:2]([C:3]([H:10])([H:11])[H:12])[O:6][C:5](=[C:4]([H:13])[H:14])[H:15])([H:7])([H:8])[H:9]"
C       -1.34452888      -0.47618009       0.49127218
N       -0.29534639       0.35344530      -0.01781704
C       -0.78710937       1.61480600      -0.48310826
C        1.70471881      -0.89288885      -0.71242250
C        1.68783236      -0.88418507       0.67554683
O        1.45650295       0.17078380       1.31459544
H       -2.03702251      -0.75707988      -0.31446026
H       -1.93450478       0.04469584       1.25614935
H       -0.92457499      -1.38890208       0.91873003
H       -1.37603998       2.12735482       0.28864156
H        0.04504283       2.26027821      -0.76526499
H       -1.45826640       1.48271272      -1.34374379
H        1.84204791       0.02454677      -1.26573366
H        1.77160312      -1.83154589      -1.25017418
H        1.64964531      -1.84784161       1.20778930
15
Frame=2 idx=000974 GeodesicLength=0.15615036010410918 rxn_smarts="[C:1]([N:2]([C:3]([H:10])([H:11])[H:12])[C:4]([C:5](=[O:6])[H:15])([H:13])[H:14])([H:7])([H:8])[H:9]>>[C:1]([N:2]([C:3]([H:10])([H:11])[H:12])[O:6][C:5](=[C:4]([H:13])[H:14])[H:15])([H:7])([H:8])[H:9]"
C       -1.34370177      -0.48679985       0.48531974
N       -0.28900283       0.34187672      -0.01674223
C       -0.77346980       1.61048983      -0.47150164
C        1.65759166      -0.89681588      -0.71780425
C        1.70391927      -0.86069546       0.67060174
O        1.47549717       0.20529434       1.29463450
H       -2.03672595      -0.75732615      -0.32333282
H       -1.92910881       0.02840119       1.25728157
H       -0.93111677      -1.40466693       0.90864593
H       -1.41929259       2.10215064       0.26686085
H        0.06284661       2.28055798      -0.67438755
H       -1.38507527       1.49571655      -1.37742659
H        1.80596606       0.00161049      -1.29990105
H        1.72899705      -1.84956614      -1.22997834
H        1.67267597      -1.81022733       1.22773013
15
Frame=3 idx=000974 GeodesicLength=0.23450014725774543 rxn_smarts="[C:1]([N:2]([C:3]([H:10])([H:11])[H:12])[C:4]([C:5](=[O:6])[H:15])([H:13])[H:14])([H:7])([H:8])[H:9]>>[C:1]([N:2]([C:3]([H:10])([H:11])[H:12])[O:6][C:5](=[C:4]([H:13])[H:14])[H:15])([H:7])([H:8])[H:9]"
C       -1.34310749      -0.49692692       0.47992642
N       -0.28264994       0.33052961      -0.01497063
C       -0.75993558       1.60589059      -0.46016213
C        1.61253520      -0.90046665      -0.72162070
C        1.71974301      -0.83772955       0.66410027
O        1.49461009       0.23874125       1.27368892
H       -2.03657638      -0.75697296      -0.33162008
H       -1.92385955       0.01288470       1.25870576
H       -0.93833707      -1.42020583       0.89872657
H       -1.46035031       2.07693413       0.24029519
H        0.07484152       2.29765272      -0.58329843
H       -1.30878942       1.51025507      -1.40729161
H        1.76894438      -0.02187667      -1.33251839
H        1.68764100      -1.86598268      -1.20924212
H        1.69529054      -1.77272680       1.24528098
15
Frame=4 idx=000974 GeodesicLength=0.3129376519204193 rxn_smarts="[C:1]([N:2]([C:3]([H:10])([H:11])[H:12])[C:4]([C:5](=[O:6])[H:15])([H:13])[H:14])([H:7])([H:8])[H:9]>>[C:1]([N:2]([C:3]([H:10])([H:11])[H:12])[O:6][C:5](=[C:4]([H:13])[H:14])[H:15])([H:7])([H:8])[H:9]"
C       -1.34272339      -0.50660724       0.47496782
N       -0.27625935       0.31936454      -0.01263175
C       -0.74647178       1.60108462      -0.44900694
C        1.56943873      -0.90396889      -0.72405219
C        1.73533859      -0.81526884       0.65611573
O        1.51387928       0.27130692       1.25158942
H       -2.03645414      -0.75616226      -0.33950495
H       -1.91887644      -0.00189315       1.26020292
H       -0.94620512      -1.43547954       0.88899911
H       -1.49886320       2.05173756       0.20914103
H        0.08074459       2.31172191      -0.49223050
H       -1.22970884       1.52665226      -1.43280630
H        1.73097579      -0.04610068      -1.36359805
H        1.64751377      -1.88116142      -1.18787998
H        1.71767151      -1.73522578       1.26069463
15
Frame=5 idx=000974 GeodesicLength=0.3915546207410541 rxn_smarts="[C:1]([N:2]([C:3]([H:10])([H:11])[H:12])[C:4]([C:5](=[O:6])[H:15])([H:13])[H:14])([H:7])([H:8])[H:9]>>[C:1]([N:2]([C:3]([H:10])([H:11])[H:12])[O:6][C:5](=[C:4]([H:13])[H:14])[H:15])([H:7])([H:8])[H:9]"
C       -1.34251662      -0.51587575       0.47035821
N       -0.26985099       0.30853921      -0.00955770
C       -0.73318323       1.59625620      -0.43783528
C        1.52798722      -0.90726865      -0.72536211
C        1.75073997      -0.79322793       0.64673319
O        1.53347085       0.30326797       1.22816355
H       -2.03597525      -0.75521376      -0.34728558
H       -1.91459173      -0.01598922       1.26144187
H       -0.95462687      -1.45033649       0.87965744
H       -1.53475808       2.02637766       0.17360484
H        0.08113352       2.32271023      -0.40131491
H       -1.14787388       1.54476354      -1.45362837
H        1.69183786      -0.07095679      -1.39339781
H        1.60818469      -1.89533303      -1.16586898
H        1.74002254      -1.69771322       1.27429163
15
Frame=6 idx=000974 GeodesicLength=0.4702658362809393 rxn_smarts="[C:1]([N:2]([C:3]([H:10])([H:11])[H:12])[C:4]([C:5](=[O:6])[H:15])([H:13])[H:14])([H:7])([H:8])[H:9]>>[C:1]([N:2]([C:3]([H:10])([H:11])[H:12])[O:6][C:5](=[C:4]([H:13])[H:14])[H:15])([H:7])([H:8])[H:9]"
C       -1.34253236      -0.52476019       0.46596758
N       -0.26344146       0.29786397      -0.00605709
C       -0.71997043       1.59136264      -0.42665086
C        1.48810502      -0.91067865      -0.72560724
C        1.76597442      -0.77154655       0.63592461
O        1.55333000       0.33479999       1.20310631
H       -2.03528735      -0.75406487      -0.35502299
H       -1.91090638      -0.02941739       1.26232967
H       -0.96366570      -1.46480884       0.87058817
H       -1.56748462       2.00096735       0.13405804
H        0.07532552       2.33091129      -0.31053700
H       -1.06347888       1.56495383      -1.46933535
H        1.65158635      -0.09686770      -1.42192100
H        1.56996998      -1.90889473      -1.14302983
H        1.76247589      -1.65982015       1.28618697
15
Frame=7 idx=000974 GeodesicLength=0.5490562444297432 rxn_smarts="[C:1]([N:2]([C:3]([H:10])([H:11])[H:12])[C:4]([C:5](=[O:6])[H:15])([H:13])[H:14])([H:7])([H:8])[H:9]>>[C:1]([N:2]([C:3]([H:10])([H:11])[H:12])[O:6][C:5](=[C:4]([H:13])[H:14])[H:15])([H:7])([H:8])[H:9]"
C       -1.34280761      -0.53328984       0.46167867
N       -0.25704327       0.28726860      -0.00227877
C       -0.70676098       1.58643545      -0.41540743
C        1.44965260      -0.91431016      -0.72485943
C        1.78100774      -0.75013522       0.62372960
O        1.57335108       0.36608855       1.17622037
H       -2.03445565      -0.75273766      -0.36284149
H       -1.90787266      -0.04219214       1.26277918
H       -0.97335098      -1.47890178       0.86170065
H       -1.59671697       1.97557386       0.09102268
H        0.06363846       2.33623083      -0.22024268
H       -0.97697879       1.58722697      -1.47959994
H        1.61014803      -0.12388259      -1.44913272
H        1.53301873      -1.92202690      -1.11924573
H        1.78517028      -1.62134799       1.29647702
15
Frame=8 idx=000974 GeodesicLength=0.6280350773649109 rxn_smarts="[C:1]([N:2]([C:3]([H:10])([H:11])[H:12])[C:4]([C:5](=[O:6])[H:15])([H:13])[H:14])([H:7])([H:8])[H:9]>>[C:1]([N:2]([C:3]([H:10])([H:11])[H:12])[O:6][C:5](=[C:4]([H:13])[H:14])[H:15])([H:7])([H:8])[H:9]"
C       -1.34339717      -0.54149972       0.45741402
N       -0.25067742       0.27670089       0.00177900
C       -0.69347704       1.58151354      -0.40394664
C        1.41246146      -0.91831186      -0.72318084
C        1.79591990      -0.72885315       0.61002034
O        1.59360699       0.39738467       1.14706102
H       -2.03341593      -0.75129527      -0.37090507
H       -1.90570074      -0.05434024       1.26262249
H       -0.98370985      -1.49257777       0.85304021
H       -1.62211498       1.95022344       0.04437495
H        0.04580446       2.33842770      -0.13024497
H       -0.88818338       1.61185848      -1.48382032
H        1.56723615      -0.15232488      -1.47508523
H        1.49729830      -1.93496104      -1.09431641
H        1.80834924      -1.58194478       1.30518745
15
Frame=9 idx=000974 GeodesicLength=0.7074467721593473 rxn_smarts="[C:1]([N:2]([C:3]([H:10])([H:11])[H:12])[C:4]([C:5](=[O:6])[H:15])([H:13])[H:14])([H:7])([H:8])[H:9]>>[C:1]([N:2]([C:3]([H:10])([H:11])[H:12])[O:6][C:5](=[C:4]([H:13])[H:14])[H:15])([H:7])([H:8])[H:9]"
C       -1.34439367      -0.54942898       0.45308895
N       -0.24445588       0.26623279       0.00638945
C       -0.68019485       1.57670871      -0.39200520
C        1.37625803      -0.92256477      -0.72071180
C        1.81078282      -0.70746327       0.59470159
O        1.61423938       0.42904266       1.11516426
H       -2.03188727      -0.74989639      -0.37950208
H       -1.90484690      -0.06594770       1.26153414
H       -0.99477328      -1.50576022       0.84471167
H       -1.64329465       1.92480611      -0.00580269
H        0.02210698       2.33695751      -0.04051824
H       -0.79658347       1.63859750      -1.48138435
H        1.52236658      -0.18231978      -1.50003797
H        1.46244489      -1.94774352      -1.06802712
H        1.83223129      -1.54122066       1.31239938
15
Frame=10 idx=000974 GeodesicLength=0.7871938588481436 rxn_smarts="[C:1]([N:2]([C:3]([H:10])([H:11])[H:12])[C:4]([C:5](=[O:6])[H:15])([H:13])[H:14])([H:7])([H:8])[H:9]>>[C:1]([N:2]([C:3]([H:10])([H:11])[H:12])[O:6][C:5](=[C:4]([H:13])[H:14])[H:15])([H:7])([H:8])[H:9]"
C       -1.34594468      -0.55713077       0.44859811
N       -0.23840551       0.25556347       0.01119324
C       -0.66666281       1.57185246      -0.37971234
C        1.34113351      -0.92724286      -0.71736052
C        1.82550523      -0.68586463       0.57780381
O        1.63483927       0.46112964       1.08045542
H       -2.03042640      -0.74826824      -0.38855401
H       -1.90506188      -0.07702572       1.25972317
H       -1.00672315      -1.51863782       0.83634453
H       -1.65964323       1.89983298      -0.05873007
H       -0.00712179       2.33160036       0.04805287
H       -0.70323107       1.66745454      -1.47189016
H        1.47572957      -0.21389124      -1.52368218
H        1.42915937      -1.96042913      -1.04034866
H        1.85685356      -1.49894304       1.31810680
15
Frame=11 idx=000974 GeodesicLength=0.8674584839134004 rxn_smarts="[C:1]([N:2]([C:3]([H:10])([H:11])[H:12])[C:4]([C:5](=[O:6])[H:15])([H:13])[H:14])([H:7])([H:8])[H:9]>>[C:1]([N:2]([C:3]([H:10])([H:11])[H:12])[O:6][C:5](=[C:4]([H:13])[H:14])[H:15])([H:7])([H:8])[H:9]"
C       -1.34820331      -0.56464711       0.44383328
N       -0.23260499       0.24458529       0.01623309
C       -0.65277319       1.56687999      -0.36703639
C        1.30703076      -0.93227099      -0.71308849
C        1.84005275      -0.66387133       0.55934449
O        1.65515415       0.49379299       1.04281789
H       -2.02921416      -0.74627696      -0.39817622
H       -1.90645923      -0.08764915       1.25715684
H       -1.01973195      -1.53130055       0.82769137
H       -1.67063911       1.87559619      -0.11367850
H       -0.04112096       2.32192792       0.13460554
H       -0.60869569       1.69792236      -1.45493314
H        1.42720053      -0.24691690      -1.54582622
H        1.39763062      -1.97292335      -1.01119140
H        1.88237378      -1.45484838       1.32224786
15
Frame=12 idx=000974 GeodesicLength=0.9484362011868916 rxn_smarts="[C:1]([N:2]([C:3]([H:10])([H:11])[H:12])[C:4]([C:5](=[O:6])[H:15])([H:13])[H:14])([H:7])([H:8])[H:9]>>[C:1]([N:2]([C:3]([H:10])([H:11])[H:12])[O:6][C:5](=[C:4]([H:13])[H:14])[H:15])([H:7])([H:8])[H:9]"
C       -1.35134339      -0.57203013       0.43871195
N       -0.22713560       0.23319105       0.02163770
C       -0.63844288       1.56168337      -0.35397178
C        1.27398739      -0.93748984      -0.70785385
C        1.85436594      -0.64132001       0.53937507
O        1.67486570       0.52709023       1.00230952
H       -2.02848082      -0.74370097      -0.40844567
H       -1.90912721      -0.09796584       1.25387064
H       -1.03400121      -1.54389024       0.81843966
H       -1.67578431       1.85249011      -0.16975212
H       -0.07885864       2.30762222       0.21791372
H       -0.51382752       1.72929957      -1.43019466
H        1.37681500      -0.28124792      -1.56623288
H        1.36811983      -1.98500944      -0.98058307
H        1.90884771      -1.40872217       1.32477576
15
Frame=13 idx=000974 GeodesicLength=1.0306949181235567 rxn_smarts="[C:1]([N:2]([C:3]([H:10])([H:11])[H:12])[C:4]([C:5](=[O:6])[H:15])([H:13])[H:14])([H:7])([H:8])[H:9]>>[C:1]([N:2]([C:3]([H:10])([H:11])[H:12])[O:6][C:5](=[C:4]([H:13])[H:14])[H:15])([H:7])([H:8])[H:9]"
C       -1.35548649      -0.57931556       0.43314487
N       -0.22210880       0.22141016       0.02787485
C       -0.62372222       1.55622803      -0.34040656
C        1.24181705      -0.94263082      -0.70161106
C        1.86847686      -0.61801882       0.51784493
O        1.69384448       0.56105961       0.95894833
H       -2.02800608      -0.74052058      -0.41961090
H       -1.91342315      -0.10809722       1.24961348
H       -1.04965443      -1.55644402       0.80844438
H       -1.67483377       1.83074735      -0.22634213
H       -0.11919252       2.28868798       0.29728585
H       -0.41893381       1.76037074      -1.39752304
H        1.32417692      -0.31671782      -1.58470612
H        1.34049935      -1.99637011      -0.94846065
H        1.93654661      -1.36038892       1.32550377
15
Frame=14 idx=000974 GeodesicLength=1.114452512457948 rxn_smarts="[C:1]([N:2]([C:3]([H:10])([H:11])[H:12])[C:4]([C:5](=[O:6])[H:15])([H:13])[H:14])([H:7])([H:8])[H:9]>>[C:1]([N:2]([C:3]([H:10])([H:11])[H:12])[O:6][C:5](=[C:4]([H:13])[H:14])[H:15])([H:7])([H:8])[H:9]"
C       -1.36068753      -0.58651888       0.42704954
N       -0.21751237       0.20910552       0.03496898
C       -0.60847413       1.55030983      -0.32657862
C        1.21070938      -0.94754604      -0.69420991
C        1.88220115      -0.59400417       0.49501744
O        1.71155621       0.59544738       0.91337277
H       -2.02815108      -0.73628524      -0.43157723
H       -1.91903977      -0.11821836       1.24463293
H       -1.06684904      -1.56917042       0.79716289
H       -1.66767614       1.81088930      -0.28192774
H       -0.16060756       2.26546451       0.37101766
H       -0.32588673       1.79011560      -1.35750589
H        1.26990554      -0.35282031      -1.60076523
H        1.31518459      -2.00671030      -0.91502348
H        1.96532747      -1.31005842       1.32436590
15
Frame=15 idx=000974 GeodesicLength=1.200043277718021 rxn_smarts="[C:1]([N:2]([C:3]([H:10])([H:11])[H:12])[C:4]([C:5](=[O:6])[H:15])([H:13])[H:14])([H:7])([H:8])[H:9]>>[C:1]([N:2]([C:3]([H:10])([H:11])[H:12])[O:6][C:5](=[C:4]([H:13])[H:14])[H:15])([H:7])([H:8])[H:9]"
C       -1.36691725      -0.59363492       0.42041513
N       -0.21332012       0.19636090       0.04322619
C       -0.59273277       1.54385571      -0.31267232
C        1.18071273      -0.95191660      -0.68560679
C        1.89538659      -0.56936958       0.47116597
O        1.72762261       0.62992463       0.86635251
H       -2.02888124      -0.73083255      -0.44435510
H       -1.92589798      -0.12847907       1.23906379
H       -1.08562465      -1.58215602       0.78428401
H       -1.65473456       1.79304658      -0.33524747
H       -0.20130591       2.23882095       0.43807408
H       -0.23604797       1.81709975      -1.31139867
H        1.21442075      -0.38891150      -1.61393604
H        1.29225232      -2.01563110      -0.88058576
H        1.99506744      -1.25817718       1.32122048
15
Frame=16 idx=000974 GeodesicLength=1.2878451602188934 rxn_smarts="[C:1]([N:2]([C:3]([H:10])([H:11])[H:12])[C:4]([C:5](=[O:6])[H:15])([H:13])[H:14])([H:7])([H:8])[H:9]>>[C:1]([N:2]([C:3]([H:10])([H:11])[H:12])[O:6][C:5](=[C:4]([H:13])[H:14])[H:15])([H:7])([H:8])[H:9]"
C       -1.37408003      -0.60065997       0.41327092
N       -0.20945967       0.18329036       0.05292338
C       -0.57655592       1.53683535      -0.29882272
C        1.15182822      -0.95554380      -0.67579435
C        1.90793441      -0.54423810       0.44649726
O        1.74183103       0.66420307       0.81854161
H       -2.03001214      -0.72416049      -0.45796680
H       -1.93394639      -0.13898622       1.23299934
H       -1.10594429      -1.59541978       0.76969723
H       -1.63661177       1.77720719      -0.38552545
H       -0.24004579       2.20974688       0.49806214
H       -0.15031138       1.84035926      -1.26047399
H        1.15808555      -0.42452982      -1.62391620
H        1.27163522      -2.02290627      -0.84543239
H        2.02565295      -1.20519766       1.31594002
