10
Frame=0 idx=000382 GeodesicLength=0.0 rxn_smarts="[N:1](=[C:2](/[O:3][C:4]([C:5]#[N:6])([H:9])[H:10])[H:8])\[H:7]>>[N:1](=[C:2]([H:8])[H:10])[H:7].[O:3]=[C:4]([C:5]#[N:6])[H:9]"
N        1.95173868      -0.46070008      -0.04114673
C        0.76820658      -0.65448534       0.48207335
O       -0.27867878      -0.72956606      -0.55103155
C       -0.69715840       0.50041868      -0.46937232
C       -2.05456787       0.78191622      -0.81383874
N       -3.14882056       1.04016705      -1.05349984
H        2.67648163      -0.52879003       0.66702885
H        0.48693433      -1.50862929       1.11840756
H        0.01919569       1.31737899      -0.46363526
H        0.27666871       0.24228987       1.12501467
10
Frame=1 idx=000382 GeodesicLength=0.09864451173802943 rxn_smarts="[N:1](=[C:2](/[O:3][C:4]([C:5]#[N:6])([H:9])[H:10])[H:8])\[H:7]>>[N:1](=[C:2]([H:8])[H:10])[H:7].[O:3]=[C:4]([C:5]#[N:6])[H:9]"
N        1.94849657      -0.45317089      -0.04508837
C        0.78048832      -0.66995730       0.49553991
O       -0.30499841      -0.73642253      -0.53447207
C       -0.71243443       0.49750399      -0.44426666
C       -2.06215648       0.79103278      -0.81845464
N       -3.14430445       1.06557041      -1.09202153
H        2.68691813      -0.50488272       0.65021907
H        0.51092773      -1.53748401       1.11681901
H        0.01497706       1.30522719      -0.47364637
H        0.28208595       0.24258308       1.14537164
10
Frame=2 idx=000382 GeodesicLength=0.1967286665705817 rxn_smarts="[N:1](=[C:2](/[O:3][C:4]([C:5]#[N:6])([H:9])[H:10])[H:8])\[H:7]>>[N:1](=[C:2]([H:8])[H:10])[H:7].[O:3]=[C:4]([C:5]#[N:6])[H:9]"
N        1.94518494      -0.44554545      -0.04779324
C        0.79289538      -0.68520753       0.50885070
O       -0.33103724      -0.74313606      -0.51844149
C       -0.72685076       0.49482887      -0.42115832
C       -2.06951328       0.79966089      -0.82115132
N       -3.13828889       1.09042905      -1.12792119
H        2.69606092      -0.48066859       0.63502479
H        0.53404202      -1.56631451       1.11338744
H        0.01091675       1.29219166      -0.48553718
H        0.28659016       0.24376168       1.16473982
10
Frame=3 idx=000382 GeodesicLength=0.29478824356646816 rxn_smarts="[N:1](=[C:2](/[O:3][C:4]([C:5]#[N:6])([H:9])[H:10])[H:8])\[H:7]>>[N:1](=[C:2]([H:8])[H:10])[H:7].[O:3]=[C:4]([C:5]#[N:6])[H:9]"
N        1.94183932      -0.43792445      -0.04936547
C        0.80550054      -0.70025960       0.52211549
O       -0.35694697      -0.74963431      -0.50288317
C       -0.74040862       0.49261482      -0.39993868
C       -2.07678333       0.80830425      -0.82202590
N       -3.13116077       1.11416229      -1.16164492
H        2.70411061      -0.45655899       0.62132524
H        0.55641972      -1.59519499       1.10821298
H        0.00702290       1.27853802      -0.49911746
H        0.29040661       0.24595295       1.18332190
10
Frame=4 idx=000382 GeodesicLength=0.3927251996211125 rxn_smarts="[N:1](=[C:2](/[O:3][C:4]([C:5]#[N:6])([H:9])[H:10])[H:8])\[H:7]>>[N:1](=[C:2]([H:8])[H:10])[H:7].[O:3]=[C:4]([C:5]#[N:6])[H:9]"
N        1.93847489      -0.43036868      -0.04985370
C        0.81833637      -0.71516693       0.53544120
O       -0.38280799      -0.75599151      -0.48765013
C       -0.75313269       0.49076542      -0.38051470
C       -2.08393096       0.81693608      -0.82166160
N       -3.12309751       1.13704820      -1.19304192
H        2.71115272      -0.43234175       0.60903733
H        0.57815957      -1.62414552       1.10131681
H        0.00328775       1.26413863      -0.51424519
H        0.29355785       0.24912606       1.20117191
10
Frame=5 idx=000382 GeodesicLength=0.490567417107655 rxn_smarts="[N:1](=[C:2](/[O:3][C:4]([C:5]#[N:6])([H:9])[H:10])[H:8])\[H:7]>>[N:1](=[C:2]([H:8])[H:10])[H:7].[O:3]=[C:4]([C:5]#[N:6])[H:9]"
N        1.93509868      -0.42287964      -0.04929649
C        0.83145057      -0.72994515       0.54893280
O       -0.40870505      -0.76219902      -0.47261788
C       -0.76506782       0.48927860      -0.36274310
C       -2.09089679       0.82564908      -0.82054022
N       -3.11435798       1.15909312      -1.22211579
H        2.71729632      -0.40810341       0.59805345
H        0.59936926      -1.65315730       1.09269892
H       -0.00030761       1.24895992      -0.53076247
H        0.29612042       0.25330379       1.21839079
10
Frame=6 idx=000382 GeodesicLength=0.5883358130560509 rxn_smarts="[N:1](=[C:2](/[O:3][C:4]([C:5]#[N:6])([H:9])[H:10])[H:8])\[H:7]>>[N:1](=[C:2]([H:8])[H:10])[H:7].[O:3]=[C:4]([C:5]#[N:6])[H:9]"
N        1.93171432      -0.41545078      -0.04772305
C        0.84490023      -0.74462114       0.56269528
O       -0.43470625      -0.76828033      -0.45766600
C       -0.77626659       0.48811119      -0.34649946
C       -2.09760481       0.83444748      -0.81911256
N       -3.10519467       1.18044606      -1.24886582
H        2.72263877      -0.38386638       0.58827549
H        0.62016167      -1.68221319       1.08235805
H       -0.00379518       1.23293248      -0.54852512
H        0.29815250       0.25849461       1.23506319
10
Frame=7 idx=000382 GeodesicLength=0.6860562362378317 rxn_smarts="[N:1](=[C:2](/[O:3][C:4]([C:5]#[N:6])([H:9])[H:10])[H:8])\[H:7]>>[N:1](=[C:2]([H:8])[H:10])[H:7].[O:3]=[C:4]([C:5]#[N:6])[H:9]"
N        1.92829611      -0.40809437      -0.04522956
C        0.85874347      -0.75923039       0.57680606
O       -0.46094826      -0.77419596      -0.44261040
C       -0.78681363       0.48728193      -0.33153516
C       -2.10406371       0.84346381      -0.81744588
N       -3.09567731       1.20103943      -1.27373071
H        2.72727295      -0.35969192       0.57950040
H        0.64064226      -1.71128625       1.07024675
H       -0.00722927       1.21601785      -0.56731431
H        0.29977740       0.26469587       1.25131282
10
Frame=8 idx=000382 GeodesicLength=0.7837212779692826 rxn_smarts="[N:1](=[C:2](/[O:3][C:4]([C:5]#[N:6])([H:9])[H:10])[H:8])\[H:7]>>[N:1](=[C:2]([H:8])[H:10])[H:7].[O:3]=[C:4]([C:5]#[N:6])[H:9]"
N        1.92484657      -0.40077991      -0.04180946
C        0.87304359      -0.77380059       0.59134986
O       -0.48745834      -0.77998655      -0.42738011
C       -0.79674777       0.48670916      -0.31779362
C       -2.11019974       0.85260856      -0.81587174
N       -3.08599999       1.22111368      -1.29666298
H        2.73127037      -0.33558675       0.57167369
H        0.66088398      -1.74029766       1.05634931
H       -0.01064682       1.19811404      -0.58703180
H        0.30100814       0.27190602       1.26717687
10
Frame=9 idx=000382 GeodesicLength=0.8813420117970902 rxn_smarts="[N:1](=[C:2](/[O:3][C:4]([C:5]#[N:6])([H:9])[H:10])[H:8])\[H:7]>>[N:1](=[C:2]([H:8])[H:10])[H:7].[O:3]=[C:4]([C:5]#[N:6])[H:9]"
N        1.92136078      -0.39349891      -0.03751041
C        0.88785876      -0.78836139       0.60635682
O       -0.51431637      -0.78557860      -0.41190238
C       -0.80611653       0.48642617      -0.30511338
C       -2.11602872       0.86202162      -0.81433273
N       -3.07622352       1.24048761      -1.31801740
H        2.73472469      -0.31171037       0.56466730
H        0.68089570      -1.76912726       1.04061271
H       -0.01408495       1.17922020      -0.60748461
H        0.30193017       0.28012093       1.28272408
10
Frame=10 idx=000382 GeodesicLength=0.9789211040595602 rxn_smarts="[N:1](=[C:2](/[O:3][C:4]([C:5]#[N:6])([H:9])[H:10])[H:8])\[H:7]>>[N:1](=[C:2]([H:8])[H:10])[H:7].[O:3]=[C:4]([C:5]#[N:6])[H:9]"
N        1.91783064      -0.38623353      -0.03235567
C        0.90326027      -0.80295968       0.62186685
O       -0.54158009      -0.79097658      -0.39610566
C       -0.81496661       0.48638028      -0.29339272
C       -2.12152386       0.87169185      -0.81293001
N       -3.06642169       1.25926363      -1.33795261
H        2.73770296      -0.28807912       0.55839032
H        0.70070959      -1.79764870       1.02301287
H       -0.01758991       1.15925578      -0.62853466
H        0.30257869       0.28930606       1.29800129
10
Frame=11 idx=000382 GeodesicLength=1.0764605385505506 rxn_smarts="[N:1](=[C:2](/[O:3][C:4]([C:5]#[N:6])([H:9])[H:10])[H:8])\[H:7]>>[N:1](=[C:2]([H:8])[H:10])[H:7].[O:3]=[C:4]([C:5]#[N:6])[H:9]"
N        1.91424199      -0.37896984      -0.02638279
C        0.91932635      -0.81765549       0.63789418
O       -0.56931857      -0.79618175      -0.37991727
C       -0.82334871       0.48651814      -0.28251852
C       -2.12667157       0.88161819      -0.81170664
N       -3.05660000       1.27752469      -1.35666961
H        2.74025525      -0.26468064       0.55273937
H        0.72033825      -1.82571352       1.00353739
H       -0.02121464       1.13813864      -0.65003208
H        0.30299165       0.29940158       1.31305596
10
Frame=12 idx=000382 GeodesicLength=1.1739493937712893 rxn_smarts="[N:1](=[C:2](/[O:3][C:4]([C:5]#[N:6])([H:9])[H:10])[H:8])\[H:7]>>[N:1](=[C:2]([H:8])[H:10])[H:7].[O:3]=[C:4]([C:5]#[N:6])[H:9]"
N        1.91061595      -0.37164738      -0.01956228
C        0.93613562      -0.83248026       0.65442894
O       -0.59752442      -0.80118258      -0.36340110
C       -0.83127837       0.48678434      -0.27247970
C       -2.13145085       0.89177133      -0.81072799
N       -3.04686997       1.29531666      -1.37418019
H        2.74248056      -0.24166121       0.54769687
H        0.73973451      -1.85309720       0.98222282
H       -0.02499476       1.11582791      -0.67188338
H        0.30315172       0.31036838       1.32788603
10
Frame=13 idx=000382 GeodesicLength=1.2713984625606054 rxn_smarts="[N:1](=[C:2](/[O:3][C:4]([C:5]#[N:6])([H:9])[H:10])[H:8])\[H:7]>>[N:1](=[C:2]([H:8])[H:10])[H:7].[O:3]=[C:4]([C:5]#[N:6])[H:9]"
N        1.90689769      -0.36433821      -0.01205032
C        0.95378667      -0.84756960       0.67140904
O       -0.62638012      -0.80597080      -0.34636055
C       -0.83883837       0.48713856      -0.26303292
C       -2.13586441       0.90225587      -0.80987361
N       -3.03698635       1.31264418      -1.39097620
H        2.74432086      -0.21874134       0.54305013
H        0.75889091      -1.87967556       0.95907123
H       -0.02899734       1.09221594      -0.69382918
H        0.30317045       0.32204097       1.34259239
10
Frame=14 idx=000382 GeodesicLength=1.368818496887306 rxn_smarts="[N:1](=[C:2](/[O:3][C:4]([C:5]#[N:6])([H:9])[H:10])[H:8])\[H:7]>>[N:1](=[C:2]([H:8])[H:10])[H:7].[O:3]=[C:4]([C:5]#[N:6])[H:9]"
N        1.90309533      -0.35699131      -0.00384945
C        0.97239074      -0.86298365       0.68878619
O       -0.65590207      -0.81056749      -0.32882373
C       -0.84606239       0.48748941      -0.25415322
C       -2.13989445       0.91300124      -0.80921928
N       -3.02695792       1.32966879      -1.40708308
H        2.74582410      -0.19593787       0.53875251
H        0.77776851      -1.90522651       0.93417529
H       -0.03328365       1.06722252      -0.71577520
H        0.30302180       0.33432486       1.35718997
10
Frame=15 idx=000382 GeodesicLength=1.4662107300162386 rxn_smarts="[N:1](=[C:2](/[O:3][C:4]([C:5]#[N:6])([H:9])[H:10])[H:8])\[H:7]>>[N:1](=[C:2]([H:8])[H:10])[H:7].[O:3]=[C:4]([C:5]#[N:6])[H:9]"
N        1.89920532      -0.34959937       0.00498772
C        0.99206375      -0.87881215       0.70646359
O       -0.68615712      -0.81497053      -0.31077788
C       -0.85298580       0.48776997      -0.24576338
C       -2.14351756       0.92401638      -0.80876047
N       -3.01670468       1.34644787      -1.42264063
H        2.74698591      -0.17316475       0.53472291
H        0.79629608      -1.92954838       0.90763622
H       -0.03790207       1.04077416      -0.73757991
H        0.30271617       0.34708680       1.37171183
10
Frame=16 idx=000382 GeodesicLength=1.5635790052977325 rxn_smarts="[N:1](=[C:2](/[O:3][C:4]([C:5]#[N:6])([H:9])[H:10])[H:8])\[H:7]>>[N:1](=[C:2]([H:8])[H:10])[H:7].[O:3]=[C:4]([C:5]#[N:6])[H:9]"
N        1.89522785      -0.34214517       0.01441580
C        1.01293652      -0.89513945       0.72432686
O       -0.71719748      -0.81918151      -0.29223823
C       -0.85964132       0.48790378      -0.23780823
C       -2.14670636       0.93529104      -0.80851238
N       -3.00615585       1.36306243      -1.43774269
H        2.74780158      -0.15034713       0.53088942
H        0.81439310      -1.95243827       0.87959563
H       -0.04290403       1.01280361      -0.75911321
H        0.30224598       0.36019067       1.38618702
