12
Frame=0 idx=001026 GeodesicLength=0.0 rxn_smarts="[O:1]([C:2]1([C:5](=[O:6])[H:12])[C:3]([H:8])([H:9])[C:4]1([H:10])[H:11])[H:7]>>[O:1]([C:2]1([O+:6]=[C-:5][H:12])[C:3]([H:8])([H:9])[C:4]1([H:10])[H:11])[H:7]"
O        0.04424793       1.54286882      -0.81276177
C        0.06909011       0.35166099      -0.18548781
C       -0.87472807      -0.73351193      -0.46687664
C       -1.01994624       0.13515815       0.79754562
C        1.64490645      -0.49140087       0.66487709
O        1.81412714       0.00043992      -0.49824100
H        0.44480961       1.44450808      -1.68334755
H       -0.57241614      -1.75740908      -0.32006078
H       -1.56522693      -0.55494664      -1.28234255
H       -0.79749306      -0.34009061       1.73679568
H       -1.79841759       0.89017970       0.80316012
H        2.61104682      -0.48745653       1.24673956
12
Frame=1 idx=001026 GeodesicLength=0.03667196930630936 rxn_smarts="[O:1]([C:2]1([C:5](=[O:6])[H:12])[C:3]([H:8])([H:9])[C:4]1([H:10])[H:11])[H:7]>>[O:1]([C:2]1([O+:6]=[C-:5][H:12])[C:3]([H:8])([H:9])[C:4]1([H:10])[H:11])[H:7]"
O        0.03595617       1.53941141      -0.82583905
C        0.07442359       0.35130885      -0.18817382
C       -0.87492634      -0.73345845      -0.46398492
C       -1.01218134       0.13508172       0.79859858
C        1.63970933      -0.50576506       0.64579754
O        1.82935320       0.03767820      -0.48757429
H        0.44785295       1.44057231      -1.69102713
H       -0.57322423      -1.75819582      -0.31981940
H       -1.57101621      -0.55645676      -1.27487293
H       -0.78766123      -0.33943279       1.73816485
H       -1.79207793       0.88829857       0.80875910
H        2.58379205      -0.49904217       1.25997147
12
Frame=2 idx=001026 GeodesicLength=0.0734126190360411 rxn_smarts="[O:1]([C:2]1([C:5](=[O:6])[H:12])[C:3]([H:8])([H:9])[C:4]1([H:10])[H:11])[H:7]>>[O:1]([C:2]1([O+:6]=[C-:5][H:12])[C:3]([H:8])([H:9])[C:4]1([H:10])[H:11])[H:7]"
O        0.02707474       1.53560174      -0.83982677
C        0.07952925       0.35115181      -0.19123868
C       -0.87500758      -0.73359997      -0.46090713
C       -1.00432153       0.13514183       0.79957662
C        1.63501183      -0.51887421       0.62563848
O        1.84425494       0.07739504      -0.47394429
H        0.45135884       1.43648044      -1.69894482
H       -0.57362246      -1.75904621      -0.31912732
H       -1.57687454      -0.55862161      -1.26708753
H       -0.77708900      -0.33823150       1.73950620
H       -1.78574005       0.88641711       0.81423365
H        2.55542554      -0.51381448       1.27212159
12
Frame=3 idx=001026 GeodesicLength=0.11018155646254377 rxn_smarts="[O:1]([C:2]1([C:5](=[O:6])[H:12])[C:3]([H:8])([H:9])[C:4]1([H:10])[H:11])[H:7]>>[O:1]([C:2]1([O+:6]=[C-:5][H:12])[C:3]([H:8])([H:9])[C:4]1([H:10])[H:11])[H:7]"
O        0.01766912       1.53135795      -0.85476723
C        0.08435799       0.35116351      -0.19467630
C       -0.87501580      -0.73396593      -0.45762194
C       -0.99642980       0.13534749       0.80047105
C        1.63083419      -0.53061975       0.60438129
O        1.85859969       0.11961263      -0.45697034
H        0.45555065       1.43219962      -1.70700664
H       -0.57363117      -1.75998244      -0.31792880
H       -1.58280245      -0.56147276      -1.25899643
H       -0.76580548      -0.33644989       1.74081048
H       -1.77943811       0.88457644       0.81953645
H        2.52611117      -0.53176688       1.28276840
12
Frame=4 idx=001026 GeodesicLength=0.14695019603452836 rxn_smarts="[O:1]([C:2]1([C:5](=[O:6])[H:12])[C:3]([H:8])([H:9])[C:4]1([H:10])[H:11])[H:7]>>[O:1]([C:2]1([O+:6]=[C-:5][H:12])[C:3]([H:8])([H:9])[C:4]1([H:10])[H:11])[H:7]"
O        0.00784448       1.52658521      -0.87069605
C        0.08886642       0.35129544      -0.19848898
C       -0.87501456      -0.73458731      -0.45411385
C       -0.98855172       0.13569298       0.80128216
C        1.62722478      -0.54093677       0.58194105
O        1.87209682       0.16426787      -0.43628899
H        0.46069020       1.42771124      -1.71509621
H       -0.57330043      -1.76103028      -0.31618614
H       -1.58882612      -0.56502142      -1.25061216
H       -0.75380354      -0.33407146       1.74207123
H       -1.77317289       0.88281813       0.82464499
H        2.49594656      -0.55272364       1.29154295
12
Frame=5 idx=001026 GeodesicLength=0.1837001866304332 rxn_smarts="[O:1]([C:2]1([C:5](=[O:6])[H:12])[C:3]([H:8])([H:9])[C:4]1([H:10])[H:11])[H:7]>>[O:1]([C:2]1([O+:6]=[C-:5][H:12])[C:3]([H:8])([H:9])[C:4]1([H:10])[H:11])[H:7]"
O       -0.00227962       1.52121345      -0.88763301
C        0.09299950       0.35150488      -0.20267698
C       -0.87505087      -0.73551512      -0.45036451
C       -0.98074752       0.13618459       0.80202371
C        1.62423497      -0.54971898       0.55820648
O        1.88435862       0.21116946      -0.41157070
H        0.46706893       1.42304600      -1.72307218
H       -0.57265257      -1.76225154      -0.31385497
H       -1.59491663      -0.56930470      -1.24195809
H       -0.74109447      -0.33105940       1.74329899
H       -1.76695453       0.88121258       0.82955123
H        2.46503418      -0.57648122       1.29805003
12
Frame=6 idx=001026 GeodesicLength=0.2203723206803673 rxn_smarts="[O:1]([C:2]1([C:5](=[O:6])[H:12])[C:3]([H:8])([H:9])[C:4]1([H:10])[H:11])[H:7]>>[O:1]([C:2]1([O+:6]=[C-:5][H:12])[C:3]([H:8])([H:9])[C:4]1([H:10])[H:11])[H:7]"
O       -0.01247843       1.51514560      -0.90570416
C        0.09672518       0.35175208      -0.20723622
C       -0.87529883      -0.73679250      -0.44637261
C       -0.97313181       0.13676854       0.80273092
C        1.62201447      -0.55676218       0.53320483
O        1.89509177       0.26025471      -0.38239796
H        0.47506400       1.41824202      -1.73087277
H       -0.57184520      -1.76363782      -0.31086686
H       -1.60129360      -0.57436995      -1.23313949
H       -0.72768616      -0.32739845       1.74460142
H       -1.76087794       0.87970939       0.83421291
H        2.43371653      -0.60291144       1.30183998
12
Frame=7 idx=001026 GeodesicLength=0.25688817488471877 rxn_smarts="[O:1]([C:2]1([C:5](=[O:6])[H:12])[C:3]([H:8])([H:9])[C:4]1([H:10])[H:11])[H:7]>>[O:1]([C:2]1([O+:6]=[C-:5][H:12])[C:3]([H:8])([H:9])[C:4]1([H:10])[H:11])[H:7]"
O       -0.02289111       1.50816689      -0.92448305
C        0.09984126       0.35195659      -0.21202764
C       -0.87545114      -0.73834007      -0.44197607
C       -0.96575204       0.13759333       0.80313495
C        1.62022563      -0.56190123       0.50699399
O        1.90359011       0.31063634      -0.34887100
H        0.48457582       1.41313922      -1.73769318
H       -0.57037540      -1.76506959      -0.30699990
H       -1.60728045      -0.58006956      -1.22388147
H       -0.71362731      -0.32285090       1.74542552
H       -1.75493577       0.87855903       0.83823409
H        2.40208040      -0.63182005       1.30214376
12
Frame=8 idx=001026 GeodesicLength=0.2931692825746616 rxn_smarts="[O:1]([C:2]1([C:5](=[O:6])[H:12])[C:3]([H:8])([H:9])[C:4]1([H:10])[H:11])[H:7]>>[O:1]([C:2]1([O+:6]=[C-:5][H:12])[C:3]([H:8])([H:9])[C:4]1([H:10])[H:11])[H:7]"
O       -0.03289106       1.50054390      -0.94425557
C        0.10246496       0.35212453      -0.21710960
C       -0.87590827      -0.74036746      -0.43728968
C       -0.95882773       0.13849608       0.80358869
C        1.61939210      -0.56500227       0.47952197
O        1.90952343       0.36169754      -0.31109852
H        0.49630763       1.40833406      -1.74393997
H       -0.56875690      -1.76686154      -0.30234646
H       -1.61340510      -0.58659438      -1.21459888
H       -0.69914044      -0.31764872       1.74642537
H       -1.74934224       0.87767163       0.84200853
H        2.37058362      -0.66239339       1.29909415
12
Frame=9 idx=001026 GeodesicLength=0.32979760210147024 rxn_smarts="[O:1]([C:2]1([C:5](=[O:6])[H:12])[C:3]([H:8])([H:9])[C:4]1([H:10])[H:11])[H:7]>>[O:1]([C:2]1([O+:6]=[C-:5][H:12])[C:3]([H:8])([H:9])[C:4]1([H:10])[H:11])[H:7]"
O       -0.04228379       1.49195104      -0.96450859
C        0.10449893       0.35212953      -0.22224698
C       -0.87652885      -0.74270970      -0.43232777
C       -0.95224385       0.13947747       0.80389415
C        1.61896519      -0.56576918       0.45125430
O        1.91242446       0.41234651      -0.26935463
H        0.50993867       1.40341580      -1.74882947
H       -0.56682637      -1.76859808      -0.29696498
H       -1.61933079      -0.59373529      -1.20533313
H       -0.68410287      -0.31160001       1.74724226
H       -1.74378869       0.87694971       0.84519366
H        2.33927795      -0.69385782       1.29198118
12
Frame=10 idx=001026 GeodesicLength=0.3662048966413161 rxn_smarts="[O:1]([C:2]1([C:5](=[O:6])[H:12])[C:3]([H:8])([H:9])[C:4]1([H:10])[H:11])[H:7]>>[O:1]([C:2]1([O+:6]=[C-:5][H:12])[C:3]([H:8])([H:9])[C:4]1([H:10])[H:11])[H:7]"
O       -0.05086016       1.48291179      -0.98517777
C        0.10596262       0.35206558      -0.22737247
C       -0.87743097      -0.74550151      -0.42702768
C       -0.94642724       0.14052284       0.80413772
C        1.61929706      -0.56425625       0.42261359
O        1.91239469       0.46120512      -0.22483357
H        0.52563828       1.39917627      -1.75239977
H       -0.56457965      -1.77068016      -0.29066763
H       -1.62513430      -0.60148420      -1.19617667
H       -0.66908197      -0.30491601       1.74806406
H       -1.73891590       0.87658795       0.84776370
H        2.30913753      -0.72563144       1.28107650
12
Frame=11 idx=001026 GeodesicLength=0.4028174596356187 rxn_smarts="[O:1]([C:2]1([C:5](=[O:6])[H:12])[C:3]([H:8])([H:9])[C:4]1([H:10])[H:11])[H:7]>>[O:1]([C:2]1([O+:6]=[C-:5][H:12])[C:3]([H:8])([H:9])[C:4]1([H:10])[H:11])[H:7]"
O       -0.05837107       1.47330103      -1.00581630
C        0.10692296       0.35185423      -0.23235519
C       -0.87835459      -0.74863594      -0.42141081
C       -0.94134069       0.14161969       0.80440255
C        1.62005029      -0.56050327       0.39377415
O        1.90907894       0.50706703      -0.17896975
H        0.54324092       1.39571714      -1.75435639
H       -0.56179900      -1.77288194      -0.28365304
H       -1.63030164      -0.60969182      -1.18709791
H       -0.65435919      -0.29758056       1.74885598
H       -1.73460289       0.87651495       0.84992928
H        2.27983597      -0.75678055       1.26669743
12
Frame=12 idx=001026 GeodesicLength=0.4395230742509719 rxn_smarts="[O:1]([C:2]1([C:5](=[O:6])[H:12])[C:3]([H:8])([H:9])[C:4]1([H:10])[H:11])[H:7]>>[O:1]([C:2]1([O+:6]=[C-:5][H:12])[C:3]([H:8])([H:9])[C:4]1([H:10])[H:11])[H:7]"
O       -0.06466725       1.46324678      -1.02572721
C        0.10750796       0.35145804      -0.23691778
C       -0.87942848      -0.75181613      -0.41571404
C       -0.93669999       0.14260075       0.80451046
C        1.62089353      -0.55482599       0.36583183
O        1.90332948       0.54846286      -0.13344564
H        0.56156640       1.39274775      -1.75440470
H       -0.55881414      -1.77479421      -0.27633116
H       -1.63507529      -0.61781433      -1.17846509
H       -0.63981419      -0.29002159       1.74940366
H       -1.73045554       0.87639053       0.85140421
H        2.25165752      -0.78563444       1.24985544
12
Frame=13 idx=001026 GeodesicLength=0.47610787273654304 rxn_smarts="[O:1]([C:2]1([C:5](=[O:6])[H:12])[C:3]([H:8])([H:9])[C:4]1([H:10])[H:11])[H:7]>>[O:1]([C:2]1([O+:6]=[C-:5][H:12])[C:3]([H:8])([H:9])[C:4]1([H:10])[H:11])[H:7]"
O       -0.06976822       1.45328060      -1.04502912
C        0.10784718       0.35102438      -0.24109786
C       -0.88052258      -0.75521107      -0.40986206
C       -0.93280377       0.14354309       0.80468113
C        1.62191759      -0.54755222       0.33894473
O        1.89574748       0.58520343      -0.08937986
H        0.58062012       1.39094806      -1.75304798
H       -0.55544760      -1.77688035      -0.26862632
H       -1.63928288      -0.62602044      -1.17018484
H       -0.62610882      -0.28232824       1.75002812
H       -1.72703051       0.87645042       0.85250586
H        2.22483201      -0.81245766       1.23106819
12
Frame=14 idx=001026 GeodesicLength=0.5127069068170045 rxn_smarts="[O:1]([C:2]1([C:5](=[O:6])[H:12])[C:3]([H:8])([H:9])[C:4]1([H:10])[H:11])[H:7]>>[O:1]([C:2]1([O+:6]=[C-:5][H:12])[C:3]([H:8])([H:9])[C:4]1([H:10])[H:11])[H:7]"
O       -0.07382405       1.44336453      -1.06380270
C        0.10799343       0.35057744      -0.24491911
C       -0.88169208      -0.75876305      -0.40393765
C       -0.92942734       0.14443197       0.80485441
C        1.62300635      -0.53898201       0.31322823
O        1.88678726       0.61780950      -0.04673702
H        0.59996728       1.39019406      -1.75038989
H       -0.55187051      -1.77904968      -0.26062236
H       -1.64314867      -0.63429421      -1.16233951
H       -0.61293549      -0.27449305       1.75071927
H       -1.72405366       0.87659035       0.85314757
H        2.19919746      -0.83738584       1.21079875
12
Frame=15 idx=001026 GeodesicLength=0.5496777922214525 rxn_smarts="[O:1]([C:2]1([C:5](=[O:6])[H:12])[C:3]([H:8])([H:9])[C:4]1([H:10])[H:11])[H:7]>>[O:1]([C:2]1([O+:6]=[C-:5][H:12])[C:3]([H:8])([H:9])[C:4]1([H:10])[H:11])[H:7]"
O       -0.07691365       1.43323675      -1.08165828
C        0.10803464       0.35004325      -0.24831755
C       -0.88257604      -0.76224045      -0.39788690
C       -0.92652053       0.14530919       0.80501390
C        1.62387410      -0.52934334       0.28864024
O        1.87664483       0.64618481      -0.00638987
H        0.61927490       1.39010676      -1.74631710
H       -0.54771992      -1.78089596      -0.25250554
H       -1.64612166      -0.64238033      -1.15460939
H       -0.60062276      -0.26651713       1.75121716
H       -1.72151455       0.87671300       0.85352092
H        2.17416064      -0.86021655       1.18929242
12
Frame=16 idx=001026 GeodesicLength=0.5865656386957001 rxn_smarts="[O:1]([C:2]1([C:5](=[O:6])[H:12])[C:3]([H:8])([H:9])[C:4]1([H:10])[H:11])[H:7]>>[O:1]([C:2]1([O+:6]=[C-:5][H:12])[C:3]([H:8])([H:9])[C:4]1([H:10])[H:11])[H:7]"
O       -0.07918954       1.42320120      -1.09894569
C        0.10801189       0.34951809      -0.25137189
C       -0.88347774      -0.76575083      -0.39184306
C       -0.92394086       0.14613286       0.80516214
C        1.62459673      -0.51896503       0.26546215
O        1.86596647       0.67088210       0.03191494
H        0.63826404       1.39095143      -1.74122885
H       -0.54344796      -1.78271494      -0.24429608
H       -1.64879876      -0.65037713      -1.14729971
H       -0.58887003      -0.25857662       1.75175331
H       -1.71926599       0.87682534       0.85352155
H        2.15015176      -0.88112647       1.16717119
