15
Frame=0 idx=007366 GeodesicLength=0.0 rxn_smarts="[C:1]1([H:8])([H:9])[C:2]([H:10])([H:11])[C:3]12[C:4]([H:12])([H:13])[C@@:5]1([H:14])[O:6][C@@:7]21[H:15]>>[C:1]1([H:8])([H:9])[C:2]([H:10])([H:11])[C:3]12[C:4]([H:12])([H:13])[C:5][C@:7]2([O:6][H:14])[H:15]"
C       -1.39016938       0.31955167      -0.84949369
C       -1.59810972      -0.04294179       0.59550219
C       -0.22576537      -0.02398941       0.01157430
C        0.76152366      -1.19195192      -0.04703379
C        1.84744909      -0.28939283       0.55540326
O        1.79381591       1.02009827      -0.64057010
C        0.89759071       0.87346561       0.46154397
H       -1.68486474      -0.40281255      -1.59991926
H       -1.52013849       1.35342733      -1.14290594
H       -1.86971146       0.74816043       1.28342362
H       -2.03702060      -1.00613651       0.82408867
H        0.53191022      -1.99501881       0.65805470
H        0.99571108      -1.62620493      -1.01869920
H        2.68709258       0.51971846      -0.19684809
H        0.81068656       1.74402704       1.10587935
15
Frame=1 idx=007366 GeodesicLength=0.03994409757134614 rxn_smarts="[C:1]1([H:8])([H:9])[C:2]([H:10])([H:11])[C:3]12[C:4]([H:12])([H:13])[C@@:5]1([H:14])[O:6][C@@:7]21[H:15]>>[C:1]1([H:8])([H:9])[C:2]([H:10])([H:11])[C:3]12[C:4]([H:12])([H:13])[C:5][C@:7]2([O:6][H:14])[H:15]"
C       -1.39119853       0.31916995      -0.84970912
C       -1.59929928      -0.04296887       0.59537882
C       -0.22691579      -0.02412038       0.01152204
C        0.76030676      -1.19237176      -0.04735747
C        1.84731683      -0.28807245       0.54847951
O        1.79352998       1.01999500      -0.64052985
C        0.89657952       0.87348951       0.46092475
H       -1.68606423      -0.40343490      -1.59984240
H       -1.52131733       1.35296030      -1.14332430
H       -1.87103949       0.74822228       1.28315368
H       -2.03804473      -1.00615351       0.82434676
H        0.53316300      -1.99422349       0.65997731
H        0.99133109      -1.62851026      -1.01901533
H        2.70047439       0.52356408      -0.19155081
H        0.81117781       1.74245451       1.10754641
15
Frame=2 idx=007366 GeodesicLength=0.07988432990765565 rxn_smarts="[C:1]1([H:8])([H:9])[C:2]([H:10])([H:11])[C:3]12[C:4]([H:12])([H:13])[C@@:5]1([H:14])[O:6][C@@:7]21[H:15]>>[C:1]1([H:8])([H:9])[C:2]([H:10])([H:11])[C:3]12[C:4]([H:12])([H:13])[C:5][C@:7]2([O:6][H:14])[H:15]"
C       -1.39223815       0.31878654      -0.84992927
C       -1.60048699      -0.04299698       0.59525268
C       -0.22806916      -0.02424627       0.01145646
C        0.75909490      -1.19277981      -0.04768461
C        1.84718886      -0.28672039       0.54146314
O        1.79323006       1.01996243      -0.64051697
C        0.89556402       0.87352067       0.46028629
H       -1.68727375      -0.40406173      -1.59976752
H       -1.52251240       1.35249067      -1.14374778
H       -1.87236486       0.74828246       1.28288198
H       -2.03905922      -1.00617379       0.82460696
H        0.53446171      -1.99338885       0.66192212
H        0.98692694      -1.63082651      -1.01931789
H        2.71385572       0.52730121      -0.18613904
H        0.81168234       1.74085034       1.10923346
15
Frame=3 idx=007366 GeodesicLength=0.1198179654985706 rxn_smarts="[C:1]1([H:8])([H:9])[C:2]([H:10])([H:11])[C:3]12[C:4]([H:12])([H:13])[C@@:5]1([H:14])[O:6][C@@:7]21[H:15]>>[C:1]1([H:8])([H:9])[C:2]([H:10])([H:11])[C:3]12[C:4]([H:12])([H:13])[C:5][C@:7]2([O:6][H:14])[H:15]"
C       -1.39328935       0.31840159      -0.85015328
C       -1.60167290      -0.04302671       0.59512457
C       -0.22922582      -0.02436654       0.01137764
C        0.75788908      -1.19317442      -0.04801591
C        1.84706214      -0.28533465       0.53435756
O        1.79291289       1.02000121      -0.64053408
C        0.89454355       0.87356080       0.45962771
H       -1.68849304      -0.40469270      -1.59969445
H       -1.52372480       1.35201876      -1.14417505
H       -1.87368662       0.74833975       1.28261045
H       -2.04006276      -1.00619850       0.82487010
H        0.53580646      -1.99251511       0.66388518
H        0.98250312      -1.63315015      -1.01960716
H        2.72723963       0.53091759      -0.18060822
H        0.81219842       1.73921908       1.11093494
15
Frame=4 idx=007366 GeodesicLength=0.1597419681033695 rxn_smarts="[C:1]1([H:8])([H:9])[C:2]([H:10])([H:11])[C:3]12[C:4]([H:12])([H:13])[C@@:5]1([H:14])[O:6][C@@:7]21[H:15]>>[C:1]1([H:8])([H:9])[C:2]([H:10])([H:11])[C:3]12[C:4]([H:12])([H:13])[C:5][C@:7]2([O:6][H:14])[H:15]"
C       -1.39435314       0.31801529      -0.85038026
C       -1.60285711      -0.04305871       0.59499526
C       -0.23038615      -0.02448068       0.01128582
C        0.75669036      -1.19355387      -0.04835186
C        1.84693378      -0.28391306       0.52716600
O        1.79257501       1.02011202      -0.64058381
C        0.89351737       0.87361171       0.45894830
H       -1.68972151      -0.40532738      -1.59962314
H       -1.52495550       1.35154490      -1.14460467
H       -1.87500403       0.74839276       1.28234103
H       -2.04105416      -1.00622894       0.82513680
H        0.53719746      -1.99160239       0.66586287
H        0.97806412      -1.63547765      -1.01988336
H        2.74062921       0.53440057      -0.17495441
H        0.81272428       1.73756541       1.11264544
15
Frame=5 idx=007366 GeodesicLength=0.19964953172535882 rxn_smarts="[C:1]1([H:8])([H:9])[C:2]([H:10])([H:11])[C:3]12[C:4]([H:12])([H:13])[C@@:5]1([H:14])[O:6][C@@:7]21[H:15]>>[C:1]1([H:8])([H:9])[C:2]([H:10])([H:11])[C:3]12[C:4]([H:12])([H:13])[C:5][C@:7]2([O:6][H:14])[H:15]"
C       -1.39543048       0.31762795      -0.85060945
C       -1.60403987      -0.04309378       0.59486542
C       -0.23155049      -0.02458800       0.01118147
C        0.75549997      -1.19391637      -0.04869262
C        1.84680145      -0.28245282       0.51989185
O        1.79221308       1.02029644      -0.64066811
C        0.89248477       0.87367555       0.45824782
H       -1.69095833      -0.40596523      -1.59955392
H       -1.52620541       1.35106973      -1.14503533
H       -1.87631670       0.74843998       1.28207553
H       -2.04203236      -1.00626675       0.82540731
H        0.53863532      -1.99065087       0.66785224
H        0.97361452      -1.63780549      -1.02014648
H        2.75402656       0.53773548      -0.16917594
H        0.81325798       1.73589417       1.11436022
15
Frame=6 idx=007366 GeodesicLength=0.23957204064681445 rxn_smarts="[C:1]1([H:8])([H:9])[C:2]([H:10])([H:11])[C:3]12[C:4]([H:12])([H:13])[C@@:5]1([H:14])[O:6][C@@:7]21[H:15]>>[C:1]1([H:8])([H:9])[C:2]([H:10])([H:11])[C:3]12[C:4]([H:12])([H:13])[C:5][C@:7]2([O:6][H:14])[H:15]"
C       -1.39652363       0.31723900      -0.85083895
C       -1.60522073      -0.04313226       0.59473701
C       -0.23271966      -0.02468848       0.01106399
C        0.75431809      -1.19426050      -0.04904126
C        1.84666067      -0.28095367       0.51253626
O        1.79182063       1.02055103      -0.64079594
C        0.89144538       0.87375343       0.45752186
H       -1.69220486      -0.40660658      -1.59948495
H       -1.52747681       1.35059239      -1.14546478
H       -1.87762216       0.74848062       1.28181709
H       -2.04299553      -1.00631218       0.82568432
H        0.54011878      -1.98966078       0.66984606
H        0.96915828      -1.64012965      -1.02039932
H        2.76744262       0.54091643      -0.16324971
H        0.81379893       1.73421121       1.11606833
15
Frame=7 idx=007366 GeodesicLength=0.2794731065615349 rxn_smarts="[C:1]1([H:8])([H:9])[C:2]([H:10])([H:11])[C:3]12[C:4]([H:12])([H:13])[C@@:5]1([H:14])[O:6][C@@:7]21[H:15]>>[C:1]1([H:8])([H:9])[C:2]([H:10])([H:11])[C:3]12[C:4]([H:12])([H:13])[C:5][C@:7]2([O:6][H:14])[H:15]"
C       -1.39763278       0.31684725      -0.85107001
C       -1.60640018      -0.04317261       0.59460997
C       -0.23389335      -0.02478010       0.01093432
C        0.75314629      -1.19458403      -0.04939898
C        1.84651187      -0.27941269       0.50510059
O        1.79139966       1.02088207      -0.64096203
C        0.89039940       0.87384739       0.45677386
H       -1.69346264      -0.40725630      -1.59941406
H       -1.52877153       1.35011126      -1.14589746
H       -1.87892518       0.74851901       1.28156093
H       -2.04394085      -1.00636504       0.82597221
H        0.54165220      -1.98863292       0.67184134
H        0.96469549      -1.64244697      -1.02064377
H        2.78087616       0.54392871      -0.15718366
H        0.81434544       1.73251496       1.11777675
15
Frame=8 idx=007366 GeodesicLength=0.3193721500727238 rxn_smarts="[C:1]1([H:8])([H:9])[C:2]([H:10])([H:11])[C:3]12[C:4]([H:12])([H:13])[C@@:5]1([H:14])[O:6][C@@:7]21[H:15]>>[C:1]1([H:8])([H:9])[C:2]([H:10])([H:11])[C:3]12[C:4]([H:12])([H:13])[C:5][C@:7]2([O:6][H:14])[H:15]"
C       -1.39875968       0.31644936      -0.85130258
C       -1.60757681      -0.04321269       0.59448564
C       -0.23507221      -0.02486265       0.01079008
C        0.75198426      -1.19488535      -0.04977064
C        1.84635366      -0.27782955       0.49757733
O        1.79094623       1.02129001      -0.64117228
C        0.88934592       0.87395703       0.45599986
H       -1.69473725      -0.40791946      -1.59933766
H       -1.53009266       1.34962103      -1.14633678
H       -1.88022585       0.74856028       1.28130440
H       -2.04486631      -1.00642088       0.82627701
H        0.54323834      -1.98756462       0.67383362
H        0.96022334      -1.64475697      -1.02088443
H        2.79433716       0.54677492      -0.15095286
H        0.81490185       1.73079955       1.11948929
15
Frame=9 idx=007366 GeodesicLength=0.35926158496730737 rxn_smarts="[C:1]1([H:8])([H:9])[C:2]([H:10])([H:11])[C:3]12[C:4]([H:12])([H:13])[C@@:5]1([H:14])[O:6][C@@:7]21[H:15]>>[C:1]1([H:8])([H:9])[C:2]([H:10])([H:11])[C:3]12[C:4]([H:12])([H:13])[C:5][C@:7]2([O:6][H:14])[H:15]"
C       -1.39990550       0.31604837      -0.85153486
C       -1.60875116      -0.04325755       0.59436431
C       -0.23625635      -0.02493657       0.01063214
C        0.75083395      -1.19516376      -0.05015359
C        1.84618508      -0.27619993       0.48996725
O        1.79045562       1.02177499      -0.64143501
C        0.88828512       0.87408543       0.45519562
H       -1.69602904      -0.40858799      -1.59925879
H       -1.53143440       1.34912736      -1.14677643
H       -1.88152189       0.74859541       1.28105322
H       -2.04577234      -1.00648699       0.82659347
H        0.54487821      -1.98645328       0.67582735
H        0.95574302      -1.64705984      -1.02111803
H        2.80782504       0.54944168      -0.14454968
H        0.81546463       1.72907266       1.12119302
15
Frame=10 idx=007366 GeodesicLength=0.39914518335279714 rxn_smarts="[C:1]1([H:8])([H:9])[C:2]([H:10])([H:11])[C:3]12[C:4]([H:12])([H:13])[C@@:5]1([H:14])[O:6][C@@:7]21[H:15]>>[C:1]1([H:8])([H:9])[C:2]([H:10])([H:11])[C:3]12[C:4]([H:12])([H:13])[C:5][C@:7]2([O:6][H:14])[H:15]"
C       -1.40107189       0.31564262      -0.85176714
C       -1.60992269      -0.04330653       0.59424668
C       -0.23744616      -0.02500072       0.01045939
C        0.74969552      -1.19541778      -0.05055018
C        1.84600476      -0.27452294       0.48226811
O        1.78992761       1.02233783      -0.64175264
C        0.88721682       0.87423432       0.45435856
H       -1.69733844      -0.40926717      -1.59917532
H       -1.53280450       1.34862793      -1.14721664
H       -1.88281211       0.74862547       1.28080810
H       -2.04666026      -1.00656226       0.82692098
H        0.54657217      -1.98529673       0.67782028
H        0.95125197      -1.64935461      -1.02134697
H        2.82134976       0.55192609      -0.13796202
H        0.81603744       1.72733448       1.12288879
15
Frame=11 idx=007366 GeodesicLength=0.43902298083152386 rxn_smarts="[C:1]1([H:8])([H:9])[C:2]([H:10])([H:11])[C:3]12[C:4]([H:12])([H:13])[C@@:5]1([H:14])[O:6][C@@:7]21[H:15]>>[C:1]1([H:8])([H:9])[C:2]([H:10])([H:11])[C:3]12[C:4]([H:12])([H:13])[C:5][C@:7]2([O:6][H:14])[H:15]"
C       -1.40226079       0.31522941      -0.85200029
C       -1.61108974      -0.04335730       0.59413348
C       -0.23864128      -0.02505381       0.01026916
C        0.74856996      -1.19564569      -0.05096538
C        1.84581296      -0.27279751       0.47447403
O        1.78936148       1.02298325      -0.64212673
C        0.88614161       0.87440379       0.45348724
H       -1.69867301      -0.40996271      -1.59908283
H       -1.53420880       1.34811818      -1.14766253
H       -1.88409651       0.74865577       1.28056555
H       -2.04752712      -1.00664335       0.82726615
H        0.54832417      -1.98409251       0.67980843
H        0.94674924      -1.65163954      -1.02157618
H        2.83491598       0.55422139      -0.13117002
H        0.81662187       1.72558063       1.12457990
15
Frame=12 idx=007366 GeodesicLength=0.4788981650263133 rxn_smarts="[C:1]1([H:8])([H:9])[C:2]([H:10])([H:11])[C:3]12[C:4]([H:12])([H:13])[C@@:5]1([H:14])[O:6][C@@:7]21[H:15]>>[C:1]1([H:8])([H:9])[C:2]([H:10])([H:11])[C:3]12[C:4]([H:12])([H:13])[C:5][C@:7]2([O:6][H:14])[H:15]"
C       -1.40347488       0.31480954      -0.85223383
C       -1.61225177      -0.04341096       0.59402505
C       -0.23984233      -0.02509466       0.01005875
C        0.74745724      -1.19584571      -0.05140007
C        1.84560791      -0.27102102       0.46658207
O        1.78875646       1.02371094      -0.64256306
C        0.88505901       0.87459593       0.45257614
H       -1.70003292      -0.41067258      -1.59898282
H       -1.53565377       1.34759893      -1.14811107
H       -1.88537265       0.74868253       1.28032973
H       -2.04837014      -1.00673234       0.82762886
H        0.55013581      -1.98283755       0.68179180
H        0.94223436      -1.65391569      -1.02180487
H        2.84852967       0.55631886      -0.12415592
H        0.81721798       1.72381378       1.12625925
15
Frame=13 idx=007366 GeodesicLength=0.5187711257638925 rxn_smarts="[C:1]1([H:8])([H:9])[C:2]([H:10])([H:11])[C:3]12[C:4]([H:12])([H:13])[C@@:5]1([H:14])[O:6][C@@:7]21[H:15]>>[C:1]1([H:8])([H:9])[C:2]([H:10])([H:11])[C:3]12[C:4]([H:12])([H:13])[C:5][C@:7]2([O:6][H:14])[H:15]"
C       -1.40471616       0.31438248      -0.85246741
C       -1.61340841      -0.04346788       0.59392224
C       -0.24104958      -0.02512238       0.00982731
C        0.74635843      -1.19601616      -0.05185608
C        1.84538880      -0.26919080       0.45858990
O        1.78810985       1.02452323      -0.64306608
C        0.88396891       0.87481291       0.45162266
H       -1.70142038      -0.41139799      -1.59887444
H       -1.53714271       1.34706963      -1.14856223
H       -1.88663989       0.74870550       1.28010157
H       -2.04918769      -1.00683016       0.82801084
H        0.55200958      -1.98153039       0.68376812
H        0.93770816      -1.65618141      -1.02203454
H        2.86219482       0.55820707      -0.11690534
H        0.81782626       1.72203634       1.12792347
15
Frame=14 idx=007366 GeodesicLength=0.5586412247231302 rxn_smarts="[C:1]1([H:8])([H:9])[C:2]([H:10])([H:11])[C:3]12[C:4]([H:12])([H:13])[C@@:5]1([H:14])[O:6][C@@:7]21[H:15]>>[C:1]1([H:8])([H:9])[C:2]([H:10])([H:11])[C:3]12[C:4]([H:12])([H:13])[C:5][C@:7]2([O:6][H:14])[H:15]"
C       -1.40598609       0.31394762      -0.85270033
C       -1.61455910      -0.04352840       0.59382595
C       -0.24226327      -0.02513603       0.00957406
C        0.74527457      -1.19615481      -0.05233528
C        1.84515436      -0.26730382       0.45049461
O        1.78741855       1.02542208      -0.64364037
C        0.88287079       0.87505672       0.45062398
H       -1.70283654      -0.41213993      -1.59875643
H       -1.53867842       1.34652926      -1.14901537
H       -1.88789768       0.74872411       1.27988210
H       -2.04997788      -1.00693734       0.82841365
H        0.55394801      -1.98016850       0.68573514
H        0.93317167      -1.65843454      -1.02226650
H        2.87591458       0.55987331      -0.10940405
H        0.81844646       1.72025027       1.12956884
15
Frame=15 idx=007366 GeodesicLength=0.5985105663188113 rxn_smarts="[C:1]1([H:8])([H:9])[C:2]([H:10])([H:11])[C:3]12[C:4]([H:12])([H:13])[C@@:5]1([H:14])[O:6][C@@:7]21[H:15]>>[C:1]1([H:8])([H:9])[C:2]([H:10])([H:11])[C:3]12[C:4]([H:12])([H:13])[C:5][C@:7]2([O:6][H:14])[H:15]"
C       -1.40728720       0.31350339      -0.85293304
C       -1.61570303      -0.04359163       0.59373675
C       -0.24348384      -0.02513521       0.00929648
C        0.74420642      -1.19626012      -0.05284155
C        1.84490391      -0.26535757       0.44229002
O        1.78667940       1.02641174      -0.64428949
C        0.88176377       0.87532855       0.44957759
H       -1.70428595      -0.41290126      -1.59862725
H       -1.54026492       1.34597550      -1.14947296
H       -1.88914309       0.74874037       1.27967166
H       -2.05073921      -1.00705264       0.82884092
H        0.55595568      -1.97874852       0.68769127
H        0.92862468      -1.66067568      -1.02250343
H        2.88969260       0.56130877      -0.10163248
H        0.81908079       1.71845430       1.13119551
15
Frame=16 idx=007366 GeodesicLength=0.6383794475810328 rxn_smarts="[C:1]1([H:8])([H:9])[C:2]([H:10])([H:11])[C:3]12[C:4]([H:12])([H:13])[C@@:5]1([H:14])[O:6][C@@:7]21[H:15]>>[C:1]1([H:8])([H:9])[C:2]([H:10])([H:11])[C:3]12[C:4]([H:12])([H:13])[C:5][C@:7]2([O:6][H:14])[H:15]"
C       -1.40862149       0.31304916      -0.85316482
C       -1.61683931      -0.04365816       0.59365590
C       -0.24471135      -0.02511851       0.00899360
C        0.74315519      -1.19632980      -0.05337691
C        1.84463676      -0.26334882       0.43397253
O        1.78589060       1.02749380      -0.64501948
C        0.88064811       0.87563110       0.44847915
H       -1.70577090      -0.41368343      -1.59848525
H       -1.54190637       1.34540754      -1.14993403
H       -1.89037615       0.74875356       1.27947120
H       -2.05146897      -1.00717728       0.82929459
H        0.55803516      -1.97726833       0.68963368
H        0.92406686      -1.66290233      -1.02274725
H        2.90353242       0.56250044      -0.09357128
H        0.81972945       1.71665106       1.13279836
