11
Frame=0 idx=000232 GeodesicLength=0.0 rxn_smarts="[C:1]([C:2]#[C:3][C:4]([C:5]#[N:6])([H:10])[H:11])([H:7])([H:8])[H:9]>>[C:1](=[C:2]=[C:3]=[C:4]([C:5]#[N:6])[H:11])([H:7])[H:9].[H:8][H:10]"
C       -1.80243521      -0.00337599      -0.55722500
C       -0.85013839      -0.97896297      -0.69473591
C        0.29679923      -1.12105917      -0.27147553
C        1.14937676      -0.42382071       0.54605978
C        2.27347798       0.29430128       0.00373041
N        3.16531855       0.88799923      -0.40868928
H       -1.98869937       0.68691776      -1.37495677
H       -0.86558105       0.83373043       0.36838472
H       -2.65004588      -0.17052858       0.10114624
H       -0.00768083       0.73309350       0.70962905
H        1.27960816      -0.73829480       1.57813232
11
Frame=1 idx=000232 GeodesicLength=0.07664433994747015 rxn_smarts="[C:1]([C:2]#[C:3][C:4]([C:5]#[N:6])([H:10])[H:11])([H:7])([H:8])[H:9]>>[C:1](=[C:2]=[C:3]=[C:4]([C:5]#[N:6])[H:11])([H:7])[H:9].[H:8][H:10]"
C       -1.80775494      -0.00210322      -0.55707438
C       -0.84953829      -0.97509265      -0.69146109
C        0.29802716      -1.11637687      -0.26605833
C        1.15212091      -0.41771886       0.55253457
C        2.27875502       0.29219780       0.00383024
N        3.17254010       0.87421890      -0.42070261
H       -1.99154811       0.68701336      -1.37635762
H       -0.87970012       0.85208029       0.38065474
H       -2.67035824      -0.19565822       0.07423638
H        0.00111159       0.75232385       0.72341666
H        1.29634494      -0.75088439       1.57698144
11
Frame=2 idx=000232 GeodesicLength=0.15304967623355292 rxn_smarts="[C:1]([C:2]#[C:3][C:4]([C:5]#[N:6])([H:10])[H:11])([H:7])([H:8])[H:9]>>[C:1](=[C:2]=[C:3]=[C:4]([C:5]#[N:6])[H:11])([H:7])[H:9].[H:8][H:10]"
C       -1.81329444      -0.00096285      -0.55648635
C       -0.84901705      -0.97118360      -0.68793091
C        0.29917538      -1.11167858      -0.26038699
C        1.15491816      -0.41163112       0.55920143
C        2.28394008       0.28996387       0.00378560
N        3.17940427       0.86026535      -0.43287356
H       -1.99428026       0.68713584      -1.37728472
H       -0.89421668       0.87079900       0.39302383
H       -2.69020430      -0.22110616       0.04596573
H        0.01043264       0.77188238       0.73752989
H        1.31314220      -0.76348414       1.57545605
11
Frame=3 idx=000232 GeodesicLength=0.22927070290098217 rxn_smarts="[C:1]([C:2]#[C:3][C:4]([C:5]#[N:6])([H:10])[H:11])([H:7])([H:8])[H:9]>>[C:1](=[C:2]=[C:3]=[C:4]([C:5]#[N:6])[H:11])([H:7])[H:9].[H:8][H:10]"
C       -1.81906690       0.00003339      -0.55545587
C       -0.84858275      -0.96723845      -0.68412388
C        0.30023583      -1.10696914      -0.25445716
C        1.15778170      -0.40557795       0.56605621
C        2.28902350       0.28760691       0.00359039
N        3.18586179       0.84613777      -0.44522374
H       -1.99689372       0.68727667      -1.37772611
H       -0.90916349       0.88991967       0.40545617
H       -2.70950642      -0.24685040       0.01629068
H        0.02032621       0.79174087       0.75203583
H        1.32998425      -0.77607933       1.57355748
11
Frame=4 idx=000232 GeodesicLength=0.30536201633310067 rxn_smarts="[C:1]([C:2]#[C:3][C:4]([C:5]#[N:6])([H:10])[H:11])([H:7])([H:8])[H:9]>>[C:1](=[C:2]=[C:3]=[C:4]([C:5]#[N:6])[H:11])([H:7])[H:9].[H:8][H:10]"
C       -1.82508614       0.00086453      -0.55398681
C       -0.84825241      -0.96328419      -0.67999551
C        0.30119416      -1.10227086      -0.24824272
C        1.16072698      -0.39958398       0.57309599
C        2.29399054       0.28512027       0.00321341
N        3.19184652       0.83187576      -0.45779058
H       -1.99933958       0.68744263      -1.37767268
H       -0.92460127       0.90944152       0.41795061
H       -2.72819653      -0.27282039      -0.01486693
H        0.03084298       0.81186500       0.76700416
H        1.34687477      -0.78865030       1.57129108
11
Frame=5 idx=000232 GeodesicLength=0.3813736550452435 rxn_smarts="[C:1]([C:2]#[C:3][C:4]([C:5]#[N:6])([H:10])[H:11])([H:7])([H:8])[H:9]>>[C:1](=[C:2]=[C:3]=[C:4]([C:5]#[N:6])[H:11])([H:7])[H:9].[H:8][H:10]"
C       -1.83140526       0.00147704      -0.55207201
C       -0.84804732      -0.95933565      -0.67556538
C        0.30205097      -1.09757777      -0.24179096
C        1.16375425      -0.39367363       0.58029102
C        2.29884768       0.28246413       0.00265090
N        3.19741424       0.81752390      -0.47047705
H       -2.00168065       0.68759947      -1.37711236
H       -0.94058788       0.92940220       0.43043377
H       -2.74615409      -0.29896405      -0.04740370
H        0.04206194       0.83226475       0.78239948
H        1.36374612      -0.80118038       1.56864629
11
Frame=6 idx=000232 GeodesicLength=0.45736634168961027 rxn_smarts="[C:1]([C:2]#[C:3][C:4]([C:5]#[N:6])([H:10])[H:11])([H:7])([H:8])[H:9]>>[C:1](=[C:2]=[C:3]=[C:4]([C:5]#[N:6])[H:11])([H:7])[H:9].[H:8][H:10]"
C       -1.83803291       0.00184451      -0.54972657
C       -0.84796836      -0.95541389      -0.67078171
C        0.30279057      -1.09291082      -0.23504755
C        1.16688545      -0.38785713       0.58764889
C        2.30357742       0.27965666       0.00187005
N        3.20247778       0.80307352      -0.48339331
H       -2.00384063       0.68777202      -1.37601685
H       -0.95724172       0.94975730       0.44295469
H       -2.76330959      -0.32519707      -0.08147877
H        0.05403943       0.85290665       0.79832487
H        1.38062257      -0.81363175       1.56564626
11
Frame=7 idx=000232 GeodesicLength=0.5334377642822778 rxn_smarts="[C:1]([C:2]#[C:3][C:4]([C:5]#[N:6])([H:10])[H:11])([H:7])([H:8])[H:9]>>[C:1](=[C:2]=[C:3]=[C:4]([C:5]#[N:6])[H:11])([H:7])[H:9].[H:8][H:10]"
C       -1.84503096       0.00189520      -0.54696307
C       -0.84802746      -0.95153141      -0.66565847
C        0.30341500      -1.08825999      -0.22803518
C        1.17012946      -0.38214641       0.59514392
C        2.30818396       0.27667260       0.00085357
N        3.20708971       0.78853275      -0.49648621
H       -2.00585020       0.68794027      -1.37437070
H       -0.97470388       0.97049206       0.45551158
H       -2.77954598      -0.35143325      -0.11704613
H        0.06687736       0.87380737       0.81476068
H        1.39746298      -0.82596920       1.56229001
11
Frame=8 idx=000232 GeodesicLength=0.609583370476569 rxn_smarts="[C:1]([C:2]#[C:3][C:4]([C:5]#[N:6])([H:10])[H:11])([H:7])([H:8])[H:9]>>[C:1](=[C:2]=[C:3]=[C:4]([C:5]#[N:6])[H:11])([H:7])[H:9].[H:8][H:10]"
C       -1.85241839       0.00157824      -0.54381260
C       -0.84821632      -0.94769529      -0.66019083
C        0.30391774      -1.08363448      -0.22071676
C        1.17349813      -0.37652769       0.60276763
C        2.31266176       0.27352035      -0.00042881
N        3.21123843       0.77384540      -0.50983522
H       -2.00766439       0.68813981      -1.37212963
H       -0.99316446       0.99147797       0.46821074
H       -2.79474969      -0.37758411      -0.15419785
H        0.08065155       0.89500320       0.83172132
H        1.41424563      -0.83812341       1.55861202
11
Frame=9 idx=000232 GeodesicLength=0.686627850592769 rxn_smarts="[C:1]([C:2]#[C:3][C:4]([C:5]#[N:6])([H:10])[H:11])([H:7])([H:8])[H:9]>>[C:1](=[C:2]=[C:3]=[C:4]([C:5]#[N:6])[H:11])([H:7])[H:9].[H:8][H:10]"
C       -1.86016725       0.00092386      -0.54055081
C       -0.84860103      -0.94403086      -0.65407745
C        0.30420590      -1.07911446      -0.21273534
C        1.17708375      -0.37101561       0.61060631
C        2.31691211       0.27020689      -0.00218974
N        3.21470173       0.75909206      -0.52390977
H       -2.00877064       0.68849550      -1.36949453
H       -1.01320197       1.01254884       0.48148994
H       -2.80907853      -0.40343418      -0.19343404
H        0.09560265       0.91635962       0.84961974
H        1.43131328      -0.85003167       1.55467570
11
Frame=10 idx=000232 GeodesicLength=0.7637413746383237 rxn_smarts="[C:1]([C:2]#[C:3][C:4]([C:5]#[N:6])([H:10])[H:11])([H:7])([H:8])[H:9]>>[C:1](=[C:2]=[C:3]=[C:4]([C:5]#[N:6])[H:11])([H:7])[H:9].[H:8][H:10]"
C       -1.86834642      -0.00018683      -0.53702918
C       -0.84911323      -0.94044122      -0.64757644
C        0.30434038      -1.07462768      -0.20433975
C        1.18082324      -0.36555677       0.61856247
C        2.32102018       0.26671184      -0.00431169
N        3.21770236       0.74406998      -0.53840791
H       -2.00955976       0.68898163      -1.36619683
H       -1.03473499       1.03360297       0.49517888
H       -2.82215309      -0.42903906      -0.23443650
H        0.11170664       0.93807986       0.86806683
H        1.44831467      -0.86159473       1.55049011
11
Frame=11 idx=000232 GeodesicLength=0.8409173853855163 rxn_smarts="[C:1]([C:2]#[C:3][C:4]([C:5]#[N:6])([H:10])[H:11])([H:7])([H:8])[H:9]>>[C:1](=[C:2]=[C:3]=[C:4]([C:5]#[N:6])[H:11])([H:7])[H:9].[H:8][H:10]"
C       -1.87697603      -0.00179802      -0.53332993
C       -0.84976080      -0.93696608      -0.64067471
C        0.30431106      -1.07018692      -0.19548798
C        1.18472566      -0.36014595       0.62662628
C        2.32497114       0.26300819      -0.00683745
N        3.22023080       0.72877167      -0.55337264
H       -2.00995665       0.68963541      -1.36226988
H       -1.05800093       1.05455570       0.50939574
H       -2.83387767      -0.45429227      -0.27718521
H        0.12907978       0.96016906       0.88705191
H        1.46525365      -0.87275079       1.54608388
11
Frame=12 idx=000232 GeodesicLength=0.9180684570829395 rxn_smarts="[C:1]([C:2]#[C:3][C:4]([C:5]#[N:6])([H:10])[H:11])([H:7])([H:8])[H:9]>>[C:1](=[C:2]=[C:3]=[C:4]([C:5]#[N:6])[H:11])([H:7])[H:9].[H:8][H:10]"
C       -1.88604510      -0.00393042      -0.52954715
C       -0.85053038      -0.93361072      -0.63335982
C        0.30410053      -1.06579359      -0.18611756
C        1.18880586      -0.35473990       0.63478709
C        2.32876309       0.25909978      -0.00982175
N        3.22226857       0.71307842      -0.56890113
H       -2.00990137       0.69051562      -1.35769219
H       -1.08328621       1.07520764       0.52431344
H       -2.84413046      -0.47911052      -0.32174601
H        0.14782969       0.98268420       0.90657185
H        1.48212580      -0.88340051       1.54151324
11
Frame=13 idx=000232 GeodesicLength=0.9951704395881606 rxn_smarts="[C:1]([C:2]#[C:3][C:4]([C:5]#[N:6])([H:10])[H:11])([H:7])([H:8])[H:9]>>[C:1](=[C:2]=[C:3]=[C:4]([C:5]#[N:6])[H:11])([H:7])[H:9].[H:8][H:10]"
C       -1.89559047      -0.00665498      -0.52579331
C       -0.85141281      -0.93037996      -0.62568015
C        0.30371320      -1.06142788      -0.17622373
C        1.19306694      -0.34930753       0.64301560
C        2.33241070       0.25493721      -0.01329214
N        3.22390622       0.69691717      -0.58497884
H       -2.00939852       0.69165508      -1.35249283
H       -1.11090353       1.09541530       0.54012264
H       -2.85278533      -0.50340077      -0.36800569
H        0.16811115       1.00570798       0.92651761
H        1.49888246      -0.89346162       1.53681083
11
Frame=14 idx=000232 GeodesicLength=1.0721344164140445 rxn_smarts="[C:1]([C:2]#[C:3][C:4]([C:5]#[N:6])([H:10])[H:11])([H:7])([H:8])[H:9]>>[C:1](=[C:2]=[C:3]=[C:4]([C:5]#[N:6])[H:11])([H:7])[H:9].[H:8][H:10]"
C       -1.90558042      -0.00998301      -0.52217213
C       -0.85239124      -0.92728329      -0.61759231
C        0.30312330      -1.05708375      -0.16568869
C        1.19752929      -0.34378332       0.65131269
C        2.33590355       0.25051431      -0.01731749
N        3.22508613       0.68011956      -0.60177918
H       -2.00834059       0.69314726      -1.34661101
H       -1.14122856       1.11489406       0.55707265
H       -2.85972249      -0.52706891      -0.41615420
H        0.19007356       1.02933304       0.94687118
H        1.51554746      -0.90280594       1.53205849
11
Frame=15 idx=000232 GeodesicLength=1.148931727827018 rxn_smarts="[C:1]([C:2]#[C:3][C:4]([C:5]#[N:6])([H:10])[H:11])([H:7])([H:8])[H:9]>>[C:1](=[C:2]=[C:3]=[C:4]([C:5]#[N:6])[H:11])([H:7])[H:9].[H:8][H:10]"
C       -1.91603629      -0.01397723      -0.51880548
C       -0.85345121      -0.92431903      -0.60910455
C        0.30231840      -1.05274627      -0.15442984
C        1.20220600      -0.33809096       0.65966072
C        2.33925356       0.24578189      -0.02196987
N        3.22586735       0.66251155      -0.61940091
H       -2.00668271       0.69507118      -1.34000285
H       -1.17469339       1.13335458       0.57551564
H       -2.86478850      -0.54999958      -0.46630300
H        0.21390856       1.05369623       0.96749904
H        1.53209821      -0.91128236       1.52734112
11
Frame=16 idx=000232 GeodesicLength=1.2255089807299118 rxn_smarts="[C:1]([C:2]#[C:3][C:4]([C:5]#[N:6])([H:10])[H:11])([H:7])([H:8])[H:9]>>[C:1](=[C:2]=[C:3]=[C:4]([C:5]#[N:6])[H:11])([H:7])[H:9].[H:8][H:10]"
C       -1.92694987      -0.01868362      -0.51582005
C       -0.85457370      -0.92149326      -0.60017414
C        0.30126351      -1.04841844      -0.14227367
C        1.20711342      -0.33212396       0.66806816
C        2.34244752       0.24071454      -0.02734790
N        3.22621661       0.64383506      -0.63809471
H       -2.00428355       0.69756885      -1.33254857
H       -1.21179496       1.15039453       0.59587934
H       -2.86778815      -0.57206086      -0.51877385
H        0.23979906       1.07895583       0.98829775
H        1.54855012      -0.91868867       1.52278764
