13
Frame=0 idx=009876 GeodesicLength=0.0 rxn_smarts="[C:1]([C@@:2]([O:3][C:4](=[O:5])[H:12])([C:6]#[C:7][H:13])[H:11])([H:8])([H:9])[H:10]>>[C:1]1([H:8])([H:10])[C@@:2]([C:6]#[C:7][H:13])([H:11])[O:3]1.[C:4](=[O:5])([H:9])[H:12]"
C       -0.72075595      -0.70443996      -0.29663198
C       -0.12865525       0.47217265       0.35381552
O        1.00226482       0.35398824      -0.42700646
C        1.62003571      -1.48274090      -0.00808706
O        1.95989572      -1.59949294       1.12901366
C       -0.89011943       1.71209192       0.18944179
C       -1.52228562       2.71846724       0.04875138
H       -1.12449228      -1.55548074       0.24418146
H        0.54363768      -1.80921776      -0.33693197
H       -0.98526457      -0.58776360      -1.33868647
H        0.06578640       0.29555297       1.42182915
H        2.24915416      -1.43660471      -0.90491741
H       -2.06920138       3.62346765      -0.07477163
13
Frame=1 idx=009876 GeodesicLength=0.10291529036341208 rxn_smarts="[C:1]([C@@:2]([O:3][C:4](=[O:5])[H:12])([C:6]#[C:7][H:13])[H:11])([H:8])([H:9])[H:10]>>[C:1]1([H:8])([H:10])[C@@:2]([C:6]#[C:7][H:13])([H:11])[O:3]1.[C:4](=[O:5])([H:9])[H:12]"
C       -0.72194924      -0.70670833      -0.30826016
C       -0.13331605       0.47044606       0.34563981
O        0.99199069       0.33926943      -0.44587469
C        1.63251468      -1.47489639      -0.00300595
O        1.97018437      -1.57441129       1.13686803
C       -0.88754013       1.71279326       0.17843879
C       -1.51783508       2.72213546       0.05191896
H       -1.15826936      -1.53724495       0.23876182
H        0.52959602      -1.82987579      -0.32175796
H       -0.97959441      -0.61015074      -1.35436219
H        0.07219529       0.29714526       1.41133204
H        2.27150365      -1.43745044      -0.89372385
H       -2.06948043       3.62894844      -0.03597465
13
Frame=2 idx=009876 GeodesicLength=0.20582097576046593 rxn_smarts="[C:1]([C@@:2]([O:3][C:4](=[O:5])[H:12])([C:6]#[C:7][H:13])[H:11])([H:8])([H:9])[H:10]>>[C:1]1([H:8])([H:10])[C@@:2]([C:6]#[C:7][H:13])([H:11])[O:3]1.[C:4](=[O:5])([H:9])[H:12]"
C       -0.72364334      -0.71086806      -0.31973009
C       -0.13974027       0.46784624       0.33697401
O        0.98012435       0.32456802      -0.46480846
C        1.64590914      -1.46529888       0.00181748
O        1.98117108      -1.54705810       1.14428833
C       -0.88792100       1.71178892       0.16624639
C       -1.51695689       2.72346120       0.05308117
H       -1.19239798      -1.51982868       0.23247965
H        0.51563204      -1.85072013      -0.30485565
H       -0.97421017      -0.63566719      -1.36959143
H        0.07698005       0.29859619       1.40031347
H        2.29479084      -1.43515783      -0.88248435
H       -2.05973785       3.63833829       0.00626947
13
Frame=3 idx=009876 GeodesicLength=0.30869132921876696 rxn_smarts="[C:1]([C@@:2]([O:3][C:4](=[O:5])[H:12])([C:6]#[C:7][H:13])[H:11])([H:8])([H:9])[H:10]>>[C:1]1([H:8])([H:10])[C@@:2]([C:6]#[C:7][H:13])([H:11])[O:3]1.[C:4](=[O:5])([H:9])[H:12]"
C       -0.72507691      -0.71262413      -0.33069202
C       -0.14347243       0.46620835       0.32931959
O        0.97062890       0.30906736      -0.48253906
C        1.65869562      -1.45726305       0.00577541
O        1.99106807      -1.52301905       1.15059604
C       -0.88292746       1.71342102       0.15568432
C       -1.50845892       2.72866943       0.05635222
H       -1.22855669      -1.49798289       0.22477711
H        0.49893642      -1.87126403      -0.28708493
H       -0.96817231      -0.65816957      -1.38390239
H        0.08413041       0.30000338       1.39009642
H        2.31757721      -1.43406498      -0.87180569
H       -2.06437190       3.63701815       0.04342300
13
Frame=4 idx=009876 GeodesicLength=0.41154623811788 rxn_smarts="[C:1]([C@@:2]([O:3][C:4](=[O:5])[H:12])([C:6]#[C:7][H:13])[H:11])([H:8])([H:9])[H:10]>>[C:1]1([H:8])([H:10])[C@@:2]([C:6]#[C:7][H:13])([H:11])[O:3]1.[C:4](=[O:5])([H:9])[H:12]"
C       -0.72692372      -0.71541019      -0.34122677
C       -0.14815882       0.46384911       0.32208802
O        0.96017549       0.29362711      -0.49965914
C        1.67219437      -1.44803994       0.00898405
O        2.00140284      -1.49827828       1.15597144
C       -0.87938200       1.71401915       0.14567882
C       -1.50167356       2.73250579       0.06031500
H       -1.26528582      -1.47600539       0.21579787
H        0.48167417      -1.89175460      -0.26803620
H       -0.96235539      -0.68218797      -1.39739387
H        0.09048209       0.30064104       1.38014440
H        2.34109846      -1.43005769      -0.86160072
H       -2.06324810       3.63709187       0.07893709
13
Frame=5 idx=009876 GeodesicLength=0.514387747364959 rxn_smarts="[C:1]([C@@:2]([O:3][C:4](=[O:5])[H:12])([C:6]#[C:7][H:13])[H:11])([H:8])([H:9])[H:10]>>[C:1]1([H:8])([H:10])[C@@:2]([C:6]#[C:7][H:13])([H:11])[O:3]1.[C:4](=[O:5])([H:9])[H:12]"
C       -0.72904863      -0.71860618      -0.35123500
C       -0.15304098       0.46101099       0.31552105
O        0.94942358       0.27804557      -0.51601217
C        1.68621613      -1.43820826       0.01131893
O        2.01188746      -1.47384981       1.16032433
C       -0.87588421       1.71424111       0.13669246
C       -1.49476464       2.73587063       0.06543713
H       -1.30278710      -1.45304969       0.20543850
H        0.46335781      -1.91219322      -0.24780805
H       -0.95660595      -0.70681732      -1.40994231
H        0.09674183       0.30049353       1.37066985
H        2.36520155      -1.42381272      -0.85199643
H       -2.06069686       3.63687537       0.11159171
13
Frame=6 idx=009876 GeodesicLength=0.6172030591696841 rxn_smarts="[C:1]([C@@:2]([O:3][C:4](=[O:5])[H:12])([C:6]#[C:7][H:13])[H:11])([H:8])([H:9])[H:10]>>[C:1]1([H:8])([H:10])[C@@:2]([C:6]#[C:7][H:13])([H:11])[O:3]1.[C:4](=[O:5])([H:9])[H:12]"
C       -0.73150395      -0.72230262      -0.36060455
C       -0.15823293       0.45754440       0.30987795
O        0.93822138       0.26241389      -0.53145264
C        1.70084485      -1.42765131       0.01260420
O        2.02257969      -1.44987561       1.16351222
C       -0.87265683       1.71390790       0.12923132
C       -1.48806797       2.73851229       0.07235959
H       -1.34094465      -1.42928660       0.19359609
H        0.44399280      -1.93257610      -0.22650754
H       -0.95099938      -0.73200337      -1.42141807
H        0.10287178       0.29926532       1.36188660
H        2.38995822      -1.41489708      -0.84318186
H       -2.05606302       3.63694889       0.14009668
13
Frame=7 idx=009876 GeodesicLength=0.7200300411969516 rxn_smarts="[C:1]([C@@:2]([O:3][C:4](=[O:5])[H:12])([C:6]#[C:7][H:13])[H:11])([H:8])([H:9])[H:10]>>[C:1]1([H:8])([H:10])[C@@:2]([C:6]#[C:7][H:13])([H:11])[O:3]1.[C:4](=[O:5])([H:9])[H:12]"
C       -0.73477018      -0.72959363      -0.36979157
C       -0.16688491       0.45204550       0.30399344
O        0.92404412       0.24707499      -0.54678780
C        1.71704230      -1.41387736       0.01337746
O        2.03411109      -1.42248872       1.16621393
C       -0.87549166       1.70998146       0.12108445
C       -1.48968521       2.73598246       0.07799887
H       -1.37885000      -1.40872525       0.18002776
H        0.42562109      -1.95340793      -0.20341370
H       -0.94565621      -0.76206355      -1.43230729
H        0.10583305       0.29685656       1.35278927
H        2.41652396      -1.39978720      -0.83444752
H       -2.03183744       3.64800267       0.17126269
13
Frame=8 idx=009876 GeodesicLength=0.822856407659422 rxn_smarts="[C:1]([C@@:2]([O:3][C:4](=[O:5])[H:12])([C:6]#[C:7][H:13])[H:11])([H:8])([H:9])[H:10]>>[C:1]1([H:8])([H:10])[C@@:2]([C:6]#[C:7][H:13])([H:11])[O:3]1.[C:4](=[O:5])([H:9])[H:12]"
C       -0.73787223      -0.73444881      -0.37825837
C       -0.17249112       0.44776684       0.29863491
O        0.91228433       0.23059982      -0.56160689
C        1.73280905      -1.40191711       0.01330402
O        2.04457537      -1.39867796       1.16807797
C       -0.87222046       1.70899932       0.11358743
C       -1.48270419       2.73770265       0.08433393
H       -1.41841207      -1.38263774       0.16502480
H        0.40366689      -1.97394619      -0.17861497
H       -0.93991774      -0.78968061      -1.44200274
H        0.11167566       0.29499680       1.34404228
H        2.44279520      -1.38621263      -0.82625619
H       -2.02418870       3.64745563       0.19973383
13
Frame=9 idx=009876 GeodesicLength=0.9256075131966788 rxn_smarts="[C:1]([C@@:2]([O:3][C:4](=[O:5])[H:12])([C:6]#[C:7][H:13])[H:11])([H:8])([H:9])[H:10]>>[C:1]1([H:8])([H:10])[C@@:2]([C:6]#[C:7][H:13])([H:11])[O:3]1.[C:4](=[O:5])([H:9])[H:12]"
C       -0.74135836      -0.74006843      -0.38613835
C       -0.17851145       0.44282710       0.29373738
O        0.89997935       0.21377674      -0.57589518
C        1.74928352      -1.38904828       0.01233181
O        2.05490047      -1.37525080       1.16907866
C       -0.86930510       1.70737050       0.10671181
C       -1.47608511       2.73856593       0.09115462
H       -1.45832687      -1.35564784       0.14824504
H        0.38039902      -1.99456132      -0.15232939
H       -0.93423527      -0.81850754      -1.45057775
H        0.11725015       0.29236672       1.33554596
H        2.46998191      -1.36952652      -0.81846411
H       -2.01397226       3.64770374       0.22659950
13
Frame=10 idx=009876 GeodesicLength=1.0283691137243085 rxn_smarts="[C:1]([C@@:2]([O:3][C:4](=[O:5])[H:12])([C:6]#[C:7][H:13])[H:11])([H:8])([H:9])[H:10]>>[C:1]1([H:8])([H:10])[C@@:2]([C:6]#[C:7][H:13])([H:11])[O:3]1.[C:4](=[O:5])([H:9])[H:12]"
C       -0.74517791      -0.74587568      -0.39342287
C       -0.18423408       0.43764513       0.28912814
O        0.88772942       0.19632805      -0.58983346
C        1.76630294      -1.37577516       0.01050381
O        2.06485424      -1.35282527       1.16937134
C       -0.86534457       1.70584935       0.10006084
C       -1.46791720       2.73963298       0.09787260
H       -1.49877805      -1.32668802       0.12955357
H        0.35507492      -2.01517682      -0.12411893
H       -0.92850499      -0.84811542      -1.45802390
H        0.12320279       0.28940445       1.32717896
H        2.49792935      -1.35054877      -0.81105223
H       -2.00513686       3.64614516       0.25278213
13
Frame=11 idx=009876 GeodesicLength=1.1311210965730458 rxn_smarts="[C:1]([C@@:2]([O:3][C:4](=[O:5])[H:12])([C:6]#[C:7][H:13])[H:11])([H:8])([H:9])[H:10]>>[C:1]1([H:8])([H:10])[C@@:2]([C:6]#[C:7][H:13])([H:11])[O:3]1.[C:4](=[O:5])([H:9])[H:12]"
C       -0.74982052      -0.75455264      -0.40023134
C       -0.19265081       0.43050794       0.28503319
O        0.87309696       0.17898466      -0.60319124
C        1.78470112      -1.35952476       0.00764348
O        2.07495967      -1.32881861       1.16884807
C       -0.86592183       1.70137728       0.09415587
C       -1.46600100       2.73656624       0.10519809
H       -1.53892750      -1.30011814       0.10842308
H        0.32967119      -2.03626972      -0.09434964
H       -0.92287611      -0.88128963      -1.46444229
H        0.12678053       0.28475218       1.31912860
H        2.52749802      -1.32466229      -0.80399669
H       -1.98050972       3.65304748       0.27778082
13
Frame=12 idx=009876 GeodesicLength=1.2338818900134345 rxn_smarts="[C:1]([C@@:2]([O:3][C:4](=[O:5])[H:12])([C:6]#[C:7][H:13])[H:11])([H:8])([H:9])[H:10]>>[C:1]1([H:8])([H:10])[C@@:2]([C:6]#[C:7][H:13])([H:11])[O:3]1.[C:4](=[O:5])([H:9])[H:12]"
C       -0.75455733      -0.76152776      -0.40619774
C       -0.19852252       0.42434166       0.28101756
O        0.86021710       0.16024786      -0.61651218
C        1.80315587      -1.34454146       0.00385782
O        2.08408824      -1.30817674       1.16760906
C       -0.86116892       1.69925242       0.08796842
C       -1.45659526       2.73693267       0.11175612
H       -1.57979421      -1.26821332       0.08546840
H        0.30010814      -2.05703534      -0.06200380
H       -0.91719641      -0.91350761      -1.46931460
H        0.13291417       0.28078512       1.31097754
H        2.55731133      -1.29895029      -0.79725118
H       -1.96996020       3.65039279       0.30262459
13
Frame=13 idx=009876 GeodesicLength=1.336578045077424 rxn_smarts="[C:1]([C@@:2]([O:3][C:4](=[O:5])[H:12])([C:6]#[C:7][H:13])[H:11])([H:8])([H:9])[H:10]>>[C:1]1([H:8])([H:10])[C@@:2]([C:6]#[C:7][H:13])([H:11])[O:3]1.[C:4](=[O:5])([H:9])[H:12]"
C       -0.75977362      -0.76896855      -0.41143775
C       -0.20424840       0.41775189       0.27719655
O        0.84709390       0.14063573      -0.62962250
C        1.82236955      -1.32875995      -0.00098711
O        2.09255403      -1.28902273       1.16555739
C       -0.85552667       1.69698806       0.08180502
C       -1.44595207       2.73719519       0.11792666
H       -1.62051366      -1.23438828       0.06021786
H        0.26783290      -2.07782612      -0.02739822
H       -0.91163441      -0.94706709      -1.47266541
H        0.13937385       0.27638438       1.30278767
H        2.58813486      -1.26948947      -0.79059357
H       -1.95971027       3.64656693       0.32721340
13
Frame=14 idx=009876 GeodesicLength=1.439304181263765 rxn_smarts="[C:1]([C@@:2]([O:3][C:4](=[O:5])[H:12])([C:6]#[C:7][H:13])[H:11])([H:8])([H:9])[H:10]>>[C:1]1([H:8])([H:10])[C@@:2]([C:6]#[C:7][H:13])([H:11])[O:3]1.[C:4](=[O:5])([H:9])[H:12]"
C       -0.76608361      -0.78015392      -0.41620327
C       -0.21355874       0.40848665       0.27415074
O        0.83087316       0.12115312      -0.64200705
C        1.84323060      -1.30872311      -0.00721135
O        2.10085867      -1.26831996       1.16251950
C       -0.85595354       1.69079456       0.07691006
C       -1.44379202       2.73198811       0.12555459
H       -1.66045320      -1.20450206       0.03166114
H        0.23523371      -2.09947226       0.00894684
H       -0.90601242      -0.98509813      -1.47484701
H        0.14266779       0.26957463       1.29512396
H        2.62070238      -1.22994350      -0.78408677
H       -1.92771280       3.65421587       0.34948860
13
Frame=15 idx=009876 GeodesicLength=1.542005428312431 rxn_smarts="[C:1]([C@@:2]([O:3][C:4](=[O:5])[H:12])([C:6]#[C:7][H:13])[H:11])([H:8])([H:9])[H:10]>>[C:1]1([H:8])([H:10])[C@@:2]([C:6]#[C:7][H:13])([H:11])[O:3]1.[C:4](=[O:5])([H:9])[H:12]"
C       -0.77260374      -0.78934429      -0.41984066
C       -0.21975034       0.40035373       0.27112750
O        0.81653550       0.09981479      -0.65455960
C        1.86437226      -1.29008152      -0.01478629
O        2.10803488      -1.25242974       1.15838010
C       -0.84984460       1.68730037       0.07155169
C       -1.43245734       2.73084832       0.13195465
H       -1.70029227      -1.16827013       0.00094335
H        0.19685478      -2.12048355       0.04877298
H       -0.90067949      -1.02235162      -1.47482423
H        0.14927181       0.26353173       1.28719045
H        2.65360519      -1.18963048      -0.77768776
H       -1.91304662       3.65074238       0.37177782
13
Frame=16 idx=009876 GeodesicLength=1.6446995159545692 rxn_smarts="[C:1]([C@@:2]([O:3][C:4](=[O:5])[H:12])([C:6]#[C:7][H:13])[H:11])([H:8])([H:9])[H:10]>>[C:1]1([H:8])([H:10])[C@@:2]([C:6]#[C:7][H:13])([H:11])[O:3]1.[C:4](=[O:5])([H:9])[H:12]"
C       -0.77987145      -0.79954112      -0.42264161
C       -0.22618241       0.39132736       0.26842428
O        0.80146874       0.07738138      -0.66693687
C        1.88661583      -1.26968835      -0.02395121
O        2.11435741      -1.23883265       1.15294305
C       -0.84341766       1.68306526       0.06644185
C       -1.42065535       2.72891367       0.13826473
H       -1.73924746      -1.13087105      -0.03294371
H        0.15459746      -2.14151610       0.09175094
H       -0.89548149      -1.06189343      -1.47284225
H        0.15601113       0.25656002       1.27925085
H        2.68753840      -1.14249893      -0.77101396
H       -1.89573316       3.64759393       0.39325389
