13
Frame=0 idx=003523 GeodesicLength=0.0 rxn_smarts="[C:1]([O:2][C:3]([C:4](=[O:5])[N:6]([H:12])[H:13])([H:10])[H:11])([H:7])([H:8])[H:9]>>[C:1]([O:2][C:3](=[C:4]([O-:5])[N+:6]([H:11])([H:12])[H:13])[H:10])([H:7])([H:8])[H:9]"
C        1.79329412       0.86695174      -0.07558974
O        0.70319974       0.41763114       0.69292895
C        0.21737959      -0.83085795       0.26040960
C       -1.18610620      -1.00808087       0.44057561
O       -1.90689562      -1.93293491       0.67676718
N       -1.73738320       0.22890709      -0.31458781
H        1.50855858       1.01534925      -1.12503200
H        2.62379486       0.15228038      -0.04179109
H        2.12417421       1.81411676       0.34979591
H        0.86813187      -1.67272012       0.49026111
H       -0.64774596      -0.17946739      -0.84205689
H       -2.64159669       0.03708545      -0.72408270
H       -1.71880533       1.09173937       0.21240185
13
Frame=1 idx=003523 GeodesicLength=0.05603607123353611 rxn_smarts="[C:1]([O:2][C:3]([C:4](=[O:5])[N:6]([H:12])[H:13])([H:10])[H:11])([H:7])([H:8])[H:9]>>[C:1]([O:2][C:3](=[C:4]([O-:5])[N+:6]([H:11])([H:12])[H:13])[H:10])([H:7])([H:8])[H:9]"
C        1.79652871       0.86749430      -0.07339709
O        0.69587747       0.42489410       0.68389206
C        0.21399537      -0.82588899       0.25322450
C       -1.18882186      -1.00620584       0.44591699
O       -1.90116825      -1.94327832       0.66417125
N       -1.74486889       0.22451777      -0.31069174
H        1.52787301       1.00553248      -1.12842059
H        2.62670088       0.15363749      -0.02008726
H        2.12076562       1.81909436       0.34718175
H        0.86575716      -1.66502765       0.49009626
H       -0.65261268      -0.18737529      -0.86596989
H       -2.66157986       0.04163777      -0.69508974
H       -1.69844666       1.09096781       0.20917351
13
Frame=2 idx=003523 GeodesicLength=0.11208177387993208 rxn_smarts="[C:1]([O:2][C:3]([C:4](=[O:5])[N:6]([H:12])[H:13])([H:10])[H:11])([H:7])([H:8])[H:9]>>[C:1]([O:2][C:3](=[C:4]([O-:5])[N+:6]([H:11])([H:12])[H:13])[H:10])([H:7])([H:8])[H:9]"
C        1.79971774       0.86804449      -0.07106733
O        0.68868000       0.43198420       0.67479959
C        0.21056011      -0.82097316       0.24581423
C       -1.19147325      -1.00435663       0.45139058
O       -1.89539081      -1.95301107       0.65218224
N       -1.75235580       0.22007711      -0.30669257
H        1.54714792       0.99587480      -1.13128592
H        2.62921468       0.15510267       0.00152726
H        2.11749107       1.82393859       0.34472006
H        0.86336400      -1.65744400       0.48922564
H       -0.65756963      -0.19530708      -0.88985589
H       -2.68075757       0.04620589      -0.66575974
H       -1.67862847       1.08986419       0.20500184
13
Frame=3 idx=003523 GeodesicLength=0.16800079605445675 rxn_smarts="[C:1]([O:2][C:3]([C:4](=[O:5])[N:6]([H:12])[H:13])([H:10])[H:11])([H:7])([H:8])[H:9]>>[C:1]([O:2][C:3](=[C:4]([O-:5])[N+:6]([H:11])([H:12])[H:13])[H:10])([H:7])([H:8])[H:9]"
C        1.80280007       0.86855879      -0.06859801
O        0.68159147       0.43888533       0.66562245
C        0.20708943      -0.81608139       0.23817010
C       -1.19398553      -1.00249499       0.45697304
O       -1.88948507      -1.96210113       0.64079370
N       -1.75981312       0.21560362      -0.30258672
H        1.56631754       0.98632292      -1.13361992
H        2.63128084       0.15665151       0.02310028
H        2.11425855       1.82857946       0.34238665
H        0.86097706      -1.64992344       0.48766878
H       -0.66261803      -0.20322769      -0.91372890
H       -2.69906682       0.05084066      -0.63612028
H       -1.65934641       1.08838634       0.19993883
13
Frame=4 idx=003523 GeodesicLength=0.2239596132150075 rxn_smarts="[C:1]([O:2][C:3]([C:4](=[O:5])[N:6]([H:12])[H:13])([H:10])[H:11])([H:7])([H:8])[H:9]>>[C:1]([O:2][C:3](=[C:4]([O-:5])[N+:6]([H:11])([H:12])[H:13])[H:10])([H:7])([H:8])[H:9]"
C        1.80587115       0.86908132      -0.06598790
O        0.67460401       0.44565865       0.65634523
C        0.20355736      -0.81121999       0.23025964
C       -1.19642061      -1.00066756       0.46266578
O       -1.88355198      -1.97065821       0.62999170
N       -1.76730794       0.21107632      -0.29835401
H        1.58557710       0.97682189      -1.13548307
H        2.63299987       0.15831244       0.04474477
H        2.11114019       1.83314691       0.34016099
H        0.85857785      -1.64249705       0.48537316
H       -0.66777901      -0.21114655      -0.93765340
H       -2.71663912       0.05549171      -0.60608016
H       -1.64062887       1.08660012       0.19401726
13
Frame=5 idx=003523 GeodesicLength=0.27991632512853953 rxn_smarts="[C:1]([O:2][C:3]([C:4](=[O:5])[N:6]([H:12])[H:13])([H:10])[H:11])([H:7])([H:8])[H:9]>>[C:1]([O:2][C:3](=[C:4]([O-:5])[N+:6]([H:11])([H:12])[H:13])[H:10])([H:7])([H:8])[H:9]"
C        1.80892700       0.86956827      -0.06324151
O        0.66767194       0.45232684       0.64687600
C        0.19996679      -0.80634293       0.22200923
C       -1.19873005      -0.99884683       0.46842277
O       -1.87752619      -1.97869615       0.61967352
N       -1.77486022       0.20651475      -0.29393814
H        1.60511967       0.96709987      -1.13691326
H        2.63438449       0.16012947       0.06675875
H        2.10796346       1.83767381       0.33787031
H        0.85619032      -1.63509547       0.48227010
H       -0.67308425      -0.21899709      -0.96164890
H       -2.73349870       0.06024026      -0.57553865
H       -1.62252426       1.08442520       0.18739978
13
Frame=6 idx=003523 GeodesicLength=0.3358691507941971 rxn_smarts="[C:1]([O:2][C:3]([C:4](=[O:5])[N:6]([H:12])[H:13])([H:10])[H:11])([H:7])([H:8])[H:9]>>[C:1]([O:2][C:3](=[C:4]([O-:5])[N+:6]([H:11])([H:12])[H:13])[H:10])([H:7])([H:8])[H:9]"
C        1.81194579       0.87004673      -0.06035430
O        0.66081925       0.45889180       0.63727468
C        0.19631579      -0.80147744       0.21348408
C       -1.20091676      -0.99704435       0.47428107
O       -1.87144263      -1.98624067       0.60991615
N       -1.78243822       0.20190905      -0.28938217
H        1.62474900       0.95737917      -1.13786685
H        2.63537200       0.16204115       0.08889284
H        2.10487129       1.84211260       0.33565786
H        0.85380396      -1.62776665       0.47845679
H       -0.67849810      -0.22683657      -0.98575182
H       -2.74959160       0.06504230      -0.54460459
H       -1.60498976       1.08194289       0.17999623
13
Frame=7 idx=003523 GeodesicLength=0.39182704201385893 rxn_smarts="[C:1]([O:2][C:3]([C:4](=[O:5])[N:6]([H:12])[H:13])([H:10])[H:11])([H:7])([H:8])[H:9]>>[C:1]([O:2][C:3](=[C:4]([O-:5])[N+:6]([H:11])([H:12])[H:13])[H:10])([H:7])([H:8])[H:9]"
C        1.81495946       0.87050101      -0.05732809
O        0.65401884       0.46538133       0.62746224
C        0.19259669      -0.79659053       0.20462030
C       -1.20296741      -0.99524814       0.48020854
O       -1.86529456      -1.99332961       0.60063308
N       -1.79008039       0.19726079      -0.28464002
H        1.64466980       0.94744892      -1.13837108
H        2.63599752       0.16410816       0.11140184
H        2.10177246       1.84652144       0.33337958
H        0.85142797      -1.62046543       0.47386403
H       -0.68406282      -0.23462106      -1.00998906
H       -2.76496710       0.06994800      -0.51316105
H       -1.58807046       1.07908512       0.17191971
13
Frame=8 idx=003523 GeodesicLength=0.44781366532485006 rxn_smarts="[C:1]([O:2][C:3]([C:4](=[O:5])[N:6]([H:12])[H:13])([H:10])[H:11])([H:7])([H:8])[H:9]>>[C:1]([O:2][C:3](=[C:4]([O-:5])[N+:6]([H:11])([H:12])[H:13])[H:10])([H:7])([H:8])[H:9]"
C        1.81799378       0.87091360      -0.05414968
O        0.64724966       0.47183751       0.61737524
C        0.18880097      -0.79164890       0.19535615
C       -1.20485871      -0.99346893       0.48618990
O       -1.85904479      -1.99999769       0.59180598
N       -1.79783533       0.19257867      -0.27966321
H        1.66504023       0.93711987      -1.13843209
H        2.63626202       0.16635326       0.13450422
H        2.09862675       1.85094806       0.33094294
H        0.84907730      -1.61316183       0.46837535
H       -0.68983159      -0.24228267      -1.03440331
H       -2.77968304       0.07490804      -0.48114607
H       -1.57179725       1.07590102       0.16324460
13
Frame=9 idx=003523 GeodesicLength=0.5038237908873331 rxn_smarts="[C:1]([O:2][C:3]([C:4](=[O:5])[N:6]([H:12])[H:13])([H:10])[H:11])([H:7])([H:8])[H:9]>>[C:1]([O:2][C:3](=[C:4]([O-:5])[N+:6]([H:11])([H:12])[H:13])[H:10])([H:7])([H:8])[H:9]"
C        1.82101294       0.87130402      -0.05082841
O        0.64051495       0.47825085       0.60705195
C        0.18493115      -0.78667859       0.18574811
C       -1.20658826      -0.99169902       0.49224864
O       -1.85273280      -2.00625721       0.58345188
N       -1.80565071       0.18785227      -0.27448367
H        1.68570864       0.92656866      -1.13800975
H        2.63609748       0.16874515       0.15799051
H        2.09549725       1.85534402       0.32843144
H        0.84674275      -1.60588516       0.46211190
H       -0.69574250      -0.24989559      -1.05901535
H       -2.79364913       0.07997615      -0.44862184
H       -1.55614175       1.07237446       0.15392458
13
Frame=10 idx=003523 GeodesicLength=0.5597999688863073 rxn_smarts="[C:1]([O:2][C:3]([C:4](=[O:5])[N:6]([H:12])[H:13])([H:10])[H:11])([H:7])([H:8])[H:9]>>[C:1]([O:2][C:3](=[C:4]([O-:5])[N+:6]([H:11])([H:12])[H:13])[H:10])([H:7])([H:8])[H:9]"
C        1.82397161       0.87166766      -0.04736993
O        0.63382339       0.48460779       0.59652990
C        0.18099429      -0.78168262       0.17585254
C       -1.20813429      -0.98991999       0.49840436
O       -1.84635106      -2.01207185       0.57558408
N       -1.81348006       0.18308402      -0.26911084
H        1.70649508       0.91592092      -1.13706358
H        2.63544438       0.17123521       0.18166727
H        2.09242970       1.85963242       0.32592071
H        0.84442433      -1.59862961       0.45516842
H       -0.70174547      -0.25749402      -1.08382242
H       -2.80678835       0.08514036      -0.41572386
H       -1.54108355       1.06850971       0.14396336
13
Frame=11 idx=003523 GeodesicLength=0.6158420555304847 rxn_smarts="[C:1]([O:2][C:3]([C:4](=[O:5])[N:6]([H:12])[H:13])([H:10])[H:11])([H:7])([H:8])[H:9]>>[C:1]([O:2][C:3](=[C:4]([O-:5])[N+:6]([H:11])([H:12])[H:13])[H:10])([H:7])([H:8])[H:9]"
C        1.82690967       0.87203223      -0.04378215
O        0.62717240       0.49094651       0.58580332
C        0.17697324      -0.77667041       0.16566383
C       -1.20952748      -0.98815317       0.50467145
O       -1.83997302      -2.01752719       0.56820093
N       -1.82134177       0.17827690      -0.26351827
H        1.72748536       0.90516514      -1.13562266
H        2.63432105       0.17383933       0.20555836
H        2.08947285       1.86388379       0.32339219
H        0.84210237      -1.59141999       0.44754140
H       -0.70783268      -0.26509061      -1.10886815
H       -2.81911893       0.09038779      -0.38247463
H       -1.52664306       1.06432966       0.13343438
13
Frame=12 idx=003523 GeodesicLength=0.6717548272782918 rxn_smarts="[C:1]([O:2][C:3]([C:4](=[O:5])[N:6]([H:12])[H:13])([H:10])[H:11])([H:7])([H:8])[H:9]>>[C:1]([O:2][C:3](=[C:4]([O-:5])[N+:6]([H:11])([H:12])[H:13])[H:10])([H:7])([H:8])[H:9]"
C        1.82974984       0.87233252      -0.04005745
O        0.62054879       0.49723923       0.57482042
C        0.17289054      -0.77159411       0.15517837
C       -1.21067001      -0.98632883       0.51102832
O       -1.83347166      -2.02252880       0.56128529
N       -1.82920311       0.17344484      -0.25769009
H        1.74856590       0.89426237      -1.13361544
H        2.63264437       0.17652173       0.22967286
H        2.08654187       1.86796185       0.32083040
H        0.83982334      -1.58416651       0.43923880
H       -0.71402835      -0.27265749      -1.13412185
H       -2.83056061       0.09574470      -0.34893040
H       -1.51283092       1.05976851       0.12236077
13
Frame=13 idx=003523 GeodesicLength=0.7277601710647258 rxn_smarts="[C:1]([O:2][C:3]([C:4](=[O:5])[N:6]([H:12])[H:13])([H:10])[H:11])([H:7])([H:8])[H:9]>>[C:1]([O:2][C:3](=[C:4]([O-:5])[N+:6]([H:11])([H:12])[H:13])[H:10])([H:7])([H:8])[H:9]"
C        1.83258654       0.87262376      -0.03619302
O        0.61393651       0.50356108       0.56354121
C        0.16870913      -0.76647302       0.14433123
C       -1.21162591      -0.98452088       0.51747484
O       -1.82693990      -2.02722350       0.55481764
N       -1.83712809       0.16857669      -0.25158774
H        1.77001520       0.88305314      -1.13109259
H        2.63045466       0.17936711       0.25423955
H        2.08367953       1.87205522       0.31813696
H        0.83754772      -1.57692971       0.43014845
H       -0.72034892      -0.28018165      -1.15968534
H       -2.84122967       0.10119690      -0.31492953
H       -1.49965680       1.05489488       0.11079834
13
Frame=14 idx=003523 GeodesicLength=0.7837040771899872 rxn_smarts="[C:1]([O:2][C:3]([C:4](=[O:5])[N:6]([H:12])[H:13])([H:10])[H:11])([H:7])([H:8])[H:9]>>[C:1]([O:2][C:3](=[C:4]([O-:5])[N+:6]([H:11])([H:12])[H:13])[H:10])([H:7])([H:8])[H:9]"
C        1.83533517       0.87286883      -0.03218710
O        0.60733430       0.50987674       0.55197741
C        0.16445010      -0.76129132       0.13317475
C       -1.21232855      -0.98267881       0.52401452
O       -1.82029528      -2.03152285       0.54879161
N       -1.84505547       0.16368087      -0.24521863
H        1.79160346       0.87163800      -1.12798227
H        2.62766918       0.18231329       0.27907721
H        2.08086948       1.87602318       0.31538390
H        0.83530382      -1.56966404       0.42036510
H       -0.72675891      -0.28768949      -1.18552656
H       -2.85102450       0.10677255      -0.28058348
H       -1.48710279       1.04967305       0.09871353
13
Frame=15 idx=003523 GeodesicLength=0.8396793591848721 rxn_smarts="[C:1]([O:2][C:3]([C:4](=[O:5])[N:6]([H:12])[H:13])([H:10])[H:11])([H:7])([H:8])[H:9]>>[C:1]([O:2][C:3](=[C:4]([O-:5])[N+:6]([H:11])([H:12])[H:13])[H:10])([H:7])([H:8])[H:9]"
C        1.83803015       0.87309370      -0.02804734
O        0.60074072       0.51622184       0.54011514
C        0.16009602      -0.75606033       0.12169991
C       -1.21280282      -0.98082212       0.53065944
O       -1.81360335      -2.03550438       0.54321626
N       -1.85299718       0.15876266      -0.23855519
H        1.81340839       0.86001294      -1.12430374
H        2.62428793       0.18537747       0.30420657
H        2.07816413       1.87992812       0.31255752
H        0.83306937      -1.56239290       0.40988254
H       -0.73324856      -0.29519860      -1.21169395
H       -2.85996028       0.11245822      -0.24591702
H       -1.47518452       1.04412337       0.08617985
13
Frame=16 idx=003523 GeodesicLength=0.8956400156748046 rxn_smarts="[C:1]([O:2][C:3]([C:4](=[O:5])[N:6]([H:12])[H:13])([H:10])[H:11])([H:7])([H:8])[H:9]>>[C:1]([O:2][C:3](=[C:4]([O-:5])[N+:6]([H:11])([H:12])[H:13])[H:10])([H:7])([H:8])[H:9]"
C        1.84064816       0.87327699      -0.02376860
O        0.59414353       0.52260280       0.52791025
C        0.15564693      -0.75076035       0.10989136
C       -1.21300731      -0.97893309       0.53739988
O       -1.80681018      -2.03915008       0.53807232
N       -1.86094392       0.15383079      -0.23157084
H        1.83542698       0.84811861      -1.12001807
H        2.62025826       0.18856343       0.32967621
H        2.07553709       1.88373802       0.30962751
H        0.83085530      -1.55508377       0.39868193
H       -0.73983091      -0.30269433      -1.23820107
H       -2.86801551       0.11825722      -0.21092461
H       -1.46390843       1.03823377       0.07322372
