18
Frame=0 idx=008965 GeodesicLength=0.0 rxn_smarts="[C:1]([C:2]([N:3]1[C:4]([H:13])([H:14])[C@:5]1([C:6]([O:7][H:18])([H:16])[H:17])[H:15])([H:11])[H:12])([H:8])([H:9])[H:10]>>[C-:2]([N+:3]1=[C:5]([C:6]([O:7][H:18])([H:16])[H:17])[C:4]1([H:13])[H:14])([H:11])[H:12].[C:1]([H:8])([H:9])([H:10])[H:15]"
C       -1.78132386       0.58937484      -1.20814826
C       -1.37807275      -0.76530271       0.85784529
N       -0.11466170      -0.41144725       0.94351047
C        0.44370701       0.89842963       1.19436977
C        0.67841004       0.13095068      -0.06107240
C        1.95625996      -0.42762161      -0.58235899
O        2.93490444      -0.71129965       0.40426629
H       -2.62058489       0.96759612      -0.62727947
H       -2.11338485      -0.27441910      -1.78502372
H       -1.50115286       1.37591548      -1.91482256
H       -2.06662111      -0.43222591       1.62542988
H       -1.62350720      -1.64782387       0.28181708
H       -0.25094132       1.73659021       1.13454272
H        1.17569049       0.93652953       1.99384819
H       -0.45984674       0.42823464      -0.81700575
H        1.73736195      -1.32061113      -1.18097495
H        2.40615841       0.30847453      -1.24980461
H        2.57760498      -1.38134449       0.99086095
18
Frame=1 idx=008965 GeodesicLength=0.07637119473553229 rxn_smarts="[C:1]([C:2]([N:3]1[C:4]([H:13])([H:14])[C@:5]1([C:6]([O:7][H:18])([H:16])[H:17])[H:15])([H:11])[H:12])([H:8])([H:9])[H:10]>>[C-:2]([N+:3]1=[C:5]([C:6]([O:7][H:18])([H:16])[H:17])[C:4]1([H:13])[H:14])([H:11])[H:12].[C:1]([H:8])([H:9])([H:10])[H:15]"
C       -1.79479304       0.56558484      -1.21344655
C       -1.37770103      -0.74251539       0.85303550
N       -0.10780673      -0.39967263       0.93861543
C        0.46078256       0.90179216       1.21073026
C        0.68779028       0.15433263      -0.05739003
C        1.96030871      -0.41382813      -0.58293943
O        2.91970007      -0.74772781       0.40662413
H       -2.65655994       0.93133237      -0.65739903
H       -2.09842853      -0.30936579      -1.78964445
H       -1.53357244       1.35277162      -1.92660574
H       -2.05643894      -0.39988063       1.62576405
H       -1.62186377      -1.64269858       0.30433823
H       -0.22513028       1.74778776       1.16800960
H        1.19362277       0.91808273       2.01045317
H       -0.44881421       0.45320056      -0.83324155
H        1.73055183      -1.28394862      -1.21053482
H        2.43376894       0.33220572      -1.22251221
H        2.53458374      -1.41745280       0.97614344
18
Frame=2 idx=008965 GeodesicLength=0.1523725422399077 rxn_smarts="[C:1]([C:2]([N:3]1[C:4]([H:13])([H:14])[C@:5]1([C:6]([O:7][H:18])([H:16])[H:17])[H:15])([H:11])[H:12])([H:8])([H:9])[H:10]>>[C-:2]([N+:3]1=[C:5]([C:6]([O:7][H:18])([H:16])[H:17])[C:4]1([H:13])[H:14])([H:11])[H:12].[C:1]([H:8])([H:9])([H:10])[H:15]"
C       -1.80697960       0.54096267      -1.21912629
C       -1.37777339      -0.71910065       0.84868412
N       -0.10136988      -0.38766919       0.93409187
C        0.47814177       0.90441030       1.22819715
C        0.69675333       0.17823131      -0.05300154
C        1.96357555      -0.39945778      -0.58367075
O        2.90300436      -0.78365968       0.40650996
H       -2.69127948       0.89245308      -0.68901158
H       -2.08101622      -0.34495926      -1.79388796
H       -1.56434143       1.32777273      -1.93918545
H       -2.04696165      -0.36544283       1.62540476
H       -1.62132154      -1.63633956       0.32854304
H       -0.19852050       1.75819007       1.20369968
H        1.21180918       0.89784476       2.02758371
H       -0.43821118       0.47924673      -0.84880517
H        1.72334662      -1.24543693      -1.23977721
H        2.46038997       0.35515024      -1.19489729
H        2.49075409      -1.45219604       0.95864897
18
Frame=3 idx=008965 GeodesicLength=0.22797036259000594 rxn_smarts="[C:1]([C:2]([N:3]1[C:4]([H:13])([H:14])[C@:5]1([C:6]([O:7][H:18])([H:16])[H:17])[H:15])([H:11])[H:12])([H:8])([H:9])[H:10]>>[C-:2]([N+:3]1=[C:5]([C:6]([O:7][H:18])([H:16])[H:17])[C:4]1([H:13])[H:14])([H:11])[H:12].[C:1]([H:8])([H:9])([H:10])[H:15]"
C       -1.81789078       0.51551184      -1.22514610
C       -1.37829272      -0.69507331       0.84477049
N       -0.09536899      -0.37545274       0.92992404
C        0.49574343       0.90621671       1.24669584
C        0.70529077       0.20261445      -0.04790856
C        1.96604772      -0.38450479      -0.58456380
O        2.88482425      -0.81898908       0.40394174
H       -2.72438791       0.85107786      -0.72191962
H       -2.06120934      -0.38116613      -1.79757208
H       -1.59337403       1.30085950      -1.95258620
H       -2.03817886      -0.32888084       1.62428758
H       -1.62193932      -1.62866878       0.35441709
H       -0.17114722       1.76764759       1.24151341
H        1.23017233       0.87578803       2.04511053
H       -0.42807837       0.50625857      -0.86373702
H        1.71570816      -1.20509228      -1.26863987
H        2.48595230       0.37732021      -1.16703887
H        2.44612859      -1.48546682       0.93845141
18
Frame=4 idx=008965 GeodesicLength=0.3031568602897426 rxn_smarts="[C:1]([C:2]([N:3]1[C:4]([H:13])([H:14])[C@:5]1([C:6]([O:7][H:18])([H:16])[H:17])[H:15])([H:11])[H:12])([H:8])([H:9])[H:10]>>[C-:2]([N+:3]1=[C:5]([C:6]([O:7][H:18])([H:16])[H:17])[C:4]1([H:13])[H:14])([H:11])[H:12].[C:1]([H:8])([H:9])([H:10])[H:15]"
C       -1.82752164       0.48922675      -1.23145430
C       -1.37926102      -0.67043062       0.84127680
N       -0.08982218      -0.36302946       0.92609705
C        0.51355537       0.90715029       1.26614851
C        0.71339698       0.22744928      -0.04211322
C        1.96772462      -0.36895264      -0.58560606
O        2.86514681      -0.85364557       0.39891955
H       -2.75563441       0.80726077      -0.75594470
H       -2.03907953      -0.41794794      -1.80050230
H       -1.62058023       1.27198079      -1.96679869
H       -2.03007305      -0.29014460       1.62233084
H       -1.62377780      -1.61959097       0.38195428
H       -0.14303229       1.77602235       1.28133219
H        1.24864503       0.85188370       2.06290141
H       -0.41844290       0.53411358      -0.87808692
H        1.70763663      -1.16288795      -1.29705721
H        2.51043665       0.39870918      -1.13896402
H        2.40068295      -1.51716693       0.91556679
18
Frame=5 idx=008965 GeodesicLength=0.37793045441532985 rxn_smarts="[C:1]([C:2]([N:3]1[C:4]([H:13])([H:14])[C@:5]1([C:6]([O:7][H:18])([H:16])[H:17])[H:15])([H:11])[H:12])([H:8])([H:9])[H:10]>>[C-:2]([N+:3]1=[C:5]([C:6]([O:7][H:18])([H:16])[H:17])[C:4]1([H:13])[H:14])([H:11])[H:12].[C:1]([H:8])([H:9])([H:10])[H:15]"
C       -1.83589090       0.46210584      -1.23797544
C       -1.38068989      -0.64518994       0.83816527
N       -0.08474811      -0.35042434       0.92257740
C        0.53151559       0.90714651       1.28644559
C        0.72106442       0.25269234      -0.03563068
C        1.96862042      -0.35279126      -0.58679211
O        2.84396735      -0.88752830       0.39146972
H       -2.78474638       0.76118948      -0.79082738
H       -2.01475013      -0.45524436      -1.80245259
H       -1.64586439       1.24108970      -1.98179541
H       -2.02261570      -0.24923059       1.61945568
H       -1.62690212      -1.60901914       0.41110796
H       -0.11423221       1.78315250       1.32301241
H        1.26712305       0.82612673       2.08079894
H       -0.40933344       0.56263734      -0.89194377
H        1.69921617      -1.11884294      -1.32493956
H        2.53384987       0.41929810      -1.11072845
H        2.35441641      -1.54716767       0.89005240
18
Frame=6 idx=008965 GeodesicLength=0.4522925299955774 rxn_smarts="[C:1]([C:2]([N:3]1[C:4]([H:13])([H:14])[C@:5]1([C:6]([O:7][H:18])([H:16])[H:17])[H:15])([H:11])[H:12])([H:8])([H:9])[H:10]>>[C-:2]([N+:3]1=[C:5]([C:6]([O:7][H:18])([H:16])[H:17])[C:4]1([H:13])[H:14])([H:11])[H:12].[C:1]([H:8])([H:9])([H:10])[H:15]"
C       -1.84302200       0.43419232      -1.24462937
C       -1.38257223      -0.61937906       0.83538324
N       -0.08015744      -0.33766742       0.91934354
C        0.54957379       0.90614413       1.30746740
C        0.72829756       0.27827578      -0.02848163
C        1.96876214      -0.33603884      -0.58808540
O        2.82132487      -0.92049564       0.38162851
H       -2.81151422       0.71300350      -0.82630974
H       -1.98844905      -0.49294050      -1.80325874
H       -1.66914901       1.20821051      -1.99748509
H       -2.01575435      -0.20616702       1.61555664
H       -1.63134970      -1.59686883       0.44180251
H       -0.08480739       1.78888647       1.36636365
H        1.28550400       0.79852710       2.09863801
H       -0.40074509       0.59161887      -0.90541005
H        1.69049994      -1.07301893      -1.35218961
H        2.55618712       0.43905062      -1.08238210
H        2.30737105      -1.57533304       0.86204825
18
Frame=7 idx=008965 GeodesicLength=0.5262500427408644 rxn_smarts="[C:1]([C:2]([N:3]1[C:4]([H:13])([H:14])[C@:5]1([C:6]([O:7][H:18])([H:16])[H:17])[H:15])([H:11])[H:12])([H:8])([H:9])[H:10]>>[C-:2]([N+:3]1=[C:5]([C:6]([O:7][H:18])([H:16])[H:17])[C:4]1([H:13])[H:14])([H:11])[H:12].[C:1]([H:8])([H:9])([H:10])[H:15]"
C       -1.84896537       0.40551978      -1.25131859
C       -1.38491068      -0.59303692       0.83286757
N       -0.07605992      -0.32479586       0.91635437
C        0.56765685       0.90408532       1.32907051
C        0.73509850       0.30413207      -0.02069796
C        1.96819695      -0.31871580      -0.58945261
O        2.79725769      -0.95241374       0.36945546
H       -2.83574782       0.66293456      -0.86206950
H       -1.96041870      -0.53092713      -1.80272337
H       -1.69036893       1.17337690      -2.01374818
H       -2.00943264      -0.16101587       1.61052881
H       -1.63716223      -1.58305437       0.47392620
H       -0.05485497       1.79307005       1.41117159
H        1.30365848       0.76912054       2.11624624
H       -0.39267030       0.62081489      -0.91862370
H        1.68163423      -1.02549544      -1.37869445
H        2.57749286       0.45791469      -1.05397378
H        2.25959600      -1.60151369       0.83168140
18
Frame=8 idx=008965 GeodesicLength=0.5998211513772369 rxn_smarts="[C:1]([C:2]([N:3]1[C:4]([H:13])([H:14])[C@:5]1([C:6]([O:7][H:18])([H:16])[H:17])[H:15])([H:11])[H:12])([H:8])([H:9])[H:10]>>[C-:2]([N+:3]1=[C:5]([C:6]([O:7][H:18])([H:16])[H:17])[C:4]1([H:13])[H:14])([H:11])[H:12].[C:1]([H:8])([H:9])([H:10])[H:15]"
C       -1.85376908       0.37614413      -1.25792996
C       -1.38770504      -0.56620057       0.83054051
N       -0.07245994      -0.31185102       0.91356471
C        0.58569852       0.90092266       1.35110424
C        0.74147580       0.33017458      -0.01232106
C        1.96698774      -0.30085603      -0.59084175
O        2.77183512      -0.98313625       0.35500299
H       -2.85740353       0.61114955      -0.89780203
H       -1.93097128      -0.56905992      -1.80068837
H       -1.70947979       1.13666822      -2.03042482
H       -2.00357005      -0.11385251       1.60425280
H       -1.64438003      -1.56748609       0.50733282
H       -0.02444565       1.79556438       1.45721416
H        1.32146916       0.73795077       2.13344555
H       -0.38506744       0.64997824      -0.93173830
H        1.67279257      -0.97637954      -1.40431315
H        2.59782367       0.47582697      -1.02551549
H        2.21116924      -1.62555759       0.79911714
18
Frame=9 idx=008965 GeodesicLength=0.6732230421325638 rxn_smarts="[C:1]([C:2]([N:3]1[C:4]([H:13])([H:14])[C@:5]1([C:6]([O:7][H:18])([H:16])[H:17])[H:15])([H:11])[H:12])([H:8])([H:9])[H:10]>>[C-:2]([N+:3]1=[C:5]([C:6]([O:7][H:18])([H:16])[H:17])[C:4]1([H:13])[H:14])([H:11])[H:12].[C:1]([H:8])([H:9])([H:10])[H:15]"
C       -1.85755154       0.34620682      -1.26434627
C       -1.39090409      -0.53882839       0.82830607
N       -0.06930731      -0.29886010       0.91091347
C        0.60373776       0.89659099       1.37345523
C        0.74748817       0.35634713      -0.00343073
C        1.96518929      -0.28256219      -0.59226503
O        2.74518375      -1.01245899       0.33847012
H       -2.87688117       0.55741121      -0.93344143
H       -1.90039906      -0.60706406      -1.79720540
H       -1.72671915       1.09831399      -2.04723377
H       -1.99796215      -0.06476976       1.59657572
H       -1.65287633      -1.55000382       0.54169142
H        0.00651607       1.79632439       1.50450624
H        1.33884107       0.70499997       2.15016022
H       -0.37782119       0.67897249      -0.94490512
H        1.66398412      -0.92598439      -1.42898019
H        2.61730690       0.49267937      -0.99720831
H        2.16217485      -1.64731465       0.76493776
18
Frame=10 idx=008965 GeodesicLength=0.7463094807585948 rxn_smarts="[C:1]([C:2]([N:3]1[C:4]([H:13])([H:14])[C@:5]1([C:6]([O:7][H:18])([H:16])[H:17])[H:15])([H:11])[H:12])([H:8])([H:9])[H:10]>>[C-:2]([N+:3]1=[C:5]([C:6]([O:7][H:18])([H:16])[H:17])[C:4]1([H:13])[H:14])([H:11])[H:12].[C:1]([H:8])([H:9])([H:10])[H:15]"
C       -1.86036708       0.31565918      -1.27047964
C       -1.39451411      -0.51102565       0.82612074
N       -0.06663470      -0.28587210       0.90837231
C        0.62159872       0.89109623       1.39594520
C        0.75312344       0.38255730       0.00597555
C        1.96289133      -0.26379498      -0.59363234
O        2.71730351      -1.04040064       0.31993315
H       -2.89372775       0.50240854      -0.96847295
H       -1.86891072      -0.64503388      -1.79200709
H       -1.74190178       1.05825711      -2.06415298
H       -1.99256964      -0.01389828       1.58746211
H       -1.66275448      -1.53063016       0.57706195
H        0.03772101       1.79516424       1.55258476
H        1.35564325       0.67043001       2.16615136
H       -0.37091332       0.70750077      -0.95827894
H        1.65545413      -0.87418482      -1.45261215
H        2.63591299       0.50856482      -0.96885913
H        2.11264519      -1.66679768       0.72888808
18
Frame=11 idx=008965 GeodesicLength=0.8191262159367 rxn_smarts="[C:1]([C:2]([N:3]1[C:4]([H:13])([H:14])[C@:5]1([C:6]([O:7][H:18])([H:16])[H:17])[H:15])([H:11])[H:12])([H:8])([H:9])[H:10]>>[C-:2]([N+:3]1=[C:5]([C:6]([O:7][H:18])([H:16])[H:17])[C:4]1([H:13])[H:14])([H:11])[H:12].[C:1]([H:8])([H:9])([H:10])[H:15]"
C       -1.86231973       0.28457641      -1.27623077
C       -1.39849852      -0.48284290       0.82390457
N       -0.06441792      -0.27293613       0.90588916
C        0.63920442       0.88442242       1.41842721
C        0.75841920       0.40872959       0.01585678
C        1.96017416      -0.24460825      -0.59490305
O        2.68829687      -1.06684825       0.29955304
H       -2.90803752       0.44637081      -1.00260535
H       -1.83676087      -0.68284855      -1.78504445
H       -1.75510902       1.01666695      -2.08099538
H       -1.98725272       0.03859144       1.57683530
H       -1.67396630      -1.50931740       0.61326003
H        0.06902261       1.79196937       1.60121768
H        1.37175446       0.63435229       2.18127429
H       -0.36425176       0.73538315      -0.97201619
H        1.64735238      -0.82116769      -1.47511361
H        2.65369718       0.52343703      -0.94051304
H        2.06269310      -1.68393028       0.69120377
18
Frame=12 idx=008965 GeodesicLength=0.8917264405793435 rxn_smarts="[C:1]([C:2]([N:3]1[C:4]([H:13])([H:14])[C@:5]1([C:6]([O:7][H:18])([H:16])[H:17])[H:15])([H:11])[H:12])([H:8])([H:9])[H:10]>>[C-:2]([N+:3]1=[C:5]([C:6]([O:7][H:18])([H:16])[H:17])[C:4]1([H:13])[H:14])([H:11])[H:12].[C:1]([H:8])([H:9])([H:10])[H:15]"
C       -1.86350621       0.25300519      -1.28149781
C       -1.40283524      -0.45430050       0.82158635
N       -0.06264188      -0.26009639       0.90341861
C        0.65649426       0.87655115       1.44077822
C        0.76340164       0.43478718       0.02617717
C        1.95712465      -0.22505055      -0.59603545
O        2.65826129      -1.09171913       0.27744956
H       -2.91993877       0.38944929      -1.03560888
H       -1.80420107      -0.72042997      -1.77626396
H       -1.76641810       0.97365808      -2.09758815
H       -1.98186684       0.09257483       1.56460049
H       -1.68648653      -1.48597850       0.65011842
H        0.10030434       1.78666039       1.65020601
H        1.38707852       0.59683863       2.19541314
H       -0.35773884       0.76247886      -0.98624134
H        1.63983899      -0.76705164      -1.49639737
H        2.67071809       0.53727913      -0.91215442
H        2.01241172      -1.69865607       0.65203941
18
Frame=13 idx=008965 GeodesicLength=0.9641807008417453 rxn_smarts="[C:1]([C:2]([N:3]1[C:4]([H:13])([H:14])[C@:5]1([C:6]([O:7][H:18])([H:16])[H:17])[H:15])([H:11])[H:12])([H:8])([H:9])[H:10]>>[C-:2]([N+:3]1=[C:5]([C:6]([O:7][H:18])([H:16])[H:17])[C:4]1([H:13])[H:14])([H:11])[H:12].[C:1]([H:8])([H:9])([H:10])[H:15]"
C       -1.86403544       0.22108052      -1.28620018
C       -1.40747634      -0.42540939       0.81908494
N       -0.06127115      -0.24739617       0.90091942
C        0.67344490       0.86746690       1.46289295
C        0.76811410       0.46066623       0.03688400
C        1.95379762      -0.20521187      -0.59703120
O        2.62736598      -1.11486515       0.25382001
H       -2.92974252       0.33154499      -1.06739568
H       -1.77141674      -0.75756422      -1.76576053
H       -1.77605753       0.92948807      -2.11370612
H       -1.97622630       0.14788061       1.55067696
H       -1.70021009      -1.46053923       0.68736651
H        0.13152330       1.77918823       1.69950696
H        1.40152027       0.55795863       2.20849585
H       -0.35126326       0.78874000      -1.00104150
H        1.63293434      -0.71215326      -1.51641646
H        2.68703996       0.55002871      -0.88394957
H        1.96195889      -1.71090359       0.61185366
18
Frame=14 idx=008965 GeodesicLength=1.0364379388762202 rxn_smarts="[C:1]([C:2]([N:3]1[C:4]([H:13])([H:14])[C@:5]1([C:6]([O:7][H:18])([H:16])[H:17])[H:15])([H:11])[H:12])([H:8])([H:9])[H:10]>>[C-:2]([N+:3]1=[C:5]([C:6]([O:7][H:18])([H:16])[H:17])[C:4]1([H:13])[H:14])([H:11])[H:12].[C:1]([H:8])([H:9])([H:10])[H:15]"
C       -1.86402643       0.18884805      -1.29023527
C       -1.41238612      -0.39629728       0.81632540
N       -0.06028455      -0.23491271       0.89833698
C        0.68990131       0.85720749       1.48459953
C        0.77258648       0.48626070       0.04794668
C        1.95030086      -0.18514149      -0.59782375
O        2.59574871      -1.13623976       0.22885052
H       -2.93737949       0.27326041      -1.09751445
H       -1.73872465      -0.79422532      -1.75346305
H       -1.78402926       0.88430364      -2.12921062
H       -1.97022016       0.20419981       1.53505896
H       -1.71511091      -1.43305306       0.72486276
H        0.16233337       1.76944554       1.74868464
H        1.41494611       0.51794954       2.22036944
H       -0.34472057       0.81398700      -1.01657001
H        1.62687930      -0.65662448      -1.53507166
H        2.70264979       0.56170633      -0.85585736
H        1.91153622      -1.72067441       0.57071124
18
Frame=15 idx=008965 GeodesicLength=1.108620468504892 rxn_smarts="[C:1]([C:2]([N:3]1[C:4]([H:13])([H:14])[C@:5]1([C:6]([O:7][H:18])([H:16])[H:17])[H:15])([H:11])[H:12])([H:8])([H:9])[H:10]>>[C-:2]([N+:3]1=[C:5]([C:6]([O:7][H:18])([H:16])[H:17])[C:4]1([H:13])[H:14])([H:11])[H:12].[C:1]([H:8])([H:9])([H:10])[H:15]"
C       -1.86353700       0.15628849      -1.29353975
C       -1.41754510      -0.36691316       0.81327422
N       -0.05967259      -0.22266196       0.89563959
C        0.70583940       0.84576796       1.50585170
C        0.77684332       0.51153954       0.05935877
C        1.94669999      -0.16485091      -0.59837988
O        2.56344622      -1.15586606       0.20258074
H       -2.94310047       0.21450905      -1.12592735
H       -1.70616588      -0.83042937      -1.73932268
H       -1.79045680       0.83813006      -2.14398491
H       -1.96370229       0.26150721       1.51765191
H       -1.73116120      -1.40338015       0.76253767
H        0.19267531       1.75742456       1.79767935
H        1.42733127       0.47682521       2.23098132
H       -0.33803296       0.83824420      -1.03285503
H        1.62177039      -0.60045148      -1.55235932
H        2.71764138       0.57232655      -0.82777680
H        1.86112700      -1.72800976       0.52859045
18
Frame=16 idx=008965 GeodesicLength=1.1807495214544141 rxn_smarts="[C:1]([C:2]([N:3]1[C:4]([H:13])([H:14])[C@:5]1([C:6]([O:7][H:18])([H:16])[H:17])[H:15])([H:11])[H:12])([H:8])([H:9])[H:10]>>[C-:2]([N+:3]1=[C:5]([C:6]([O:7][H:18])([H:16])[H:17])[C:4]1([H:13])[H:14])([H:11])[H:12].[C:1]([H:8])([H:9])([H:10])[H:15]"
C       -1.86268073       0.12350161      -1.29603684
C       -1.42290695      -0.33732645       0.80986254
N       -0.05940116      -0.21070065       0.89278787
C        0.72118130       0.83318179       1.52654038
C        0.78091751       0.53642824       0.07108031
C        1.94307389      -0.14441163      -0.59868223
O        2.53063353      -1.17366893       0.17520407
H       -2.94709288       0.15547951      -1.15244348
H       -1.67396981      -0.86605604      -1.72340840
H       -1.79549983       0.79117197      -2.15786621
H       -1.95652202       0.31952572       1.49845472
H       -1.74825387      -1.37153055       0.80016656
H        0.22235875       1.74310739       1.84628856
H        1.43858170       0.43474729       2.24026929
H       -0.33109662       0.86147160      -1.04996186
H        1.61771333      -0.54387644      -1.56825666
H        2.73205270       0.58188378      -0.79977908
H        1.81091118      -1.73292822       0.48578045
