11
Frame=0 idx=000152 GeodesicLength=0.0 rxn_smarts="[C:1]([N:2]1[C:3]([H:8])([H:9])[C:4]1([H:10])[H:11])([H:5])([H:6])[H:7]>>[C:1]([N+:2]1([H:11])[C:3]([H:8])([H:9])[C-:4]1[H:10])([H:5])([H:6])[H:7]"
C        1.27786896       0.17000027       0.09879534
N       -0.05501403       0.67412083      -0.17626272
C       -1.18550480       0.05533500       0.49643676
C       -1.12979915      -0.48768822      -0.88144747
H        1.25725720      -0.85817562       0.47533893
H        1.75772880       0.81273541       0.83954531
H        1.87272871       0.19245516      -0.81463989
H       -0.86583730      -0.58068690       1.31796505
H       -1.97867789       0.74374862       0.77491455
H       -0.51903317      -1.39876391      -0.88947813
H       -0.43171733       0.67691940      -1.24116774
11
Frame=1 idx=000152 GeodesicLength=0.05667379629690424 rxn_smarts="[C:1]([N:2]1[C:3]([H:8])([H:9])[C:4]1([H:10])[H:11])([H:5])([H:6])[H:7]>>[C:1]([N+:2]1([H:11])[C:3]([H:8])([H:9])[C-:4]1[H:10])([H:5])([H:6])[H:7]"
C        1.27869948       0.16795404       0.09913543
N       -0.05538825       0.66475696      -0.18088381
C       -1.18493630       0.05408124       0.50025559
C       -1.12112698      -0.48467045      -0.87895463
H        1.25983612      -0.85964175       0.47738000
H        1.75315400       0.81327345       0.84113780
H        1.87699542       0.19087094      -0.81205242
H       -0.86632495      -0.58105640       1.32299398
H       -1.97644405       0.74571448       0.77516290
H       -0.51949533      -1.40126548      -0.89052519
H       -0.44496915       0.68998298      -1.25364965
11
Frame=2 idx=000152 GeodesicLength=0.1133606215770351 rxn_smarts="[C:1]([N:2]1[C:3]([H:8])([H:9])[C:4]1([H:10])[H:11])([H:5])([H:6])[H:7]>>[C:1]([N+:2]1([H:11])[C:3]([H:8])([H:9])[C-:4]1[H:10])([H:5])([H:6])[H:7]"
C        1.27955128       0.16594964       0.09954664
N       -0.05567709       0.65548176      -0.18556723
C       -1.18424769       0.05287689       0.50397711
C       -1.11253796      -0.48166553      -0.87653441
H        1.26240958      -0.86108693       0.47942088
H        1.74855527       0.81384004       0.84279045
H        1.88132417       0.18932715      -0.80935223
H       -0.86675506      -0.58141226       1.32792007
H       -1.97404849       0.74771509       0.77539332
H       -0.52009526      -1.40369201      -0.89170975
H       -0.45847877       0.70266616      -1.26588486
11
Frame=3 idx=000152 GeodesicLength=0.17002897683680135 rxn_smarts="[C:1]([N:2]1[C:3]([H:8])([H:9])[C:4]1([H:10])[H:11])([H:5])([H:6])[H:7]>>[C:1]([N+:2]1([H:11])[C:3]([H:8])([H:9])[C-:4]1[H:10])([H:5])([H:6])[H:7]"
C        1.28042361       0.16398606       0.10002562
N       -0.05587885       0.64630013      -0.19029336
C       -1.18344282       0.05172113       0.50759917
C       -1.10403177      -0.47867506      -0.87417652
H        1.26497322      -0.86250842       0.48145345
H        1.74394291       0.81442260       0.84449695
H        1.88571222       0.18782918      -0.80653620
H       -0.86713728      -0.58174925       1.33273789
H       -1.97149406       0.74974483       0.77560026
H       -0.52082440      -1.40602978      -0.89302398
H       -0.47224279       0.71495858      -1.27788326
11
Frame=4 idx=000152 GeodesicLength=0.22669828882740048 rxn_smarts="[C:1]([N:2]1[C:3]([H:8])([H:9])[C:4]1([H:10])[H:11])([H:5])([H:6])[H:7]>>[C:1]([N+:2]1([H:11])[C:3]([H:8])([H:9])[C-:4]1[H:10])([H:5])([H:6])[H:7]"
C        1.28131649       0.16206125       0.10057197
N       -0.05599545       0.63722398      -0.19503878
C       -1.18252730       0.05061836       0.51112823
C       -1.09560407      -0.47569732      -0.87188333
H        1.26752862      -0.86391356       0.48347933
H        1.73932941       0.81501324       0.84625952
H        1.89015088       0.18637744      -0.80361535
H       -0.86747808      -0.58206951       1.33745824
H       -1.96879721       0.75180572       0.77578770
H       -0.52166635      -1.40827591      -0.89446955
H       -0.48625696       0.72685631      -1.28967799
11
Frame=5 idx=000152 GeodesicLength=0.2833637965185931 rxn_smarts="[C:1]([N:2]1[C:3]([H:8])([H:9])[C:4]1([H:10])[H:11])([H:5])([H:6])[H:7]>>[C:1]([N+:2]1([H:11])[C:3]([H:8])([H:9])[C-:4]1[H:10])([H:5])([H:6])[H:7]"
C        1.28222997       0.16017412       0.10118433
N       -0.05602663       0.62826165      -0.19978036
C       -1.18150616       0.04957066       0.51456768
C       -1.08725071      -0.47272872      -0.86965046
H        1.27007339      -0.86530354       0.48549652
H        1.73472925       0.81560222       0.84807521
H        1.89463120       0.18497412      -0.80059543
H       -0.86778558      -0.58237354       1.34208282
H       -1.96597008       0.75389345       0.77595454
H       -0.52261005      -1.41042095      -0.89604247
H       -0.50051459       0.73835053      -1.30129238
11
Frame=6 idx=000152 GeodesicLength=0.34001973534109586 rxn_smarts="[C:1]([N:2]1[C:3]([H:8])([H:9])[C:4]1([H:10])[H:11])([H:5])([H:6])[H:7]>>[C:1]([N+:2]1([H:11])[C:3]([H:8])([H:9])[C-:4]1[H:10])([H:5])([H:6])[H:7]"
C        1.28316472       0.15832341       0.10186167
N       -0.05597274       0.61942213      -0.20449638
C       -1.18038494       0.04858011       0.51792172
C       -1.07896669      -0.46976464      -0.86747447
H        1.27260628      -0.86668090       0.48750361
H        1.73015683       0.81618071       0.84994301
H        1.89914479       0.18362106      -0.79748317
H       -0.86806744      -0.58266257       1.34661480
H       -1.96302544       0.75600509       0.77610074
H       -0.52364471      -1.41245665      -0.89774035
H       -0.51501067       0.74943226      -1.31275119
11
Frame=7 idx=000152 GeodesicLength=0.39665261567578747 rxn_smarts="[C:1]([N:2]1[C:3]([H:8])([H:9])[C:4]1([H:10])[H:11])([H:5])([H:6])[H:7]>>[C:1]([N+:2]1([H:11])[C:3]([H:8])([H:9])[C-:4]1[H:10])([H:5])([H:6])[H:7]"
C        1.28412226       0.15650830       0.10260386
N       -0.05583419       0.61071772      -0.20916836
C       -1.17916917       0.04764904       0.52119547
C       -1.07074669      -0.46680042      -0.86535481
H        1.27512731      -0.86805207       0.48950149
H        1.72562745       0.81674292       0.85186693
H        1.90368330       0.18232036      -0.79428765
H       -0.86833002      -0.58293980       1.35106138
H       -1.95997594       0.75814148       0.77622772
H       -0.52476081      -1.41438016      -0.89956572
H       -0.52974348       0.76009261      -1.32408030
11
Frame=8 idx=000152 GeodesicLength=0.4533259834292541 rxn_smarts="[C:1]([N:2]1[C:3]([H:8])([H:9])[C:4]1([H:10])[H:11])([H:5])([H:6])[H:7]>>[C:1]([N+:2]1([H:11])[C:3]([H:8])([H:9])[C-:4]1[H:10])([H:5])([H:6])[H:7]"
C        1.28510252       0.15472230       0.10340690
N       -0.05560508       0.60213042      -0.21376339
C       -1.17786456       0.04677522       0.52439055
C       -1.06258336      -0.46383010      -0.86327312
H        1.27763062      -0.86940293       0.49147852
H        1.72114750       0.81726643       0.85382245
H        1.90824212       0.18107000      -0.79100414
H       -0.86858622      -0.58319711       1.35540907
H       -1.95683484       0.76027908       0.77632668
H       -0.52594212      -1.41616189      -0.90148472
H       -0.54470658       0.77034858      -1.33530882
11
Frame=9 idx=000152 GeodesicLength=0.5099771936279128 rxn_smarts="[C:1]([N:2]1[C:3]([H:8])([H:9])[C:4]1([H:10])[H:11])([H:5])([H:6])[H:7]>>[C:1]([N+:2]1([H:11])[C:3]([H:8])([H:9])[C-:4]1[H:10])([H:5])([H:6])[H:7]"
C        1.28610964       0.15296695       0.10427388
N       -0.05528987       0.59368769      -0.21827972
C       -1.17647514       0.04596262       0.52751380
C       -1.05447379      -0.46085236      -0.86124239
H        1.28012291      -0.87075459       0.49344581
H        1.71673386       0.81775690       0.85583596
H        1.91281624       0.17987250      -0.78764846
H       -0.86883552      -0.58344365       1.35967972
H       -1.95361034       0.76243827       0.77640503
H       -0.52718282      -1.41782092      -0.90352422
H       -0.55991517       0.78018659      -1.34645940
11
Frame=10 idx=000152 GeodesicLength=0.5665180470672396 rxn_smarts="[C:1]([N:2]1[C:3]([H:8])([H:9])[C:4]1([H:10])[H:11])([H:5])([H:6])[H:7]>>[C:1]([N+:2]1([H:11])[C:3]([H:8])([H:9])[C-:4]1[H:10])([H:5])([H:6])[H:7]"
C        1.28714112       0.15124082       0.10519894
N       -0.05489072       0.58539005      -0.22270667
C       -1.17500722       0.04521171       0.53056406
C       -1.04641042      -0.45786764      -0.85925270
H        1.28260003      -0.87210256       0.49539411
H        1.71238959       0.81820616       0.85789827
H        1.91739758       0.17872816      -0.78422452
H       -0.86908620      -0.58367525       1.36386845
H       -1.95030913       0.76461197       0.77645832
H       -0.52847676      -1.41934646      -0.90567538
H       -0.57534786       0.78960305      -1.35752290
11
Frame=11 idx=000152 GeodesicLength=0.6230790763725575 rxn_smarts="[C:1]([N:2]1[C:3]([H:8])([H:9])[C:4]1([H:10])[H:11])([H:5])([H:6])[H:7]>>[C:1]([N+:2]1([H:11])[C:3]([H:8])([H:9])[C-:4]1[H:10])([H:5])([H:6])[H:7]"
C        1.28820541       0.14953919       0.10618938
N       -0.05439896       0.57723866      -0.22702563
C       -1.17346122       0.04452168       0.53354899
C       -1.03838647      -0.45485924      -0.85730698
H        1.28506653      -0.87345418       0.49733009
H        1.70812528       0.81860212       0.86002409
H        1.92199474       0.17763874      -0.78072694
H       -0.86934023      -0.58389565       1.36798206
H       -1.94693053       0.76680566       0.77649440
H       -0.52981332      -1.42072742      -0.90794110
H       -0.59106123       0.79859044      -1.36856836
11
Frame=12 idx=000152 GeodesicLength=0.6796724434029859 rxn_smarts="[C:1]([N:2]1[C:3]([H:8])([H:9])[C:4]1([H:10])[H:11])([H:5])([H:6])[H:7]>>[C:1]([N+:2]1([H:11])[C:3]([H:8])([H:9])[C-:4]1[H:10])([H:5])([H:6])[H:7]"
C        1.28930147       0.14785792       0.10724213
N       -0.05381418       0.56923087      -0.23122366
C       -1.17183942       0.04389385       0.53647373
C       -1.03038990      -0.45182008      -0.85539597
H        1.28752144      -0.87480971       0.49924258
H        1.70393627       0.81892757       0.86221660
H        1.92660681       0.17660843      -0.77715600
H       -0.86960241      -0.58409878       1.37202091
H       -1.94347781       0.76901796       0.77651549
H       -0.53118036      -1.42194967      -0.91031405
H       -0.60706190       0.80714164      -1.37962177
11
Frame=13 idx=000152 GeodesicLength=0.7362560128757505 rxn_smarts="[C:1]([N:2]1[C:3]([H:8])([H:9])[C:4]1([H:10])[H:11])([H:5])([H:6])[H:7]>>[C:1]([N+:2]1([H:11])[C:3]([H:8])([H:9])[C-:4]1[H:10])([H:5])([H:6])[H:7]"
C        1.29043677       0.14619678       0.10835969
N       -0.05313445       0.56137492      -0.23529691
C       -1.17014624       0.04332984       0.53933942
C       -1.02242166      -0.44875091      -0.85352208
H        1.28997100      -0.87618000       0.50113069
H        1.69983730       0.81917797       0.86449101
H        1.93123664       0.17564633      -0.77351376
H       -0.86987432      -0.58428809       1.37599203
H       -1.93995453       0.77125832       0.77651582
H       -0.53258005      -1.42302072      -0.91279715
H       -0.62337046       0.81525556      -1.39069876
11
Frame=14 idx=000152 GeodesicLength=0.7928078974510644 rxn_smarts="[C:1]([N:2]1[C:3]([H:8])([H:9])[C:4]1([H:10])[H:11])([H:5])([H:6])[H:7]>>[C:1]([N+:2]1([H:11])[C:3]([H:8])([H:9])[C-:4]1[H:10])([H:5])([H:6])[H:7]"
C        1.29160984       0.14455270       0.10954067
N       -0.05235823       0.55367215      -0.23923640
C       -1.16838315       0.04283274       0.54215001
C       -1.01446983      -0.44564389      -0.85167963
H        1.29241246      -0.87756669       0.50298263
H        1.69582460       0.81933841       0.86685422
H        1.93588117       0.17475855      -0.76980207
H       -0.87016058      -0.58445963       1.37989480
H       -1.93635949       0.77352982       0.77649639
H       -0.53400148      -1.42392804      -0.91538720
H       -0.63999532       0.82291387      -1.40181342
11
Frame=15 idx=000152 GeodesicLength=0.8493640119100003 rxn_smarts="[C:1]([N:2]1[C:3]([H:8])([H:9])[C:4]1([H:10])[H:11])([H:5])([H:6])[H:7]>>[C:1]([N+:2]1([H:11])[C:3]([H:8])([H:9])[C-:4]1[H:10])([H:5])([H:6])[H:7]"
C        1.29282932       0.14292232       0.11079075
N       -0.05147949       0.54612417      -0.24303269
C       -1.16655205       0.04240133       0.54490721
C       -1.00653003      -0.44248895      -0.84987028
H        1.29485028      -0.87897338       0.50481207
H        1.69191257       0.81941038       0.86930776
H        1.94054876       0.17393259      -0.76601535
H       -0.87046510      -0.58462183       1.38372813
H       -1.93269398       0.77583611       0.77645895
H       -0.53543781      -1.42466335      -0.91809040
H       -0.65698247       0.83012062      -1.41299614
11
Frame=16 idx=000152 GeodesicLength=0.9059199644098709 rxn_smarts="[C:1]([N:2]1[C:3]([H:8])([H:9])[C:4]1([H:10])[H:11])([H:5])([H:6])[H:7]>>[C:1]([N+:2]1([H:11])[C:3]([H:8])([H:9])[C-:4]1[H:10])([H:5])([H:6])[H:7]"
C        1.29409814       0.14130240       0.11211256
N       -0.05049435       0.53873313      -0.24668030
C       -1.16465345       0.04203671       0.54761267
C       -0.99859354      -0.43927686      -0.84809524
H        1.29728390      -0.88040229       0.50662373
H        1.68810502       0.81939077       0.87185529
H        1.94524221       0.17316376      -0.76215155
H       -0.87079217      -0.58477811       1.38749060
H       -1.92895476       0.77818067       0.77640913
H       -0.53688271      -1.42521788      -0.92091119
H       -0.67435829       0.83686768      -1.42426570
