14
Frame=0 idx=002718 GeodesicLength=0.0 rxn_smarts="[C:1]([C@@:2]([O:3][H:11])([C:4]([C:5](=[O:6])[H:14])([H:12])[H:13])[H:10])([H:7])([H:8])[H:9]>>[C:1]([C:2](=[O:3])[H:10])([C:4]([C:5](=[O:6])[H:14])([H:12])[H:13])([H:8])[H:9].[H:7][H:11]"
C       -1.32491089      -0.38810382      -0.36224507
C       -0.17646675       0.48206189      -0.36746319
O       -0.23020444       1.50475627       0.42792186
C        0.68363306      -0.77749092       0.29220106
C        2.06216590      -0.14804593       0.43755712
O        3.04862306      -0.63944661      -0.02327407
H       -2.34898716       1.21214793      -0.41375610
H       -1.50442319      -1.11259780      -1.15266782
H       -1.83215767      -0.54084068       0.58206805
H        0.25983094       0.61256010      -1.37376849
H       -1.76984652       1.66320364      -0.02625119
H        0.76948624      -1.67714236      -0.31286489
H        0.30522588      -0.99373152       1.29278606
H        2.05803151       0.80266987       0.99975668
14
Frame=1 idx=002718 GeodesicLength=0.09286218204103645 rxn_smarts="[C:1]([C@@:2]([O:3][H:11])([C:4]([C:5](=[O:6])[H:14])([H:12])[H:13])[H:10])([H:7])([H:8])[H:9]>>[C:1]([C:2](=[O:3])[H:10])([C:4]([C:5](=[O:6])[H:14])([H:12])[H:13])([H:8])[H:9].[H:7][H:11]"
C       -1.31250898      -0.38979709      -0.37071190
C       -0.17406134       0.49890940      -0.36982425
O       -0.25195171       1.52513124       0.42002612
C        0.67759093      -0.77539807       0.30320764
C        2.06512713      -0.16466229       0.43539009
O        3.03713180      -0.64302792      -0.06881503
H       -2.36638694       1.19131273      -0.40693863
H       -1.47369770      -1.10806080      -1.17080214
H       -1.82881621      -0.55143310       0.56731275
H        0.27186697       0.63301436      -1.37109464
H       -1.78579424       1.67148527      -0.02022404
H        0.75540222      -1.69679833      -0.26999802
H        0.30339110      -0.96838213       1.31055750
H        2.08270695       0.77770674       1.01191455
14
Frame=2 idx=002718 GeodesicLength=0.1857944335427385 rxn_smarts="[C:1]([C@@:2]([O:3][H:11])([C:4]([C:5](=[O:6])[H:14])([H:12])[H:13])[H:10])([H:7])([H:8])[H:9]>>[C:1]([C:2](=[O:3])[H:10])([C:4]([C:5](=[O:6])[H:14])([H:12])[H:13])([H:8])[H:9].[H:7][H:11]"
C       -1.29965993      -0.39131197      -0.37907714
C       -0.17179764       0.51625153      -0.37152142
O       -0.27496528       1.54559846       0.41239503
C        0.67168510      -0.77306617       0.31418091
C        2.06821877      -0.18180339       0.43211898
O        3.02413478      -0.64753030      -0.11389477
H       -2.38366572       1.16941673      -0.40118675
H       -1.44192052      -1.10306211      -1.18861964
H       -1.82508505      -0.56229420       0.55233777
H        0.28373198       0.65472792      -1.36754728
H       -1.80276732       1.67957477      -0.01455337
H        0.74094592      -1.71534413      -0.22594212
H        0.30229238      -0.94229867       1.32801017
H        2.10885253       0.75114153       1.02329962
14
Frame=3 idx=002718 GeodesicLength=0.27880361302495504 rxn_smarts="[C:1]([C@@:2]([O:3][H:11])([C:4]([C:5](=[O:6])[H:14])([H:12])[H:13])[H:10])([H:7])([H:8])[H:9]>>[C:1]([C:2](=[O:3])[H:10])([C:4]([C:5](=[O:6])[H:14])([H:12])[H:13])([H:8])[H:9].[H:7][H:11]"
C       -1.28634084      -0.39262066      -0.38731214
C       -0.16970135       0.53412810      -0.37247979
O       -0.29935096       1.56615707       0.40503251
C        0.66592770      -0.77048947       0.32516093
C        2.07139404      -0.19948803       0.42773925
O        3.00965614      -0.65303629      -0.15857225
H       -2.40083111       1.14641496      -0.39664612
H       -1.40902764      -1.09756820      -1.20606144
H       -1.82093911      -0.57340383       0.53715005
H        0.29542239       0.67774797      -1.36302782
H       -1.82085127       1.68746525      -0.00930260
H        0.72612259      -1.73266009      -0.18071827
H        0.30199204      -0.91546357       1.34516359
H        2.13652738       0.72281678       1.03387409
14
Frame=4 idx=002718 GeodesicLength=0.3718974966659665 rxn_smarts="[C:1]([C@@:2]([O:3][H:11])([C:4]([C:5](=[O:6])[H:14])([H:12])[H:13])[H:10])([H:7])([H:8])[H:9]>>[C:1]([C:2](=[O:3])[H:10])([C:4]([C:5](=[O:6])[H:14])([H:12])[H:13])([H:8])[H:9].[H:7][H:11]"
C       -1.27252618      -0.39369377      -0.39538090
C       -0.16779688       0.55257423      -0.37262011
O       -0.32520833       1.58679956       0.39793146
C        0.66033145      -0.76766461       0.33619774
C        2.07460149      -0.21773924       0.42225879
O        2.99369675      -0.65958621      -0.20292980
H       -2.41787979       1.12226208      -0.39346654
H       -1.37495753      -1.09153892      -1.22306026
H       -1.81635115      -0.58473427       0.52176282
H        0.30694081       0.70210814      -1.35742888
H       -1.84012394       1.69515415      -0.00454951
H        0.71094287      -1.74862785      -0.13435891
H        0.30255403      -0.88786653       1.36204282
H        2.16577639       0.69255325       1.04360128
14
Frame=5 idx=002718 GeodesicLength=0.46508602533529947 rxn_smarts="[C:1]([C@@:2]([O:3][H:11])([C:4]([C:5](=[O:6])[H:14])([H:12])[H:13])[H:10])([H:7])([H:8])[H:9]>>[C:1]([C:2](=[O:3])[H:10])([C:4]([C:5](=[O:6])[H:14])([H:12])[H:13])([H:8])[H:9].[H:7][H:11]"
C       -1.25818935      -0.39449981      -0.40324021
C       -0.16610853       0.57161996      -0.37186078
O       -0.35262920       1.60750994       0.39107177
C        0.65491044      -0.76458894       0.34735023
C        2.07778645      -0.23658286       0.41569252
O        2.97623412      -0.66717514      -0.24706533
H       -2.43479727       1.09691235      -0.39180082
H       -1.33965439      -1.08492492      -1.23954121
H       -1.81129201      -0.59625073       0.50619590
H        0.31829379       0.72782851      -1.35063632
H       -1.86065578       1.70264266      -0.00038577
H        0.69542561      -1.76313474      -0.08690477
H        0.30404766      -0.85950170       1.37867957
H        2.19662845       0.66014543       1.05244524
14
Frame=6 idx=002718 GeodesicLength=0.5583810226234543 rxn_smarts="[C:1]([C@@:2]([O:3][H:11])([C:4]([C:5](=[O:6])[H:14])([H:12])[H:13])[H:10])([H:7])([H:8])[H:9]>>[C:1]([C:2](=[O:3])[H:10])([C:4]([C:5](=[O:6])[H:14])([H:12])[H:13])([H:8])[H:9].[H:7][H:11]"
C       -1.24330194      -0.39500688      -0.41084124
C       -0.16466122       0.59129174      -0.37011792
O       -0.38169584       1.62826510       0.38442032
C        0.64967916      -0.76125767       0.35868505
C        2.08088902      -0.25604449       0.40806223
O        2.95721987      -0.67576701      -0.29107542
H       -2.45155451       1.07031897      -0.39180147
H       -1.30306400      -1.07767269      -1.25542269
H       -1.80573079      -0.60791503       0.49047356
H        0.32949269       0.75491835      -1.34252829
H       -1.88251023       1.70993363       0.00309239
H        0.67959544      -1.77607023      -0.03840868
H        0.30654601      -0.83036690       1.39510861
H        2.22909633       0.62537310       1.06035355
14
Frame=7 idx=002718 GeodesicLength=0.6517990153130089 rxn_smarts="[C:1]([C@@:2]([O:3][H:11])([C:4]([C:5](=[O:6])[H:14])([H:12])[H:13])[H:10])([H:7])([H:8])[H:9]>>[C:1]([C:2](=[O:3])[H:10])([C:4]([C:5](=[O:6])[H:14])([H:12])[H:13])([H:8])[H:9].[H:7][H:11]"
C       -1.22783528      -0.39518249      -0.41812930
C       -0.16348176       0.61161219      -0.36730836
O       -0.41247991       1.64903413       0.37792844
C        0.64465355      -0.75766323       0.37027463
C        2.08384467      -0.27614793       0.39939311
O        2.93658443      -0.68529136      -0.33505089
H       -2.46810818       1.04243451      -0.39361816
H       -1.26513771      -1.06972232      -1.27061713
H       -1.79963488      -0.61968604       0.47462603
H        0.34055210       0.78337609      -1.33297864
H       -1.90574367       1.71703301       0.00578319
H        0.66348590      -1.78733170       0.01106806
H        0.31012879      -0.80046242       1.41136840
H        2.26317193       0.58799758       1.06726063
14
Frame=8 idx=002718 GeodesicLength=0.7453646558825151 rxn_smarts="[C:1]([C@@:2]([O:3][H:11])([C:4]([C:5](=[O:6])[H:14])([H:12])[H:13])[H:10])([H:7])([H:8])[H:9]>>[C:1]([C:2](=[O:3])[H:10])([C:4]([C:5](=[O:6])[H:14])([H:12])[H:13])([H:8])[H:9].[H:7][H:11]"
C       -1.21176202      -0.39499450      -0.42504323
C       -0.16259960       0.63259919      -0.36335393
O       -0.44503611       1.66977911       0.37152837
C        0.63985127      -0.75379644       0.38219325
C        2.08658361      -0.29691304       0.38971441
O        2.91424013      -0.69562989      -0.37907505
H       -2.48439743       1.01321259      -0.39739436
H       -1.22583877      -1.06101186      -1.28502862
H       -1.79296895      -0.63151916       0.45869308
H        0.35148707       0.81318730      -1.32186292
H       -1.93039990       1.72395286       0.00757804
H        0.64714010      -1.79683204       0.06145598
H        0.31488241      -0.76979282       1.42749874
H        2.29881817       0.54775870       1.07309624
14
Frame=9 idx=002718 GeodesicLength=0.8390905537953522 rxn_smarts="[C:1]([C@@:2]([O:3][H:11])([C:4]([C:5](=[O:6])[H:14])([H:12])[H:13])[H:10])([H:7])([H:8])[H:9]>>[C:1]([C:2](=[O:3])[H:10])([C:4]([C:5](=[O:6])[H:14])([H:12])[H:13])([H:8])[H:9].[H:7][H:11]"
C       -1.19505352      -0.39440766      -0.43151983
C       -0.16204985       0.65426811      -0.35817168
O       -0.47941736       1.69044600       0.36513954
C        0.63529006      -0.74963607       0.39452535
C        2.08902706      -0.31835736       0.37906289
O        2.89007596      -0.70668890      -0.42318397
H       -2.50034266       0.98260686      -0.40327549
H       -1.18511716      -1.05146805      -1.29855638
H       -1.78570060      -0.64337140       0.44270613
H        0.36232111       0.84433326      -1.30903538
H       -1.95652563       1.73069409       0.00839328
H        0.63062056      -1.80446442       0.11267297
H        0.32089530      -0.73836584       1.44353407
H        2.33597673       0.50441138       1.07770850
14
Frame=10 idx=002718 GeodesicLength=0.9330214486183643 rxn_smarts="[C:1]([C@@:2]([O:3][H:11])([C:4]([C:5](=[O:6])[H:14])([H:12])[H:13])[H:10])([H:7])([H:8])[H:9]>>[C:1]([C:2](=[O:3])[H:10])([C:4]([C:5](=[O:6])[H:14])([H:12])[H:13])([H:8])[H:9].[H:7][H:11]"
C       -1.17769564      -0.39339408      -0.43747230
C       -0.16187031       0.67662054      -0.35170900
O       -0.51562526       1.71098542       0.35863954
C        0.63099534      -0.74517349       0.40732814
C        2.09109428      -0.34047746       0.36747919
O        2.86400375      -0.71822141      -0.46741787
H       -2.51584233       0.95057715      -0.41137994
H       -1.14299436      -1.04103938      -1.31106956
H       -1.77778656      -0.65518071       0.42675221
H        0.37306091       0.87675752      -1.29439688
H       -1.98412410       1.73729560       0.00809714
H        0.61399676      -1.81018444       0.16459971
H        0.32826728      -0.70621487       1.45949929
H        2.37452024       0.45764962       1.08105035
14
Frame=11 idx=002718 GeodesicLength=1.0271933324881224 rxn_smarts="[C:1]([C@@:2]([O:3][H:11])([C:4]([C:5](=[O:6])[H:14])([H:12])[H:13])[H:10])([H:7])([H:8])[H:9]>>[C:1]([C:2](=[O:3])[H:10])([C:4]([C:5](=[O:6])[H:14])([H:12])[H:13])([H:8])[H:9].[H:7][H:11]"
C       -1.15967463      -0.39192325      -0.44281630
C       -0.16210752       0.69965460      -0.34391434
O       -0.55365689       1.73133034       0.35189327
C        0.62699392      -0.74038679       0.42066510
C        2.09269612      -0.36326469       0.35500713
O        2.83592232      -0.73000066      -0.51176668
H       -2.53077534       0.91708177      -0.42181887
H       -1.09948085      -1.02966117      -1.32244106
H       -1.76918602      -0.66689051       0.41090656
H        0.38371651       0.91040222      -1.27783116
H       -2.01319915       1.74378738       0.00658498
H        0.59735803      -1.81393865       0.21712432
H        0.33710302      -0.67336758       1.47541258
H        2.41429046       0.40717698       1.08299446
14
Frame=12 idx=002718 GeodesicLength=1.1216558057136772 rxn_smarts="[C:1]([C@@:2]([O:3][H:11])([C:4]([C:5](=[O:6])[H:14])([H:12])[H:13])[H:10])([H:7])([H:8])[H:9]>>[C:1]([C:2](=[O:3])[H:10])([C:4]([C:5](=[O:6])[H:14])([H:12])[H:13])([H:8])[H:9].[H:7][H:11]"
C       -1.14098318      -0.38996905      -0.44746545
C       -0.16281378       0.72336114      -0.33475299
O       -0.59347978       1.75140777       0.34474189
C        0.62331518      -0.73525075       0.43459169
C        2.09373896      -0.38669865       0.34169822
O        2.80573756      -0.74175669      -0.55618887
H       -2.54499768       0.88208093      -0.43468461
H       -1.05460590      -1.01727613      -1.33254075
H       -1.75985802      -0.67844606       0.39525373
H        0.39429538       0.94519653      -1.25923392
H       -2.04373724       1.75020723       0.00376742
H        0.58080181      -1.81569404       0.27013404
H        0.34750860      -0.63985468       1.49128241
H        2.45507810       0.35269245       1.08339719
14
Frame=13 idx=002718 GeodesicLength=1.2164581076474348 rxn_smarts="[C:1]([C@@:2]([O:3][H:11])([C:4]([C:5](=[O:6])[H:14])([H:12])[H:13])[H:10])([H:7])([H:8])[H:9]>>[C:1]([C:2](=[O:3])[H:10])([C:4]([C:5](=[O:6])[H:14])([H:12])[H:13])([H:8])[H:9].[H:7][H:11]"
C       -1.12161997      -0.38750608      -0.45133195
C       -0.16405042       0.74771997      -0.32421159
O       -0.63503400       1.77113124       0.33699968
C        0.61999386      -0.72973518       0.44914939
C        2.09412507      -0.41074879       0.32760992
O        2.77337096      -0.75317501      -0.60060237
H       -2.55834271       0.84553663      -0.45004387
H       -1.00841869      -1.00382794      -1.34123192
H       -1.74975523      -0.68978918       0.37988486
H        0.40479358       0.98105268      -1.23851230
H       -2.07570802       1.75659838      -0.00042910
H        0.56444038      -1.81543173       0.32352356
H        0.35959540      -0.60570437       1.50709580
H        2.49660978       0.29387938       1.08209989
14
Frame=14 idx=002718 GeodesicLength=1.3117030657590647 rxn_smarts="[C:1]([C@@:2]([O:3][H:11])([C:4]([C:5](=[O:6])[H:14])([H:12])[H:13])[H:10])([H:7])([H:8])[H:9]>>[C:1]([C:2](=[O:3])[H:10])([C:4]([C:5](=[O:6])[H:14])([H:12])[H:13])([H:8])[H:9].[H:7][H:11]"
C       -1.10159400      -0.38452253      -0.45434394
C       -0.16587890       0.77271639      -0.31228414
O       -0.67823771       1.79042338       0.32848569
C        0.61705916      -0.72380210       0.46438973
C        2.09376304      -0.43537070       0.31280241
O        2.73876385      -0.76397333      -0.64490319
H       -2.57062800       0.80740087      -0.46796536
H       -0.96096543      -0.98927527      -1.34841285
H       -1.73885603      -0.70089187       0.36488206
H        0.41523118       1.01790337      -1.21557595
H       -2.10908260       1.76300417      -0.00602681
H        0.54836727      -1.81315030       0.37721136
H        0.37346409      -0.57093620       1.52286037
H        2.53859408       0.23047413       1.07888062
14
Frame=15 idx=002718 GeodesicLength=1.40746575701241 rxn_smarts="[C:1]([C@@:2]([O:3][H:11])([C:4]([C:5](=[O:6])[H:14])([H:12])[H:13])[H:10])([H:7])([H:8])[H:9]>>[C:1]([C:2](=[O:3])[H:10])([C:4]([C:5](=[O:6])[H:14])([H:12])[H:13])([H:8])[H:9].[H:7][H:11]"
C       -1.08091909      -0.38100376      -0.45641540
C       -0.16837484       0.79830871      -0.29901050
O       -0.72296751       1.80918687       0.31895967
C        0.61455498      -0.71741586       0.48031947
C        2.09255362      -0.46051053       0.29735129
O        2.70190398      -0.77376319      -0.68892200
H       -2.58164191       0.76763836      -0.48845958
H       -0.91233661      -0.97358614      -1.35394206
H       -1.72710658      -0.71169704       0.35035442
H        0.42558575       1.05562943      -1.19036912
H       -2.14379911       1.76948706      -0.01303283
H        0.53271585      -1.80885659       0.43109990
H        0.38922093      -0.53557727       1.53851298
H        2.58061054       0.16215995       1.07355377
14
Frame=16 idx=002718 GeodesicLength=1.5038780574637738 rxn_smarts="[C:1]([C@@:2]([O:3][H:11])([C:4]([C:5](=[O:6])[H:14])([H:12])[H:13])[H:10])([H:7])([H:8])[H:9]>>[C:1]([C:2](=[O:3])[H:10])([C:4]([C:5](=[O:6])[H:14])([H:12])[H:13])([H:8])[H:9].[H:7][H:11]"
C       -1.05962054      -0.37695133      -0.45747739
C       -0.17161225       0.82445733      -0.28444805
O       -0.76907389       1.82733595       0.30818029
C        0.61252224      -0.71053498       0.49694643
C        2.09041003      -0.48610441       0.28133546
O        2.66282188      -0.78216613      -0.73247346
H       -2.59115815       0.72619975      -0.51153350
H       -0.86262895      -0.95675128      -1.35771420
H       -1.71447544      -0.72217390       0.33640751
H        0.43584929       1.09412713      -1.16285201
H       -2.17979642       1.77611410      -0.02139181
H        0.51760015      -1.80257002       0.48512285
H        0.40696220      -0.49963641       1.55399864
H        2.62219985       0.08865420       1.06589923
