15
Frame=0 idx=009207 GeodesicLength=0.0 rxn_smarts="[C:1]([C:2]#[C:3][C:4]([C@@:5]1([H:13])[C:6]([H:14])([H:15])[O:7]1)([H:11])[H:12])([H:8])([H:9])[H:10]>>[C:1]([C:2]1=[C:3]([H:14])[C:4]([H:11])([H:12])[C@@:5]2([H:13])[C@:6]1([H:15])[O:7]2)([H:8])([H:9])[H:10]"
C        2.37372507      -1.14399476      -1.20384123
C        1.17713712      -0.54218891      -0.66035932
C        0.11018000      -0.09704527      -0.22263511
C       -0.39237894       1.22302671       0.54554633
C       -1.85738113       1.00284249       0.49261670
C       -2.05837923      -0.33528701       1.00369811
O       -2.78714748       0.74586254       1.53708817
H        3.11040229      -1.33976529      -0.42304966
H        2.12364583      -2.09944940      -1.67752265
H        2.81988073      -0.50469648      -1.96805249
H       -0.00684518       2.07454199      -0.01330210
H        0.01384204       1.21937777       1.55542884
H       -2.34164524       1.25423459      -0.44854820
H       -0.95166874      -0.76058379      -0.26224590
H       -1.33336713      -0.69687524       1.74517845
15
Frame=1 idx=009207 GeodesicLength=0.11235157985865862 rxn_smarts="[C:1]([C:2]#[C:3][C:4]([C@@:5]1([H:13])[C:6]([H:14])([H:15])[O:7]1)([H:11])[H:12])([H:8])([H:9])[H:10]>>[C:1]([C:2]1=[C:3]([H:14])[C:4]([H:11])([H:12])[C@@:5]2([H:13])[C@:6]1([H:15])[O:7]2)([H:8])([H:9])[H:10]"
C        2.36569372      -1.16307539      -1.16023447
C        1.17452385      -0.53894917      -0.62655253
C        0.09176377      -0.03219917      -0.30867059
C       -0.39741474       1.25308131       0.50838163
C       -1.85950493       0.99956924       0.52042421
C       -2.00755793      -0.36192691       0.98855754
O       -2.72207677       0.68795864       1.60437150
H        3.08017267      -1.39698633      -0.36929023
H        2.10168653      -2.10033298      -1.66136594
H        2.85008022      -0.52214018      -1.89953685
H       -0.06382030       2.12485833      -0.05307025
H        0.04590423       1.25915556       1.50267892
H       -2.39966712       1.28269186      -0.38049657
H       -0.98108386      -0.72652539      -0.36738721
H       -1.27869936      -0.76517941       1.70219083
15
Frame=2 idx=009207 GeodesicLength=0.22656645465016836 rxn_smarts="[C:1]([C:2]#[C:3][C:4]([C@@:5]1([H:13])[C:6]([H:14])([H:15])[O:7]1)([H:11])[H:12])([H:8])([H:9])[H:10]>>[C:1]([C:2]1=[C:3]([H:14])[C:4]([H:11])([H:12])[C@@:5]2([H:13])[C@:6]1([H:15])[O:7]2)([H:8])([H:9])[H:10]"
C        2.35089499      -1.17902670      -1.11806977
C        1.16337023      -0.53614267      -0.59414515
C        0.08108374       0.02721869      -0.38051620
C       -0.40032653       1.28237210       0.47259409
C       -1.85559296       0.99292280       0.54349924
C       -1.95386686      -0.38710443       0.97118718
O       -2.65200090       0.63182680       1.65968351
H        3.04028494      -1.45430356      -0.31815591
H        2.07659997      -2.09463866      -1.65210384
H        2.87417858      -0.53400976      -1.82682373
H       -0.11872498       2.17071045      -0.09170881
H        0.07428648       1.30518725       1.45219641
H       -2.44637656       1.29986874      -0.31690811
H       -1.00632035      -0.69396064      -0.46142856
H       -1.22748979      -0.83092041       1.66069966
15
Frame=3 idx=009207 GeodesicLength=0.3423443580829872 rxn_smarts="[C:1]([C:2]#[C:3][C:4]([C@@:5]1([H:13])[C:6]([H:14])([H:15])[O:7]1)([H:11])[H:12])([H:8])([H:9])[H:10]>>[C:1]([C:2]1=[C:3]([H:14])[C:4]([H:11])([H:12])[C@@:5]2([H:13])[C@:6]1([H:15])[O:7]2)([H:8])([H:9])[H:10]"
C        2.33192038      -1.19255939      -1.07796221
C        1.14711174      -0.53211921      -0.56488771
C        0.07625337       0.08216707      -0.44070109
C       -0.40173503       1.31091240       0.43920789
C       -1.84714010       0.98436234       0.56309257
C       -1.89934188      -0.41050573       0.95159990
O       -2.57886040       0.57820720       1.70529812
H        2.99556793      -1.50653241      -0.27051744
H        2.05072484      -2.08664180      -1.64348104
H        2.89206406      -0.54514501      -1.75584052
H       -0.17155033       2.21268204      -0.12745191
H        0.09911572       1.35458876       1.40507207
H       -2.48375358       1.30972775      -0.25688155
H       -1.02852741      -0.66308277      -0.54631398
H       -1.18184930      -0.89606124       1.61976690
15
Frame=4 idx=009207 GeodesicLength=0.4592294602757621 rxn_smarts="[C:1]([C:2]#[C:3][C:4]([C@@:5]1([H:13])[C:6]([H:14])([H:15])[O:7]1)([H:11])[H:12])([H:8])([H:9])[H:10]>>[C:1]([C:2]1=[C:3]([H:14])[C:4]([H:11])([H:12])[C@@:5]2([H:13])[C@:6]1([H:15])[O:7]2)([H:8])([H:9])[H:10]"
C        2.31050037      -1.20412014      -1.03994619
C        1.12771624      -0.52745984      -0.53809528
C        0.07546080       0.13272247      -0.49162923
C       -0.40236752       1.33881431       0.40722147
C       -1.83533663       0.97468386       0.57991136
C       -1.84467092      -0.43168594       0.93164152
O       -2.50308838       0.52855805       1.74375915
H        2.94643898      -1.55755532      -0.22645195
H        2.02543676      -2.07473686      -1.63875767
H        2.90709156      -0.55427707      -1.68372218
H       -0.22326844       2.25067320      -0.16210774
H        0.12084763       1.40689580       1.35986742
H       -2.51401065       1.31335931      -0.19992048
H       -1.04868260      -0.63537122      -0.62205655
H       -1.14206720      -0.96050061       1.58028637
15
Frame=5 idx=009207 GeodesicLength=0.5771097174345359 rxn_smarts="[C:1]([C:2]#[C:3][C:4]([C@@:5]1([H:13])[C:6]([H:14])([H:15])[O:7]1)([H:11])[H:12])([H:8])([H:9])[H:10]>>[C:1]([C:2]1=[C:3]([H:14])[C:4]([H:11])([H:12])[C@@:5]2([H:13])[C@:6]1([H:15])[O:7]2)([H:8])([H:9])[H:10]"
C        2.28734259      -1.21414667      -1.00365028
C        1.10716620      -0.52057079      -0.51341064
C        0.07834809       0.18099355      -0.53547091
C       -0.40230584       1.36627264       0.37766163
C       -1.82074269       0.96439517       0.59471765
C       -1.79042454      -0.45115407       0.90984025
O       -2.42540336       0.48138665       1.77587478
H        2.89753255      -1.60087272      -0.18556326
H        1.99998275      -2.06428674      -1.62971376
H        2.91632575      -0.56577576      -1.61758205
H       -0.27358221       2.28589572      -0.19319592
H        0.13965777       1.46002051       1.31774325
H       -2.53808259       1.31344255      -0.14489464
H       -1.06671624      -0.60931711      -0.69166666
H       -1.10909821      -1.02628294       1.53931054
15
Frame=6 idx=009207 GeodesicLength=0.6957779156158351 rxn_smarts="[C:1]([C:2]#[C:3][C:4]([C@@:5]1([H:13])[C:6]([H:14])([H:15])[O:7]1)([H:11])[H:12])([H:8])([H:9])[H:10]>>[C:1]([C:2]1=[C:3]([H:14])[C:4]([H:11])([H:12])[C@@:5]2([H:13])[C@:6]1([H:15])[O:7]2)([H:8])([H:9])[H:10]"
C        2.26331394      -1.22271971      -0.96894392
C        1.08563375      -0.51300003      -0.49020045
C        0.08362407       0.22611754      -0.57361811
C       -0.40199596       1.39321325       0.34886263
C       -1.80389382       0.95386136       0.60799008
C       -1.73662473      -0.46855388       0.88846939
O       -2.34512725       0.43829527       1.80381703
H        2.84643457      -1.64315420      -0.14769042
H        1.97590833      -2.05100639      -1.62324763
H        2.92400818      -0.57604202      -1.55072804
H       -0.32340080       2.31761735      -0.22380269
H        0.15614881       1.51464567       1.27642294
H       -2.55739188       1.30976088      -0.09129918
H       -1.08374105      -0.58668854      -0.75440376
H       -1.08289616      -1.09234654       1.49837213
15
Frame=7 idx=009207 GeodesicLength=0.8152238067010895 rxn_smarts="[C:1]([C:2]#[C:3][C:4]([C@@:5]1([H:13])[C:6]([H:14])([H:15])[O:7]1)([H:11])[H:12])([H:8])([H:9])[H:10]>>[C:1]([C:2]1=[C:3]([H:14])[C:4]([H:11])([H:12])[C@@:5]2([H:13])[C@:6]1([H:15])[O:7]2)([H:8])([H:9])[H:10]"
C        2.23875480      -1.23003405      -0.93551461
C        1.06384322      -0.50432830      -0.46814383
C        0.09108543       0.26894973      -0.60717783
C       -0.40155256       1.41971314       0.32095105
C       -1.78501767       0.94325633       0.62021857
C       -1.68333711      -0.48423802       0.86713590
O       -2.26212643       0.39857561       1.82823513
H        2.79469891      -1.68258455      -0.11242478
H        1.95300644      -2.03660726      -1.61674168
H        2.92945458      -0.58637088      -1.48513436
H       -0.37284166       2.34623634      -0.25340896
H        0.17046800       1.57013764       1.23594734
H       -2.57249154       1.30337160      -0.03828980
H       -1.09988854      -0.56693529      -0.81170954
H       -1.06405586      -1.15914204       1.45605739
15
Frame=8 idx=009207 GeodesicLength=0.9354485283535758 rxn_smarts="[C:1]([C:2]#[C:3][C:4]([C@@:5]1([H:13])[C:6]([H:14])([H:15])[O:7]1)([H:11])[H:12])([H:8])([H:9])[H:10]>>[C:1]([C:2]1=[C:3]([H:14])[C:4]([H:11])([H:12])[C@@:5]2([H:13])[C@:6]1([H:15])[O:7]2)([H:8])([H:9])[H:10]"
C        2.21397665      -1.23618025      -0.90316106
C        1.04201071      -0.49478607      -0.44706812
C        0.10034023       0.30963813      -0.63700734
C       -0.40114709       1.44572668       0.29349661
C       -1.76425482       0.93266509       0.63182250
C       -1.63052172      -0.49840664       0.84623869
O       -2.17593337       0.36215252       1.84991189
H        2.74202185      -1.72026808      -0.07957741
H        1.93176345      -2.02048364      -1.61099045
H        2.93354477      -0.59638587      -1.41951210
H       -0.42224198       2.37165194      -0.28262321
H        0.18283255       1.62640729       1.19561116
H       -2.58385601       1.29464009       0.01487094
H       -1.11559326      -0.55025535      -0.86408626
H       -1.05294197      -1.22611585       1.41207415
15
Frame=9 idx=009207 GeodesicLength=1.0564409402709454 rxn_smarts="[C:1]([C:2]#[C:3][C:4]([C@@:5]1([H:13])[C:6]([H:14])([H:15])[O:7]1)([H:11])[H:12])([H:8])([H:9])[H:10]>>[C:1]([C:2]1=[C:3]([H:14])[C:4]([H:11])([H:12])[C@@:5]2([H:13])[C@:6]1([H:15])[O:7]2)([H:8])([H:9])[H:10]"
C        2.18916062      -1.24130332      -0.87173703
C        1.02065672      -0.48408629      -0.42667422
C        0.11147768       0.34876580      -0.66352207
C       -0.40089431       1.47121676       0.26669035
C       -1.74174039       0.92201747       0.64305449
C       -1.57818944      -0.51139036       0.82544548
O       -2.08660249       0.32834036       1.86884545
H        2.68950378      -1.75518507      -0.04883870
H        1.91170496      -2.00382060      -1.60447335
H        2.93587012      -0.60680357      -1.35532692
H       -0.47170255       2.39396586      -0.31097233
H        0.19309898       1.68307506       1.15558618
H       -2.59165852       1.28394581       0.06867465
H       -1.13075281      -0.53625051      -0.91237148
H       -1.04993233      -1.29248740       1.36561951
15
Frame=10 idx=009207 GeodesicLength=1.1783148813065045 rxn_smarts="[C:1]([C:2]#[C:3][C:4]([C@@:5]1([H:13])[C:6]([H:14])([H:15])[O:7]1)([H:11])[H:12])([H:8])([H:9])[H:10]>>[C:1]([C:2]1=[C:3]([H:14])[C:4]([H:11])([H:12])[C@@:5]2([H:13])[C@:6]1([H:15])[O:7]2)([H:8])([H:9])[H:10]"
C        2.16449371      -1.24553996      -0.84120324
C        1.00012243      -0.47222122      -0.40675521
C        0.12453300       0.38665529      -0.68698009
C       -0.40091353       1.49611444       0.24068802
C       -1.71762901       0.91124853       0.65405515
C       -1.52638992      -0.52353469       0.80461294
O       -1.99430838       0.29669328       1.88496985
H        2.63781777      -1.78706501      -0.01998344
H        1.89254292      -1.98723849      -1.59668259
H        2.93643844      -0.61785602      -1.29332029
H       -0.52129277       2.41319195      -0.33818639
H        0.20108817       1.73988091       1.11611627
H       -2.59605171       1.27150882       0.12330407
H       -1.14533700      -0.52483575      -0.95715599
H       -1.05511411      -1.35700208       1.31652094
15
Frame=11 idx=009207 GeodesicLength=1.3011576286455941 rxn_smarts="[C:1]([C:2]#[C:3][C:4]([C@@:5]1([H:13])[C:6]([H:14])([H:15])[O:7]1)([H:11])[H:12])([H:8])([H:9])[H:10]>>[C:1]([C:2]1=[C:3]([H:14])[C:4]([H:11])([H:12])[C@@:5]2([H:13])[C@:6]1([H:15])[O:7]2)([H:8])([H:9])[H:10]"
C        2.14018560      -1.24895420      -0.81165165
C        0.98044401      -0.45957514      -0.38730979
C        0.13932732       0.42323178      -0.70763719
C       -0.40129145       1.52017214       0.21542146
C       -1.69209208       0.90030846       0.66489541
C       -1.47531133      -0.53508221       0.78397527
O       -1.89940425       0.26716502       1.89827880
H        2.58666576      -1.81692188       0.00680263
H        1.87471122      -1.97008729      -1.58871415
H        2.93590727      -0.62907778      -1.23255049
H       -0.57096525       2.42905997      -0.36440463
H        0.20672201       1.79649092       1.07714470
H       -2.59713735       1.25743828       0.17877032
H       -1.15962207      -0.51635333      -0.99862349
H       -1.06813940      -1.41781473       1.26560282
15
Frame=12 idx=009207 GeodesicLength=1.425017054831509 rxn_smarts="[C:1]([C:2]#[C:3][C:4]([C@@:5]1([H:13])[C:6]([H:14])([H:15])[O:7]1)([H:11])[H:12])([H:8])([H:9])[H:10]>>[C:1]([C:2]1=[C:3]([H:14])[C:4]([H:11])([H:12])[C@@:5]2([H:13])[C@:6]1([H:15])[O:7]2)([H:8])([H:9])[H:10]"
C        2.11641811      -1.25164560      -0.78325330
C        0.96175617      -0.44639158      -0.36832538
C        0.15582927       0.45857222      -0.72557017
C       -0.40206260       1.54315937       0.19108799
C       -1.66540257       0.88914330       0.67549477
C       -1.42525120      -0.54627538       0.76354097
O       -1.80281748       0.23958726       1.90850779
H        2.53631268      -1.84502515       0.03131448
H        1.85831865      -1.95236672      -1.58090496
H        2.93447778      -0.64038626      -1.17314689
H       -0.62044373       2.44144708      -0.38936759
H        0.20978236       1.85239182       1.03907350
H       -2.59496987       1.24191820       0.23471750
H       -1.17368457      -0.51098514      -1.03708377
H       -1.08826301      -1.47314343       1.21391506
15
Frame=13 idx=009207 GeodesicLength=1.5499030674141636 rxn_smarts="[C:1]([C:2]#[C:3][C:4]([C@@:5]1([H:13])[C:6]([H:14])([H:15])[O:7]1)([H:11])[H:12])([H:8])([H:9])[H:10]>>[C:1]([C:2]1=[C:3]([H:14])[C:4]([H:11])([H:12])[C@@:5]2([H:13])[C@:6]1([H:15])[O:7]2)([H:8])([H:9])[H:10]"
C        2.09326276      -1.25371367      -0.75616976
C        0.94423935      -0.43274245      -0.34972626
C        0.17412455       0.49291489      -0.74065447
C       -0.40318956       1.56481829       0.16807323
C       -1.63790878       0.87765724       0.68561067
C       -1.37654572      -0.55727899       0.74308691
O       -1.70588530       0.21366713       1.91514633
H        2.48743706      -1.87103594       0.05351444
H        1.84289733      -1.93463706      -1.57289553
H        2.93199815      -0.65194675      -1.11610820
H       -0.66928644       2.45029559      -0.41250103
H        0.21003028       1.90691338       1.00257826
H       -2.58964384       1.22511816       0.29046126
H       -1.18744724      -0.50865475      -1.07291448
H       -1.11408258      -1.52137507       1.16249863
15
Frame=14 idx=009207 GeodesicLength=1.6757908432012822 rxn_smarts="[C:1]([C:2]#[C:3][C:4]([C@@:5]1([H:13])[C:6]([H:14])([H:15])[O:7]1)([H:11])[H:12])([H:8])([H:9])[H:10]>>[C:1]([C:2]1=[C:3]([H:14])[C:4]([H:11])([H:12])[C@@:5]2([H:13])[C@:6]1([H:15])[O:7]2)([H:8])([H:9])[H:10]"
C        2.07089694      -1.25523715      -0.73065938
C        0.92773354      -0.41914882      -0.33167557
C        0.19400592       0.52613258      -0.75300960
C       -0.40461426       1.58501413       0.14639778
C       -1.60997735       0.86597705       0.69509131
C       -1.32952962      -0.56818363       0.72291482
O       -1.60978917       0.18964816       1.91832430
H        2.43965902      -1.89598126       0.07286412
H        1.82915736      -1.91609827      -1.56596345
H        2.92899184      -0.66334052      -1.06048048
H       -0.71702404       2.45563957      -0.43395468
H        0.20747117       1.95967061       0.96793934
H       -2.58139924       1.20736391       0.34534422
H       -1.20124547      -0.50982070      -1.10622807
H       -1.14433664      -1.56163565       1.11309533
15
Frame=15 idx=009207 GeodesicLength=1.8026044225102518 rxn_smarts="[C:1]([C:2]#[C:3][C:4]([C@@:5]1([H:13])[C:6]([H:14])([H:15])[O:7]1)([H:11])[H:12])([H:8])([H:9])[H:10]>>[C:1]([C:2]1=[C:3]([H:14])[C:4]([H:11])([H:12])[C@@:5]2([H:13])[C@:6]1([H:15])[O:7]2)([H:8])([H:9])[H:10]"
C        2.04935717      -1.25630035      -0.70686766
C        0.91225693      -0.40575332      -0.31413895
C        0.21549784       0.55841346      -0.76252564
C       -0.40623059       1.60368210       0.12627804
C       -1.58197904       0.85415529       0.70369567
C       -1.28439629      -0.57900903       0.70299768
O       -1.51578939       0.16749681       1.91798340
H        2.39329296      -1.91984513       0.08922003
H        1.81690640      -1.89692006      -1.56010747
H        2.92543188      -0.67464016      -1.00672775
H       -0.76316324       2.45764754      -0.45355484
H        0.20206614       2.01026393       0.93567625
H       -2.57053244       1.18890707       0.39857513
H       -1.21512403      -0.51451721      -1.13726519
H       -1.17759429      -1.59358095       1.06676130
15
Frame=16 idx=009207 GeodesicLength=1.9302155026157315 rxn_smarts="[C:1]([C:2]#[C:3][C:4]([C@@:5]1([H:13])[C:6]([H:14])([H:15])[O:7]1)([H:11])[H:12])([H:8])([H:9])[H:10]>>[C:1]([C:2]1=[C:3]([H:14])[C:4]([H:11])([H:12])[C@@:5]2([H:13])[C@:6]1([H:15])[O:7]2)([H:8])([H:9])[H:10]"
C        2.02869293      -1.25692661      -0.68494343
C        0.89754749      -0.39293133      -0.29729970
C        0.23837907       0.58966195      -0.76931145
C       -0.40794189       1.62073662       0.10755132
C       -1.55417614       0.84233994       0.71133362
C       -1.24123403      -0.58966722       0.68366981
O       -1.42460623       0.14752537       1.91446540
H        2.34749452      -1.94375053       0.10189163
H        1.80701235      -1.87593010      -1.55652501
H        2.92177484      -0.68558826      -0.95333174
H       -0.80737749       2.45634578      -0.47167566
H        0.19403722       2.05846553       0.90565255
H       -2.55739087       1.17003309       0.44971994
H       -1.22955092      -0.52308476      -1.16589965
H       -1.21266085      -1.61722947       1.02470236
