15
Frame=0 idx=005891 GeodesicLength=0.0 rxn_smarts="[C:1]([C:2]([C:3]([H:11])([H:12])[H:13])([C:4](=[O:5])[N:6]([H:14])[H:15])[H:10])([H:7])([H:8])[H:9]>>[C:1]([C:2]([C:3]([H:11])([H:12])[H:13])=[C:4]([O:5][H:10])[N:6]([H:14])[H:15])([H:7])([H:8])[H:9]"
C       -0.85771604      -1.03304432       1.00032352
C       -0.33765902      -0.29121579      -0.22745476
C       -1.11844330       0.96663131      -0.53088611
C        1.09423933      -0.22964164      -0.31587928
O        1.56278862      -1.37664258      -0.68233651
N        1.90402808       0.81500008      -0.18167880
H       -0.90920812      -0.38182714       1.88548560
H       -0.24065622      -1.89523007       1.25833260
H       -1.86969391      -1.40027319       0.81529679
H        0.37887681      -1.49318858      -0.90528418
H       -0.73239791       1.48905682      -1.40933497
H       -2.16163547       0.71935943      -0.73895342
H       -1.13283236       1.67749653       0.31105257
H        1.55718917       1.67686148       0.19612744
H        2.86312035       0.75665765      -0.47481053
15
Frame=1 idx=005891 GeodesicLength=0.07271983389789288 rxn_smarts="[C:1]([C:2]([C:3]([H:11])([H:12])[H:13])([C:4](=[O:5])[N:6]([H:14])[H:15])[H:10])([H:7])([H:8])[H:9]>>[C:1]([C:2]([C:3]([H:11])([H:12])[H:13])=[C:4]([O:5][H:10])[N:6]([H:14])[H:15])([H:7])([H:8])[H:9]"
C       -0.87348175      -1.04744153       0.99036882
C       -0.33151260      -0.28815417      -0.21715253
C       -1.11497054       0.96995229      -0.51258878
C        1.10046119      -0.22126088      -0.28597805
O        1.57998165      -1.37306140      -0.62331626
N        1.91182207       0.83129909      -0.22001585
H       -0.93349615      -0.41063025       1.88470562
H       -0.27016437      -1.92017446       1.24558571
H       -1.88356757      -1.41001036       0.78570707
H        0.38449352      -1.49206616      -0.89235532
H       -0.73413136       1.49788497      -1.38980008
H       -2.15848614       0.72583638      -0.72309003
H       -1.12692214       1.67441205       0.33411401
H        1.57204559       1.71651317       0.10598786
H        2.87792860       0.74690126      -0.48217220
15
Frame=2 idx=005891 GeodesicLength=0.14470327015529197 rxn_smarts="[C:1]([C:2]([C:3]([H:11])([H:12])[H:13])([C:4](=[O:5])[N:6]([H:14])[H:15])[H:10])([H:7])([H:8])[H:9]>>[C:1]([C:2]([C:3]([H:11])([H:12])[H:13])=[C:4]([O:5][H:10])[N:6]([H:14])[H:15])([H:7])([H:8])[H:9]"
C       -0.88902931      -1.06176066       0.97974595
C       -0.32521868      -0.28478254      -0.20642787
C       -1.11139418       0.97362430      -0.49350017
C        1.10666014      -0.21136030      -0.25466355
O        1.59699542      -1.36754921      -0.56169126
N        1.91897124       0.84535244      -0.26022787
H       -0.95833778      -0.43986689       1.88313880
H       -0.29909678      -1.94459275       1.23161998
H       -1.89664352      -1.41973414       0.75488775
H        0.39136453      -1.48996994      -0.87896287
H       -0.73626021       1.50697797      -1.36967160
H       -2.15532176       0.73284086      -0.70603746
H       -1.12033152       1.67158651       0.35794966
H        1.58588166       1.75109425       0.01087840
H        2.89176074       0.73814010      -0.48703789
15
Frame=3 idx=005891 GeodesicLength=0.21579441631983867 rxn_smarts="[C:1]([C:2]([C:3]([H:11])([H:12])[H:13])([C:4](=[O:5])[N:6]([H:14])[H:15])[H:10])([H:7])([H:8])[H:9]>>[C:1]([C:2]([C:3]([H:11])([H:12])[H:13])=[C:4]([O:5][H:10])[N:6]([H:14])[H:15])([H:7])([H:8])[H:9]"
C       -0.90411446      -1.07575924       0.96846749
C       -0.31886269      -0.28126407      -0.19566454
C       -1.10769439       0.97761324      -0.47392696
C        1.11273806      -0.20000790      -0.22259062
O        1.61378503      -1.36010475      -0.49797353
N        1.92533910       0.85668521      -0.30153996
H       -0.98309442      -0.46904425       1.88063072
H       -0.32713909      -1.96825260       1.21644758
H       -1.90883629      -1.42903244       0.72333969
H        0.39942043      -1.48733979      -0.86504380
H       -0.73857422       1.51639710      -1.34912095
H       -2.15218038       0.74044638      -0.68804414
H       -1.11302614       1.66904114       0.38222846
H        1.59810073       1.77935693      -0.08716154
H        2.90413873       0.73126503      -0.49004790
15
Frame=4 idx=005891 GeodesicLength=0.2861047758294334 rxn_smarts="[C:1]([C:2]([C:3]([H:11])([H:12])[H:13])([C:4](=[O:5])[N:6]([H:14])[H:15])[H:10])([H:7])([H:8])[H:9]>>[C:1]([C:2]([C:3]([H:11])([H:12])[H:13])=[C:4]([O:5][H:10])[N:6]([H:14])[H:15])([H:7])([H:8])[H:9]"
C       -0.91865324      -1.08936948       0.95651222
C       -0.31249926      -0.27754539      -0.18492645
C       -1.10392499       0.98194363      -0.45394574
C        1.11855665      -0.18705084      -0.18997759
O        1.63016763      -1.35054737      -0.43205304
N        1.93104416       0.86500334      -0.34276578
H       -1.00765633      -0.49805869       1.87712930
H       -0.35404826      -1.99097896       1.20011084
H       -1.92001496      -1.43795063       0.69104021
H        0.40861684      -1.48415035      -0.85061983
H       -0.74087616       1.52640428      -1.32795564
H       -2.14899054       0.74846639      -0.66954726
H       -1.10545685       1.66663686       0.40698301
H        1.60893654       1.80099298      -0.18753938
H        2.91479878       0.72620422      -0.49244485
15
Frame=5 idx=005891 GeodesicLength=0.35550006823030345 rxn_smarts="[C:1]([C:2]([C:3]([H:11])([H:12])[H:13])([C:4](=[O:5])[N:6]([H:14])[H:15])[H:10])([H:7])([H:8])[H:9]>>[C:1]([C:2]([C:3]([H:11])([H:12])[H:13])=[C:4]([O:5][H:10])[N:6]([H:14])[H:15])([H:7])([H:8])[H:9]"
C       -0.93240054      -1.10238030       0.94398234
C       -0.30621613      -0.27373801      -0.17454424
C       -1.10012765       0.98653061      -0.43389662
C        1.12397169      -0.17263822      -0.15750619
O        1.64599717      -1.33883477      -0.36470892
N        1.93601073       0.87029119      -0.38303936
H       -1.03145695      -0.52646639       1.87260376
H       -0.37949289      -2.01254285       1.18274083
H       -1.93007202      -1.44619358       0.65854779
H        0.41868710      -1.48073360      -0.83577136
H       -0.74296656       1.53701373      -1.30635698
H       -2.14577775       0.75681155      -0.65093965
H       -1.09780120       1.66430794       0.43185630
H        1.61800914       1.81548144      -0.28815094
H        2.92363587       0.72309125      -0.49481676
15
Frame=6 idx=005891 GeodesicLength=0.4241044270574772 rxn_smarts="[C:1]([C:2]([C:3]([H:11])([H:12])[H:13])([C:4](=[O:5])[N:6]([H:14])[H:15])[H:10])([H:7])([H:8])[H:9]>>[C:1]([C:2]([C:3]([H:11])([H:12])[H:13])=[C:4]([O:5][H:10])[N:6]([H:14])[H:15])([H:7])([H:8])[H:9]"
C       -0.94517199      -1.11467736       0.93099452
C       -0.30012093      -0.26984458      -0.16471298
C       -1.09646631       0.99133348      -0.41399517
C        1.12884795      -0.15681644      -0.12573989
O        1.66106015      -1.32491143      -0.29653224
N        1.94024888       0.87265555      -0.42221131
H       -1.05406275      -0.55400105       1.86713229
H       -0.40314613      -2.03278016       1.16448671
H       -1.93892143      -1.45372726       0.62626994
H        0.42929983      -1.47721797      -0.82074771
H       -0.74486415       1.54832748      -1.28438904
H       -2.14264641       0.76525212      -0.63258187
H       -1.09046131       1.66196715       0.45666839
H        1.62556233       1.82290045      -0.38774174
H        2.93084228       0.72154003      -0.49689990
15
Frame=7 idx=005891 GeodesicLength=0.49199638560003534 rxn_smarts="[C:1]([C:2]([C:3]([H:11])([H:12])[H:13])([C:4](=[O:5])[N:6]([H:14])[H:15])[H:10])([H:7])([H:8])[H:9]>>[C:1]([C:2]([C:3]([H:11])([H:12])[H:13])=[C:4]([O:5][H:10])[N:6]([H:14])[H:15])([H:7])([H:8])[H:9]"
C       -0.95696686      -1.12624576       0.91760643
C       -0.29419364      -0.26586432      -0.15544507
C       -1.09293397       0.99629644      -0.39437941
C        1.13316172      -0.13968518      -0.09469353
O        1.67531345      -1.30870110      -0.22763808
N        1.94380581       0.87239766      -0.45954587
H       -1.07551646      -0.58059890       1.86075123
H       -0.42496926      -2.05166615       1.14549884
H       -1.94657867      -1.46056096       0.59423760
H        0.44035061      -1.47365322      -0.80551750
H       -0.74631650       1.56037702      -1.26201893
H       -2.13951688       0.77366260      -0.61487113
H       -1.08369930       1.65950997       0.48130924
H        1.63162987       1.82359473      -0.48492975
H        2.93643007       0.72113717      -0.50036407
15
Frame=8 idx=005891 GeodesicLength=0.5593491430799171 rxn_smarts="[C:1]([C:2]([C:3]([H:11])([H:12])[H:13])([C:4](=[O:5])[N:6]([H:14])[H:15])[H:10])([H:7])([H:8])[H:9]>>[C:1]([C:2]([C:3]([H:11])([H:12])[H:13])=[C:4]([O:5][H:10])[N:6]([H:14])[H:15])([H:7])([H:8])[H:9]"
C       -0.96772638      -1.13712925       0.90383440
C       -0.28848650      -0.26171615      -0.14676919
C       -1.08963532       1.00145301      -0.37493698
C        1.13680647      -0.12122888      -0.06461658
O        1.68853544      -1.29009392      -0.15832064
N        1.94679008       0.86963966      -0.49525244
H       -1.09570532      -0.60637198       1.85355379
H       -0.44483133      -2.06923203       1.12573975
H       -1.95297880      -1.46681642       0.56249125
H        0.45161760      -1.46993165      -0.79036109
H       -0.74743745       1.57327252      -1.23907530
H       -2.13646171       0.78200098      -0.59767568
H       -1.07767806       1.65686162       0.50596706
H        1.63642779       1.81772631      -0.58099115
H        2.94076352       0.72156618      -0.50358722
15
Frame=9 idx=005891 GeodesicLength=0.6263943038466371 rxn_smarts="[C:1]([C:2]([C:3]([H:11])([H:12])[H:13])([C:4](=[O:5])[N:6]([H:14])[H:15])[H:10])([H:7])([H:8])[H:9]>>[C:1]([C:2]([C:3]([H:11])([H:12])[H:13])=[C:4]([O:5][H:10])[N:6]([H:14])[H:15])([H:7])([H:8])[H:9]"
C       -0.97751083      -1.14740765       0.88969113
C       -0.28296006      -0.25736456      -0.13862386
C       -1.08657861       1.00683535      -0.35565203
C        1.13984044      -0.10147907      -0.03537589
O        1.70075334      -1.26901838      -0.08851847
N        1.94927453       0.86462881      -0.52920739
H       -1.11478736      -0.63142489       1.84557361
H       -0.46275788      -2.08559328       1.10528120
H       -1.95820211      -1.47259977       0.53092360
H        0.46307863      -1.46604337      -0.77525197
H       -0.74809136       1.58715824      -1.21540519
H       -2.13347370       0.79028049      -0.58117772
H       -1.07255167       1.65399524       0.53070337
H        1.63996963       1.80544017      -0.67567184
H        2.94399700       0.72259268      -0.50728856
15
Frame=10 idx=005891 GeodesicLength=0.693231701424248 rxn_smarts="[C:1]([C:2]([C:3]([H:11])([H:12])[H:13])([C:4](=[O:5])[N:6]([H:14])[H:15])[H:10])([H:7])([H:8])[H:9]>>[C:1]([C:2]([C:3]([H:11])([H:12])[H:13])=[C:4]([O:5][H:10])[N:6]([H:14])[H:15])([H:7])([H:8])[H:9]"
C       -0.98632677      -1.15714614       0.87510574
C       -0.27758145      -0.25274587      -0.13098016
C       -1.08371883       1.01249618      -0.33632740
C        1.14223809      -0.08043755      -0.00693712
O        1.71188546      -1.24532644      -0.01830411
N        1.95133937       0.85751199      -0.56126390
H       -1.13282080      -0.65595253       1.83681305
H       -0.47876086      -2.10083662       1.08397413
H       -1.96223894      -1.47792801       0.49937412
H        0.47469000      -1.46184811      -0.76031921
H       -0.74822602       1.60214821      -1.19072471
H       -2.13049552       0.79864232      -0.56517964
H       -1.06822964       1.65084683       0.55578190
H        1.64196465       1.78620692      -0.77055481
H        2.94628125       0.72436882      -0.51045790
15
Frame=11 idx=005891 GeodesicLength=0.7597818005542165 rxn_smarts="[C:1]([C:2]([C:3]([H:11])([H:12])[H:13])([C:4](=[O:5])[N:6]([H:14])[H:15])[H:10])([H:7])([H:8])[H:9]>>[C:1]([C:2]([C:3]([H:11])([H:12])[H:13])=[C:4]([O:5][H:10])[N:6]([H:14])[H:15])([H:7])([H:8])[H:9]"
C       -0.99401740      -1.16617584       0.86040391
C       -0.27244625      -0.24788477      -0.12392575
C       -1.08122408       1.01827314      -0.31743798
C        1.14392283      -0.05833028       0.02021241
O        1.72172708      -1.21918680       0.05139868
N        1.95291855       0.84855781      -0.59149953
H       -1.14945875      -0.67949107       1.82748888
H       -0.49250627      -2.11467811       1.06237252
H       -1.96501262      -1.48282205       0.46846965
H        0.48591840      -1.45745914      -0.74597382
H       -0.74769168       1.61805169      -1.16537498
H       -2.12757512       0.80663427      -0.55042923
H       -1.06528989       1.64730781       0.58067470
H        1.64314791       1.76100433      -0.86199355
H        2.94758728       0.72619900      -0.51438593
15
Frame=12 idx=005891 GeodesicLength=0.8261952150300417 rxn_smarts="[C:1]([C:2]([C:3]([H:11])([H:12])[H:13])([C:4](=[O:5])[N:6]([H:14])[H:15])[H:10])([H:7])([H:8])[H:9]>>[C:1]([C:2]([C:3]([H:11])([H:12])[H:13])=[C:4]([O:5][H:10])[N:6]([H:14])[H:15])([H:7])([H:8])[H:9]"
C       -1.00063409      -1.17458447       0.84559908
C       -0.26749828      -0.24274609      -0.11736238
C       -1.07905370       1.02421079      -0.29888801
C        1.14498060      -0.03524888       0.04615661
O        1.73034696      -1.19063677       0.12041564
N        1.95411102       0.83798900      -0.61980421
H       -1.16483072      -0.70218004       1.81765584
H       -0.50406613      -2.12726516       1.04047972
H       -1.96660475      -1.48732711       0.43811945
H        0.49666947      -1.45281060      -0.73236744
H       -0.74643150       1.63488702      -1.13923414
H       -2.12468707       0.81438806      -0.53687103
H       -1.06362860       1.64340566       0.60547669
H        1.64321423       1.72978365      -0.95068705
H        2.94811254       0.72813494      -0.51868876
15
Frame=13 idx=005891 GeodesicLength=0.8926558914139131 rxn_smarts="[C:1]([C:2]([C:3]([H:11])([H:12])[H:13])([C:4](=[O:5])[N:6]([H:14])[H:15])[H:10])([H:7])([H:8])[H:9]>>[C:1]([C:2]([C:3]([H:11])([H:12])[H:13])=[C:4]([O:5][H:10])[N:6]([H:14])[H:15])([H:7])([H:8])[H:9]"
C       -1.00620239      -1.18244100       0.83064466
C       -0.26276822      -0.23725203      -0.11125577
C       -1.07725421       1.03036324      -0.28054575
C        1.14535242      -0.01110870       0.07093553
O        1.73762128      -1.15953465       0.18885449
N        1.95496731       0.82598558      -0.64617787
H       -1.17895424      -0.72421173       1.80734258
H       -0.51343128      -2.13866045       1.01822170
H       -1.96700825      -1.49156163       0.40818653
H        0.50689319      -1.44774251      -0.71966190
H       -0.74443916       1.65276327      -1.11204570
H       -2.12184832       0.82194900      -0.52440209
H       -1.06335087       1.63904986       0.63039078
H        1.64249370       1.69224286      -1.03753153
H        2.94792904       0.73015887      -0.52295567
15
Frame=14 idx=005891 GeodesicLength=0.9589924035058219 rxn_smarts="[C:1]([C:2]([C:3]([H:11])([H:12])[H:13])([C:4](=[O:5])[N:6]([H:14])[H:15])[H:10])([H:7])([H:8])[H:9]>>[C:1]([C:2]([C:3]([H:11])([H:12])[H:13])=[C:4]([O:5][H:10])[N:6]([H:14])[H:15])([H:7])([H:8])[H:9]"
C       -1.01063421      -1.18962003       0.81585487
C       -0.25823014      -0.23150475      -0.10560946
C       -1.07579286       1.03654886      -0.26279386
C        1.14513772       0.01363041       0.09421931
O        1.74363033      -1.12636082       0.25557296
N        1.95545081       0.81282113      -0.67060712
H       -1.19163620      -0.74516555       1.79676817
H       -0.52053578      -2.14872487       0.99608311
H       -1.96627181      -1.49539442       0.37923880
H        0.51605115      -1.44241646      -0.70837379
H       -0.74164574       1.67116080      -1.08435576
H       -2.11899730       0.82912912      -0.51340950
H       -1.06436970       1.63430602       0.65483755
H        1.64076934       1.64960092      -1.11977853
H        2.94707440       0.73198966      -0.52764675
15
Frame=15 idx=005891 GeodesicLength=1.0253955797529697 rxn_smarts="[C:1]([C:2]([C:3]([H:11])([H:12])[H:13])([C:4](=[O:5])[N:6]([H:14])[H:15])[H:10])([H:7])([H:8])[H:9]>>[C:1]([C:2]([C:3]([H:11])([H:12])[H:13])=[C:4]([O:5][H:10])[N:6]([H:14])[H:15])([H:7])([H:8])[H:9]"
C       -1.01398054      -1.19620711       0.80123594
C       -0.25393784      -0.22545897      -0.10040383
C       -1.07477277       1.04280146      -0.24559579
C        1.14428771       0.03904141       0.11605221
O        1.74829743      -1.09105995       0.32075368
N        1.95561469       0.79867024      -0.69317131
H       -1.20288771      -0.76520681       1.78601663
H       -0.52540462      -2.15755800       0.97407698
H       -1.96443449      -1.49899771       0.35122158
H        0.52409841      -1.43672740      -0.69868413
H       -0.73817749       1.69005607      -1.05612994
H       -2.11624346       0.83593428      -0.50376308
H       -1.06679982       1.62914866       0.67887417
H        1.63866774       1.60232684      -1.19765409
H        2.94567278       0.73323699      -0.53282903
15
Frame=16 idx=005891 GeodesicLength=1.0916310816658117 rxn_smarts="[C:1]([C:2]([C:3]([H:11])([H:12])[H:13])([C:4](=[O:5])[N:6]([H:14])[H:15])[H:10])([H:7])([H:8])[H:9]>>[C:1]([C:2]([C:3]([H:11])([H:12])[H:13])=[C:4]([O:5][H:10])[N:6]([H:14])[H:15])([H:7])([H:8])[H:9]"
C       -1.01619810      -1.20207855       0.78723490
C       -0.24988297      -0.21930972      -0.09564676
C       -1.07419735       1.04881289      -0.22951614
C        1.14295655       0.06456200       0.13602168
O        1.75174651      -1.05433010       0.38326578
N        1.95544021       0.78352023      -0.71431082
H       -1.21250382      -0.78378500       1.77539052
H       -0.52808362      -2.16502348       0.95294097
H       -1.96162685      -1.50233463       0.32490432
H        0.53035870      -1.43098096      -0.69111518
H       -0.73421227       1.70857247      -1.02839179
H       -2.11361302       0.84197393      -0.49583544
H       -1.07043846       1.62373211       0.70159248
H        1.63639273       1.55377233      -1.26707544
H        2.94386176       0.73289647      -0.53945909
