11
Frame=0 idx=002845 GeodesicLength=0.0 rxn_smarts="[C:1]([N:2]([C:3]([C:4]#[N:5])([H:10])[H:11])[H:9])([H:6])([H:7])[H:8]>>[C:1]([N:2]=[C:3]([H:10])[H:11])([H:6])([H:7])[H:8].[C:4]=[N:5][H:9]"
C        1.35920071      -0.49653890      -0.33926979
N        0.29150628       0.10728551       0.43053734
C       -0.37854885       1.13826998       0.09373909
C       -2.38975292      -0.38727657      -0.27884521
N       -2.25879885      -1.08636644       0.64539984
H        0.96115615      -1.38676642      -0.82931639
H        2.17423853      -0.77833587       0.32483088
H        1.71876287       0.20854998      -1.08559538
H       -0.20072135      -0.50074492       1.09142761
H       -1.22031020       1.44135565       0.69509095
H       -0.05673235       1.74056803      -0.74799890
11
Frame=1 idx=002845 GeodesicLength=0.0743281548557116 rxn_smarts="[C:1]([N:2]([C:3]([C:4]#[N:5])([H:10])[H:11])[H:9])([H:6])([H:7])[H:8]>>[C:1]([N:2]=[C:3]([H:10])[H:11])([H:6])([H:7])[H:8].[C:4]=[N:5][H:9]"
C        1.35818652      -0.49373299      -0.33963844
N        0.28854117       0.10925343       0.42838626
C       -0.39231724       1.13058940       0.06734245
C       -2.40085564      -0.40224797      -0.25798357
N       -2.24501663      -1.09959056       0.66310425
H        0.96363629      -1.37780129      -0.84396614
H        2.16396584      -0.78763257       0.33071027
H        1.73272123       0.21482150      -1.07572481
H       -0.22561687      -0.51246491       1.08251254
H       -1.21258119       1.46034651       0.68534379
H       -0.03066346       1.75845946      -0.74008660
11
Frame=2 idx=002845 GeodesicLength=0.14774947564894791 rxn_smarts="[C:1]([N:2]([C:3]([C:4]#[N:5])([H:10])[H:11])[H:9])([H:6])([H:7])[H:8]>>[C:1]([N:2]=[C:3]([H:10])[H:11])([H:6])([H:7])[H:8].[C:4]=[N:5][H:9]"
C        1.35755889      -0.49065120      -0.33955986
N        0.28623405       0.11110905       0.42738008
C       -0.40440404       1.12355290       0.04382154
C       -2.41071278      -0.41390216      -0.23853433
N       -2.23168151      -1.11128453       0.67767018
H        0.96649008      -1.36822551      -0.85821691
H        2.15433817      -0.79684366       0.33624039
H        1.74634874       0.22158255      -1.06510736
H       -0.24954603      -0.52478753       1.07436482
H       -1.20222802       1.47962912       0.67773067
H       -0.01239756       1.76982097      -0.73578921
11
Frame=3 idx=002845 GeodesicLength=0.22063020765333227 rxn_smarts="[C:1]([N:2]([C:3]([C:4]#[N:5])([H:10])[H:11])[H:9])([H:6])([H:7])[H:8]>>[C:1]([N:2]=[C:3]([H:10])[H:11])([H:6])([H:7])[H:8].[C:4]=[N:5][H:9]"
C        1.35708715      -0.48736463      -0.33914461
N        0.28446177       0.11294323       0.42743260
C       -0.41519772       1.11713066       0.02296061
C       -2.41932353      -0.42320791      -0.22043837
N       -2.21870891      -1.12194955       0.68958998
H        0.96940476      -1.35820801      -0.87193742
H        2.14521988      -0.80590010       0.34127124
H        1.75936116       0.22858129      -1.05408094
H       -0.27258871      -0.53749382       1.06709744
H       -1.18989427       1.49916518       0.67167723
H        0.00017842       1.77630367      -0.73442776
11
Frame=4 idx=002845 GeodesicLength=0.29326665295698373 rxn_smarts="[C:1]([N:2]([C:3]([C:4]#[N:5])([H:10])[H:11])[H:9])([H:6])([H:7])[H:8]>>[C:1]([N:2]=[C:3]([H:10])[H:11])([H:6])([H:7])[H:8].[C:4]=[N:5][H:9]"
C        1.35663063      -0.48391841      -0.33846534
N        0.28313836       0.11481807       0.42846197
C       -0.42500709       1.11126722       0.00451065
C       -2.42678552      -0.43090785      -0.20358248
N       -2.20607346      -1.13198860       0.69931717
H        0.97215116      -1.34780328      -0.88516190
H        2.13646668      -0.81486610       0.34576898
H        1.77170834       0.23571700      -1.04278600
H       -0.29482441      -0.55045245       1.06079999
H       -1.17600917       1.51892239       0.66679852
H        0.00860449       1.77921199      -0.73566155
11
Frame=5 idx=002845 GeodesicLength=0.365788386078789 rxn_smarts="[C:1]([N:2]([C:3]([C:4]#[N:5])([H:10])[H:11])[H:9])([H:6])([H:7])[H:8]>>[C:1]([N:2]=[C:3]([H:10])[H:11])([H:6])([H:7])[H:8].[C:4]=[N:5][H:9]"
C        1.35609058      -0.48035212      -0.33758732
N        0.28218788       0.11678593       0.43035636
C       -0.43408555       1.10589496      -0.01183362
C       -2.43319672      -0.43756073      -0.18786660
N       -2.19373986      -1.14167862       0.70721247
H        0.97458883      -1.33708905      -0.89788765
H        2.12797695      -0.82374655       0.34971711
H        1.78334688       0.24288200      -1.03136834
H       -0.31633304      -0.56353984       1.05551785
H       -1.16088063       1.53887183       0.66274570
H        0.01404468       1.77953220      -0.73900596
11
Frame=6 idx=002845 GeodesicLength=0.43824241928697 rxn_smarts="[C:1]([N:2]([C:3]([C:4]#[N:5])([H:10])[H:11])[H:9])([H:6])([H:7])[H:8]>>[C:1]([N:2]=[C:3]([H:10])[H:11])([H:6])([H:7])[H:8].[C:4]=[N:5][H:9]"
C        1.35539942      -0.47670367      -0.33656225
N        0.28155217       0.11888816       0.43300750
C       -0.44262279       1.10095269      -0.02634170
C       -2.43862087      -0.44356644      -0.17321409
N       -2.18165947      -1.15120101       0.71354194
H        0.97662694      -1.32614581      -0.91009495
H        2.11967831      -0.83252823       0.35311148
H        1.79425128       0.24996870      -1.01995600
H       -0.33719128      -0.57665273       1.05127353
H       -1.14472179       1.55898251       0.65923384
H        0.01730808       1.77800583      -0.74399932
11
Frame=7 idx=002845 GeodesicLength=0.5106485623483956 rxn_smarts="[C:1]([N:2]([C:3]([C:4]#[N:5])([H:10])[H:11])[H:9])([H:6])([H:7])[H:8]>>[C:1]([N:2]=[C:3]([H:10])[H:11])([H:6])([H:7])[H:8].[C:4]=[N:5][H:9]"
C        1.35451068      -0.47299330      -0.33543574
N        0.28119639       0.12116899       0.43632834
C       -0.45074745       1.09641232      -0.03923632
C       -2.44310843      -0.44920196      -0.15960649
N       -2.16979490      -1.16067176       0.71848243
H        0.97819950      -1.31506165      -0.92174038
H        2.11154113      -0.84115080       0.35594924
H        1.80437921       0.25689195      -1.00869947
H       -0.35746697      -0.58970640       1.04809017
H       -1.12767360       1.57925149       0.65604846
H        0.01896444       1.77506111      -0.75018022
11
Frame=8 idx=002845 GeodesicLength=0.5830287245403046 rxn_smarts="[C:1]([N:2]([C:3]([C:4]#[N:5])([H:10])[H:11])[H:9])([H:6])([H:7])[H:8]>>[C:1]([N:2]=[C:3]([H:10])[H:11])([H:6])([H:7])[H:8].[C:4]=[N:5][H:9]"
C        1.35339634      -0.46923971      -0.33423898
N        0.28110273       0.12366267       0.44025648
C       -0.45854520       1.09225817      -0.05067620
C       -2.44669070      -0.45466773      -0.14703691
N       -2.15811340      -1.17017479       0.72216528
H        0.97925147      -1.30390259      -0.93280299
H        2.10354288      -0.84958384       0.35824317
H        1.81372514       0.26358960      -0.99770695
H       -0.37722579      -0.60264619       1.04599027
H       -1.10982387       1.59967639       0.65303973
H        0.01938042       1.77102801      -0.75723292
11
Frame=9 idx=002845 GeodesicLength=0.655379868650068 rxn_smarts="[C:1]([N:2]([C:3]([C:4]#[N:5])([H:10])[H:11])[H:9])([H:6])([H:7])[H:8]>>[C:1]([N:2]=[C:3]([H:10])[H:11])([H:6])([H:7])[H:8].[C:4]=[N:5][H:9]"
C        1.35202879      -0.46545416      -0.33299053
N        0.28126520       0.12639912       0.44475285
C       -0.46607296       1.08848976      -0.06076031
C       -2.44937063      -0.46011031      -0.13553785
N       -2.14657799      -1.17975700       0.72467192
H        0.97973312      -1.29273322      -0.94324200
H        2.09567079      -0.85778289       0.36000473
H        1.82225877       0.27001370      -0.98707924
H       -0.39652328      -0.61544044       1.04498355
H       -1.09122108       1.62026004       0.65013441
H        0.01880926       1.76611541      -0.76493753
11
Frame=10 idx=002845 GeodesicLength=0.7277329613401239 rxn_smarts="[C:1]([N:2]([C:3]([C:4]#[N:5])([H:10])[H:11])[H:9])([H:6])([H:7])[H:8]>>[C:1]([N:2]=[C:3]([H:10])[H:11])([H:6])([H:7])[H:8].[C:4]=[N:5][H:9]"
C        1.35039951      -0.46164554      -0.33170884
N        0.28168822       0.12941006       0.44978719
C       -0.47337246       1.08511191      -0.06957299
C       -2.45115805      -0.46565772      -0.12512632
N       -2.13516525      -1.18946505       0.72609628
H        0.97959179      -1.28157135      -0.95308240
H        2.08790112      -0.86576644       0.36125700
H        1.83002558       0.27614246      -0.97686547
H       -0.41541551      -0.62805932       1.04510364
H       -1.07190500       1.64101301       0.64724573
H        0.01741006       1.76048798      -0.77313383
11
Frame=11 idx=002845 GeodesicLength=0.8000941489534856 rxn_smarts="[C:1]([N:2]([C:3]([C:4]#[N:5])([H:10])[H:11])[H:9])([H:6])([H:7])[H:8]>>[C:1]([N:2]=[C:3]([H:10])[H:11])([H:6])([H:7])[H:8].[C:4]=[N:5][H:9]"
C        1.34849674      -0.45781838      -0.33040406
N        0.28237892       0.13272191       0.45534084
C       -0.48047224       1.08213529      -0.07716409
C       -2.45204212      -0.47140772      -0.11584397
N       -2.12384566      -1.19931938       0.72650134
H        0.97878483      -1.27044134      -0.96232453
H        2.08021591      -0.87353168       0.36201784
H        1.83703876       0.28195899      -0.96711515
H       -0.43395425      -0.64048861       1.04636494
H       -1.05188850       1.66195128       0.64433371
H        0.01528763       1.75423964      -0.78170687
11
Frame=12 idx=002845 GeodesicLength=0.8724941017940497 rxn_smarts="[C:1]([N:2]([C:3]([C:4]#[N:5])([H:10])[H:11])[H:9])([H:6])([H:7])[H:8]>>[C:1]([N:2]=[C:3]([H:10])[H:11])([H:6])([H:7])[H:8].[C:4]=[N:5][H:9]"
C        1.34632879      -0.45397783      -0.32908915
N        0.28334889       0.13636462       0.46140076
C       -0.48739883       1.07957897      -0.08356822
C       -2.45204227      -0.47745683      -0.10773130
N       -2.11262238      -1.20934591       0.72595032
H        0.97728732      -1.25937456      -0.97098438
H        2.07261787      -0.88108107       0.36230160
H        1.84334398       0.28745391      -0.95787428
H       -0.45220013      -0.65271949       1.04878515
H       -1.03118093       1.68311696       0.64137573
H        0.01251770       1.74744123      -0.79056624
11
Frame=13 idx=002845 GeodesicLength=0.9448720373146567 rxn_smarts="[C:1]([N:2]([C:3]([C:4]#[N:5])([H:10])[H:11])[H:9])([H:6])([H:7])[H:8]>>[C:1]([N:2]=[C:3]([H:10])[H:11])([H:6])([H:7])[H:8].[C:4]=[N:5][H:9]"
C        1.34382771      -0.45012486      -0.32775880
N        0.28460814       0.14034298       0.46795794
C       -0.49416098       1.07743141      -0.08881670
C       -2.45098149      -0.48385281      -0.10091775
N       -2.10136986      -1.21947325       0.72449555
H        0.97499427      -1.24836339      -0.97901140
H        2.06504514      -0.88839719       0.36213703
H        1.84884923       0.29259082      -0.94920123
H       -0.47017447      -0.66473506       1.05238000
H       -1.00975964       1.70441415       0.63830263
H        0.00912195       1.74016718      -0.79956726
11
Frame=14 idx=002845 GeodesicLength=1.017307016896555 rxn_smarts="[C:1]([N:2]([C:3]([C:4]#[N:5])([H:10])[H:11])[H:9])([H:6])([H:7])[H:8]>>[C:1]([N:2]=[C:3]([H:10])[H:11])([H:6])([H:7])[H:8].[C:4]=[N:5][H:9]"
C        1.34102211      -0.44629547      -0.32645748
N        0.28620365       0.14475722       0.47504280
C       -0.50075774       1.07579780      -0.09287071
C       -2.44884079      -0.49087929      -0.09559840
N       -2.09016406      -1.22971720       0.72226365
H        0.97182950      -1.23752616      -0.98643062
H        2.05755207      -0.89551807       0.36146556
H        1.85363985       0.29730375      -0.94121497
H       -0.48794754      -0.67644721       1.05723753
H       -0.98779490       1.72595899       0.63513560
H        0.00525787       1.73256565      -0.80857294
11
Frame=15 idx=002845 GeodesicLength=1.0897368260094886 rxn_smarts="[C:1]([N:2]([C:3]([C:4]#[N:5])([H:10])[H:11])[H:9])([H:6])([H:7])[H:8]>>[C:1]([N:2]=[C:3]([H:10])[H:11])([H:6])([H:7])[H:8].[C:4]=[N:5][H:9]"
C        1.33783694      -0.44242861      -0.32511146
N        0.28808994       0.14949339       0.48258647
C       -0.50720997       1.07458446      -0.09578183
C       -2.44557933      -0.49828530      -0.09164270
N       -2.07882978      -1.24009869       0.71915152
H        0.96783117      -1.22673975      -0.99314416
H        2.05000794      -0.90235424       0.36042045
H        1.85756060       0.30169640      -0.93382779
H       -0.50554008      -0.68804481       1.06319165
H       -0.96490134       1.74772435       0.63186506
H        0.00073390       1.72445281      -0.81770722
11
Frame=16 idx=002845 GeodesicLength=1.1622536608250587 rxn_smarts="[C:1]([N:2]([C:3]([C:4]#[N:5])([H:10])[H:11])[H:9])([H:6])([H:7])[H:8]>>[C:1]([N:2]=[C:3]([H:10])[H:11])([H:6])([H:7])[H:8].[C:4]=[N:5][H:9]"
C        1.33434632      -0.43856463      -0.32378616
N        0.29032713       0.15466391       0.49063551
C       -0.51354070       1.07387875      -0.09751469
C       -2.44118582      -0.50637334      -0.08927861
N       -2.06751001      -1.25056354       0.71537627
H        0.96293619      -1.21608636      -0.99929537
H        2.04250264      -0.90900214       0.35894214
H        1.86081579       0.30570762      -0.92712474
H       -0.52304703      -0.69940004       1.07037873
H       -0.94129703       1.76977228       0.62847897
H       -0.00434748       1.71596748      -0.82681205
