15
Frame=0 idx=006065 GeodesicLength=0.0 rxn_smarts="[C:1]([C:2]([C:3]([C:4](=[O:5])[N:6]([H:14])[H:15])([H:12])[H:13])([H:10])[H:11])([H:7])([H:8])[H:9]>>[C:1]1([H:8])([H:9])[C:2]([H:10])([H:11])[C:3]([H:12])([H:13])[C:4]1([O:5][H:7])[N:6]([H:14])[H:15]"
C        1.46032759       0.58125248      -0.02543855
C        1.06988058      -0.71986824      -0.71594441
C       -0.29692997      -0.98590564      -0.10841217
C       -0.90836363       0.37554540       0.11845904
O       -0.96660956       1.31566233      -0.81118801
N       -1.78657691       0.51488688       1.09417379
H        0.06404943       1.41135061      -0.83061837
H        2.28129271       1.12075646      -0.50834904
H        1.74288718       0.40542118       1.01723474
H        0.96566456      -0.57078805      -1.79482438
H        1.73023590      -1.58730600      -0.58553038
H       -0.99529949      -1.58741176      -0.70648585
H       -0.19184522      -1.47145806       0.86570231
H       -2.25392851       1.39872939       1.20522445
H       -1.91478460      -0.20086703       1.78599677
15
Frame=1 idx=006065 GeodesicLength=0.11350454178199999 rxn_smarts="[C:1]([C:2]([C:3]([C:4](=[O:5])[N:6]([H:14])[H:15])([H:12])[H:13])([H:10])[H:11])([H:7])([H:8])[H:9]>>[C:1]1([H:8])([H:9])[C:2]([H:10])([H:11])[C:3]([H:12])([H:13])[C:4]1([O:5][H:7])[N:6]([H:14])[H:15]"
C        1.46320554       0.57980519      -0.03063253
C        1.06413131      -0.71728082      -0.72448291
C       -0.29141455      -0.98566346      -0.09325290
C       -0.90400718       0.37718696       0.12510838
O       -0.96271185       1.31636491      -0.80551323
N       -1.78626228       0.51796487       1.10226603
H        0.09480470       1.42645939      -0.83341465
H        2.29925196       1.10005437      -0.50836007
H        1.74391105       0.41446404       1.01412052
H        0.94654690      -0.55883696      -1.80057643
H        1.72716389      -1.58484671      -0.61610162
H       -0.98980915      -1.60143583      -0.67544618
H       -0.17332726      -1.45912269       0.88533045
H       -2.27152743       1.39361067       1.19968194
H       -1.95995566      -0.21872392       1.76127319
15
Frame=2 idx=006065 GeodesicLength=0.2269451792928788 rxn_smarts="[C:1]([C:2]([C:3]([C:4](=[O:5])[N:6]([H:14])[H:15])([H:12])[H:13])([H:10])[H:11])([H:7])([H:8])[H:9]>>[C:1]1([H:8])([H:9])[C:2]([H:10])([H:11])[C:3]([H:12])([H:13])[C:4]1([O:5][H:7])[N:6]([H:14])[H:15]"
C        1.46583876       0.57836777      -0.03566478
C        1.05806006      -0.71462729      -0.73279298
C       -0.28585624      -0.98542997      -0.07819096
C       -0.89989883       0.37863007       0.13181709
O       -0.95946044       1.31696305      -0.79962643
N       -1.78592790       0.52029239       1.11092191
H        0.12619140       1.44152777      -0.83691289
H        2.31670027       1.07887179      -0.50790542
H        1.74447916       0.42390480       1.01117428
H        0.92734059      -0.54679853      -1.80587094
H        1.72322007      -1.58218043      -0.64643536
H       -0.98378489      -1.61530011      -0.64449339
H       -0.15491988      -1.44679668       0.90454417
H       -2.28846744       1.38755862       1.19449510
H       -2.00351468      -0.23498324       1.73494061
15
Frame=3 idx=006065 GeodesicLength=0.34032747623130943 rxn_smarts="[C:1]([C:2]([C:3]([C:4](=[O:5])[N:6]([H:14])[H:15])([H:12])[H:13])([H:10])[H:11])([H:7])([H:8])[H:9]>>[C:1]1([H:8])([H:9])[C:2]([H:10])([H:11])[C:3]([H:12])([H:13])[C:4]1([O:5][H:7])[N:6]([H:14])[H:15]"
C        1.46786322       0.57707489      -0.04037943
C        1.05173661      -0.71188022      -0.74078085
C       -0.28031903      -0.98539782      -0.06346715
C       -0.89638893       0.37958860       0.13809533
O       -0.95716446       1.31711900      -0.79407535
N       -1.78666820       0.52129450       1.11900404
H        0.15801758       1.45639830      -0.84144514
H        2.33331336       1.05745709      -0.50659331
H        1.74398328       0.43398424       1.00861729
H        0.90836641      -0.53472089      -1.81066632
H        1.71862510      -1.57915279      -0.67621822
H       -0.97701245      -1.62938192      -0.61401396
H       -0.13685142      -1.43458890       0.92317441
H       -2.30235990       1.38186477       1.19136784
H       -2.04514117      -0.24965884       1.70738081
15
Frame=4 idx=006065 GeodesicLength=0.4536663134069686 rxn_smarts="[C:1]([C:2]([C:3]([C:4](=[O:5])[N:6]([H:14])[H:15])([H:12])[H:13])([H:10])[H:11])([H:7])([H:8])[H:9]>>[C:1]1([H:8])([H:9])[C:2]([H:10])([H:11])[C:3]([H:12])([H:13])[C:4]1([O:5][H:7])[N:6]([H:14])[H:15]"
C        1.46923485       0.57595762      -0.04477107
C        1.04520119      -0.70903988      -0.74844973
C       -0.27481179      -0.98559279      -0.04913471
C       -0.89352492       0.38002228       0.14382527
O       -0.95589118       1.31675220      -0.78901803
N       -1.78877975       0.52083410       1.12613310
H        0.19035998       1.47104709      -0.84713741
H        2.34906625       1.03584361      -0.50433166
H        1.74231734       0.44477571       1.00645695
H        0.88970894      -0.52263766      -1.81499506
H        1.71347132      -1.57573991      -0.70538701
H       -0.96944383      -1.64375248      -0.58408455
H       -0.11916602      -1.42249507       0.94119843
H       -2.31285897       1.37702482       1.19077342
H       -2.08488342      -0.26299962       1.67892206
15
Frame=5 idx=006065 GeodesicLength=0.566978576565611 rxn_smarts="[C:1]([C:2]([C:3]([C:4](=[O:5])[N:6]([H:14])[H:15])([H:12])[H:13])([H:10])[H:11])([H:7])([H:8])[H:9]>>[C:1]1([H:8])([H:9])[C:2]([H:10])([H:11])[C:3]([H:12])([H:13])[C:4]1([O:5][H:7])[N:6]([H:14])[H:15]"
C        1.47010255       0.57497376      -0.04890874
C        1.03844932      -0.70611305      -0.75585868
C       -0.26931871      -0.98592977      -0.03512334
C       -0.89116591       0.38005813       0.14915471
O       -0.95555291       1.31595565      -0.78433883
N       -1.79204073       0.51908254       1.13248533
H        0.22347680       1.48554650      -0.85395358
H        2.36410679       1.01391540      -0.50120775
H        1.73969633       0.45621744       1.00458278
H        0.87127720      -0.51053675      -1.81891871
H        1.70772087      -1.57199929      -0.73406071
H       -0.96115732      -1.65827036      -0.55458425
H       -0.10179517      -1.41045298       0.95867956
H       -2.32093310       1.37276897       1.19222477
H       -2.12286600      -0.27521619       1.64982744
15
Frame=6 idx=006065 GeodesicLength=0.680271079649996 rxn_smarts="[C:1]([C:2]([C:3]([C:4](=[O:5])[N:6]([H:14])[H:15])([H:12])[H:13])([H:10])[H:11])([H:7])([H:8])[H:9]>>[C:1]1([H:8])([H:9])[C:2]([H:10])([H:11])[C:3]([H:12])([H:13])[C:4]1([O:5][H:7])[N:6]([H:14])[H:15]"
C        1.47061287       0.57407578      -0.05285519
C        1.03145708      -0.70309740      -0.76306414
C       -0.26383142      -0.98631109      -0.02135959
C       -0.88916774       0.37984003       0.15425813
O       -0.95606377       1.31483922      -0.77989275
N       -1.79617968       0.51624928       1.13831127
H        0.25765068       1.49996239      -0.86185558
H        2.37858263       0.99152985      -0.49729757
H        1.73633802       0.46823185       1.00288829
H        0.85295945      -0.49838197      -1.82248676
H        1.70130023      -1.56798526      -0.76236681
H       -0.95225061      -1.67276596      -0.52538901
H       -0.08466677      -1.39840451       0.97567298
H       -2.32762867       1.36866435       1.19509264
H       -2.15911231      -0.28644654       1.62034409
15
Frame=7 idx=006065 GeodesicLength=0.7935481940573558 rxn_smarts="[C:1]([C:2]([C:3]([C:4](=[O:5])[N:6]([H:14])[H:15])([H:12])[H:13])([H:10])[H:11])([H:7])([H:8])[H:9]>>[C:1]1([H:8])([H:9])[C:2]([H:10])([H:11])[C:3]([H:12])([H:13])[C:4]1([O:5][H:7])[N:6]([H:14])[H:15]"
C        1.47086012       0.57323967      -0.05665615
C        1.02420252      -0.69998195      -0.77010462
C       -0.25834512      -0.98666532      -0.00778987
C       -0.88743436       0.37947098       0.15926382
O       -0.95739262       1.31346040      -0.77558847
N       -1.80100768       0.51248752       1.14379484
H        0.29313722       1.51432773      -0.87084930
H        2.39258533       0.96857877      -0.49263745
H        1.73238410       0.48078176       1.00129276
H        0.83467323      -0.48613790      -1.82573178
H        1.69415338      -1.56372423      -0.79039216
H       -0.94279151      -1.68711943      -0.49640958
H       -0.06772555      -1.38630563       0.99221984
H       -2.33361691       1.36440620       1.19896434
H       -2.19368215      -0.29681856       1.59062377
15
Frame=8 idx=006065 GeodesicLength=0.9068240662762931 rxn_smarts="[C:1]([C:2]([C:3]([C:4](=[O:5])[N:6]([H:14])[H:15])([H:12])[H:13])([H:10])[H:11])([H:7])([H:8])[H:9]>>[C:1]1([H:8])([H:9])[C:2]([H:10])([H:11])[C:3]([H:12])([H:13])[C:4]1([O:5][H:7])[N:6]([H:14])[H:15]"
C        1.47090064       0.57246025      -0.06034066
C        1.01666735      -0.69675076      -0.77700972
C       -0.25286529      -0.98694244       0.00561199
C       -0.88591348       0.37902763       0.16425538
O       -0.95955430       1.31185178      -0.77137878
N       -1.80640984       0.50790664       1.14905478
H        0.33018835       1.52864638      -0.88098524
H        2.40617695       0.94497075      -0.48721224
H        1.72790837       0.49386100       0.99974227
H        0.81636694      -0.47376824      -1.82868033
H        1.68624296      -1.55922614      -0.81819419
H       -0.93283356      -1.70124994      -0.46760177
H       -0.05093999      -1.37413126       1.00833741
H       -2.33935018       1.35979385       1.20356513
H       -2.22658493      -0.30644950       1.56083597
15
Frame=9 idx=006065 GeodesicLength=1.0200766945120712 rxn_smarts="[C:1]([C:2]([C:3]([C:4](=[O:5])[N:6]([H:14])[H:15])([H:12])[H:13])([H:10])[H:11])([H:7])([H:8])[H:9]>>[C:1]1([H:8])([H:9])[C:2]([H:10])([H:11])[C:3]([H:12])([H:13])[C:4]1([O:5][H:7])[N:6]([H:14])[H:15]"
C        1.47074472       0.57174593      -0.06393440
C        1.00883056      -0.69337617      -0.78379227
C       -0.24737883      -0.98710932       0.01887861
C       -0.88456545       0.37853950       0.16929036
O       -0.96259567       1.30995402      -0.76727240
N       -1.81228231       0.50255700       1.15418665
H        0.36903880       1.54291925      -0.89231639
H        2.41934374       0.92065000      -0.48100948
H        1.72293693       0.50748815       0.99818627
H        0.79799130      -0.46123733      -1.83134448
H        1.67753460      -1.55446596      -0.84580335
H       -0.92238017      -1.71510833      -0.43891475
H       -0.03426862      -1.36184758       1.02406026
H       -2.34493558       1.35473929       1.20883963
H       -2.25801400      -0.31544844       1.53094576
15
Frame=10 idx=006065 GeodesicLength=1.1333306355116772 rxn_smarts="[C:1]([C:2]([C:3]([C:4](=[O:5])[N:6]([H:14])[H:15])([H:12])[H:13])([H:10])[H:11])([H:7])([H:8])[H:9]>>[C:1]1([H:8])([H:9])[C:2]([H:10])([H:11])[C:3]([H:12])([H:13])[C:4]1([O:5][H:7])[N:6]([H:14])[H:15]"
C        1.47041445       0.57111058      -0.06744766
C        1.00067552      -0.68983432      -0.79047812
C       -0.24191331      -0.98713013       0.03199527
C       -0.88338755       0.37806960       0.17440666
O       -0.96658734       1.30779488      -0.76325773
N       -1.81858222       0.49651439       1.15924836
H        0.40999472       1.55709594      -0.90496196
H        2.43212576       0.89552561      -0.47393053
H        1.71746716       0.52168916       0.99659894
H        0.77952827      -0.44849891      -1.83374831
H        1.66800649      -1.54943866      -0.87325002
H       -0.91148874      -1.72863684      -0.41037128
H       -0.01771519      -1.34945369       1.03936218
H       -2.35071666       1.34910952       1.21458828
H       -2.28782135      -0.32391714       1.50124593
15
Frame=11 idx=006065 GeodesicLength=1.246573726472132 rxn_smarts="[C:1]([C:2]([C:3]([C:4](=[O:5])[N:6]([H:14])[H:15])([H:12])[H:13])([H:10])[H:11])([H:7])([H:8])[H:9]>>[C:1]1([H:8])([H:9])[C:2]([H:10])([H:11])[C:3]([H:12])([H:13])[C:4]1([O:5][H:7])[N:6]([H:14])[H:15]"
C        1.46989677       0.57058263      -0.07089770
C        0.99218173      -0.68608881      -0.79708104
C       -0.23647242      -0.98697916       0.04496517
C       -0.88237759       0.37764229       0.17963392
O       -0.97162816       1.30531586      -0.75935993
N       -1.82524921       0.48980654       1.16430712
H        0.45336790       1.57111997      -0.91904445
H        2.44449727       0.86953136      -0.46588886
H        1.71146495       0.53651826       0.99494467
H        0.76094922      -0.43550727      -1.83590526
H        1.65763762      -1.54410586      -0.90055045
H       -0.90016675      -1.74180231      -0.38196780
H       -0.00126115      -1.33693170       1.05424503
H       -2.35674693       1.34285753       1.22081049
H       -2.31609325      -0.33195932       1.47178908
15
Frame=12 idx=006065 GeodesicLength=1.359804360152856 rxn_smarts="[C:1]([C:2]([C:3]([C:4](=[O:5])[N:6]([H:14])[H:15])([H:12])[H:13])([H:10])[H:11])([H:7])([H:8])[H:9]>>[C:1]1([H:8])([H:9])[C:2]([H:10])([H:11])[C:3]([H:12])([H:13])[C:4]1([O:5][H:7])[N:6]([H:14])[H:15]"
C        1.46917002       0.57020037      -0.07429919
C        0.98332781      -0.68209717      -0.80361925
C       -0.23106823      -0.98663264       0.05777672
C       -0.88155056       0.37728149       0.18498919
O       -0.97784428       1.30245627      -0.75561329
N       -1.83223453       0.48245797       1.16942529
H        0.49953139       1.58490814      -0.93471250
H        2.45642818       0.84258859      -0.45675669
H        1.70486775       0.55204547       0.99319224
H        0.74223198      -0.42220668      -1.83783276
H        1.64641164      -1.53842214      -0.92772300
H       -0.88842687      -1.75457538      -0.35372305
H        0.01510235      -1.32427062       1.06869366
H       -2.36309474       1.33593705       1.22750387
H       -2.34285191      -0.33967070       1.44269876
15
Frame=13 idx=006065 GeodesicLength=1.4730209887692385 rxn_smarts="[C:1]([C:2]([C:3]([C:4](=[O:5])[N:6]([H:14])[H:15])([H:12])[H:13])([H:10])[H:11])([H:7])([H:8])[H:9]>>[C:1]1([H:8])([H:9])[C:2]([H:10])([H:11])[C:3]([H:12])([H:13])[C:4]1([O:5][H:7])[N:6]([H:14])[H:15]"
C        1.46820024       0.57001505      -0.07766973
C        0.97408874      -0.67780752      -0.81011427
C       -0.22571486      -0.98606706       0.07041157
C       -0.88093401       0.37700605       0.19048166
O       -0.98539117       1.29913963      -0.75205960
N       -1.83949056       0.47448324       1.17466967
H        0.54893007       1.59834269      -0.95214339
H        2.46787156       0.81460930      -0.44636908
H        1.69758349       0.56836435       0.99130773
H        0.72335208      -0.40853079      -1.83955092
H        1.63431349      -1.53232802      -0.95478865
H       -0.87627697      -1.76693150      -0.32566507
H        0.03138412      -1.31145844       1.08268567
H       -2.36979991       1.32830830       1.23469752
H       -2.36811632      -0.34714529       1.41410689
15
Frame=14 idx=006065 GeodesicLength=1.5862227000858076 rxn_smarts="[C:1]([C:2]([C:3]([C:4](=[O:5])[N:6]([H:14])[H:15])([H:12])[H:13])([H:10])[H:11])([H:7])([H:8])[H:9]>>[C:1]1([H:8])([H:9])[C:2]([H:10])([H:11])[C:3]([H:12])([H:13])[C:4]1([O:5][H:7])[N:6]([H:14])[H:15]"
C        1.46693932       0.57009374      -0.08103114
C        0.96443532      -0.67315626      -0.81659311
C       -0.22042899      -0.98525868       0.08284205
C       -0.88057092       0.37682925       0.19610971
O       -0.99445820       1.29527070      -0.74875120
N       -1.84696876       0.46588911       1.18011438
H        0.60210385       1.61126160      -0.97154163
H        2.47875747       0.78549291      -0.43451605
H        1.68948417       0.58559708       0.98925218
H        0.70428253      -0.39439867      -1.84108412
H        1.62132968      -1.52574714      -0.98177442
H       -0.86371985      -1.77885037      -0.29783402
H        0.04759264      -1.29848151       1.09618848
H       -2.37688220       1.31993451       1.24244677
H       -2.39189607      -0.35447626       1.38617213
15
Frame=15 idx=006065 GeodesicLength=1.6994093233826042 rxn_smarts="[C:1]([C:2]([C:3]([C:4](=[O:5])[N:6]([H:14])[H:15])([H:12])[H:13])([H:10])[H:11])([H:7])([H:8])[H:9]>>[C:1]1([H:8])([H:9])[C:2]([H:10])([H:11])[C:3]([H:12])([H:13])[C:4]1([O:5][H:7])[N:6]([H:14])[H:15]"
C        1.46532404       0.57052414      -0.08441423
C        0.95433127      -0.66806383      -0.82309189
C       -0.21522994      -0.98418055       0.09503043
C       -0.88052181       0.37675985       0.20186120
O       -1.00527268       1.29073650      -0.74574676
N       -1.85461766       0.45667512       1.18584505
H        0.65971942       1.62343928      -0.99314436
H        2.48898956       0.75511652      -0.42092808
H        1.68039742       0.60390593       0.98697624
H        0.68498882      -0.37970859      -1.84246377
H        1.60744507      -1.51858160      -1.00871937
H       -0.85075236      -1.79031405      -0.27028132
H        0.06373959      -1.28532027       1.10915800
H       -2.38435391       1.31077355       1.25082779
H       -2.41418684      -0.36176200       1.35909107
15
Frame=16 idx=006065 GeodesicLength=1.8125826805158498 rxn_smarts="[C:1]([C:2]([C:3]([C:4](=[O:5])[N:6]([H:14])[H:15])([H:12])[H:13])([H:10])[H:11])([H:7])([H:8])[H:9]>>[C:1]1([H:8])([H:9])[C:2]([H:10])([H:11])[C:3]([H:12])([H:13])[C:4]1([O:5][H:7])[N:6]([H:14])[H:15]"
C        1.46327208       0.57142239      -0.08786428
C        0.94373178      -0.66242965      -0.82965963
C       -0.21013903      -0.98280122       0.10692609
C       -0.88087003       0.37680021       0.20771006
O       -1.01810929       1.28540136      -0.74311201
N       -1.86238062       0.44683289       1.19196367
H        0.72260979       1.63455889      -1.01722246
H        2.49843219       0.72332862      -0.40525907
H        1.67009348       0.62350884       0.98441228
H        0.66542688      -0.36433080      -1.84373066
H        1.59264303      -1.51070540      -1.03567953
H       -0.83736221      -1.80130681      -0.24307186
H        0.07984262      -1.27194590       1.12153498
H       -2.39221798       1.30077683       1.25994429
H       -2.43497269      -0.36911023       1.33310812
