13
Frame=0 idx=009878 GeodesicLength=0.0 rxn_smarts="[C:1]([C@@:2]([O:3][C:4](=[O:5])[H:12])([C:6]#[C:7][H:13])[H:11])([H:8])([H:9])[H:10]>>[C:1]([C:2]([O:3][C:4](=[O:5])[H:12])=[C:6]=[C:7]([H:11])[H:13])([H:8])([H:9])[H:10]"
C       -1.20251101      -1.23896577       0.93075773
C       -0.21118527      -0.24819246       0.40734823
O        0.70016215      -0.92434576      -0.51002886
C        1.76768951      -0.36600180      -0.85208738
O        2.13165651       0.80163552      -0.44770259
C       -0.62208526       0.99629886      -0.08923806
C       -0.86872212       2.11915924      -0.47753511
H       -1.86439244      -0.71651776       1.62189004
H       -0.71683033      -2.04136846       1.48954421
H       -1.82887155      -1.69133411       0.15040155
H        1.42648081       1.16170300       0.13918909
H        2.45299444      -0.91264612      -1.48807593
H       -1.16438542       3.06057563      -0.87446293
13
Frame=1 idx=009878 GeodesicLength=0.22939350831948288 rxn_smarts="[C:1]([C@@:2]([O:3][C:4](=[O:5])[H:12])([C:6]#[C:7][H:13])[H:11])([H:8])([H:9])[H:10]>>[C:1]([C:2]([O:3][C:4](=[O:5])[H:12])=[C:6]=[C:7]([H:11])[H:13])([H:8])([H:9])[H:10]"
C       -1.18623879      -1.23842808       0.93924743
C       -0.24687241      -0.24836566       0.33604072
O        0.65740689      -0.90235561      -0.59852724
C        1.77163695      -0.38040710      -0.85407285
O        2.15343142       0.73806479      -0.35578453
C       -0.66866732       0.99994122      -0.13042924
C       -0.82131373       2.16466487      -0.44331648
H       -1.88980186      -0.70667401       1.57976417
H       -0.66167851      -1.96587773       1.56186331
H       -1.76986088      -1.79437834       0.19446953
H        1.36266176       1.15067620       0.17854245
H        2.43934262      -0.90003015      -1.53102644
H       -1.14004614       3.08316959      -0.87677084
13
Frame=2 idx=009878 GeodesicLength=0.4588806288182365 rxn_smarts="[C:1]([C@@:2]([O:3][C:4](=[O:5])[H:12])([C:6]#[C:7][H:13])[H:11])([H:8])([H:9])[H:10]>>[C:1]([C:2]([O:3][C:4](=[O:5])[H:12])=[C:6]=[C:7]([H:11])[H:13])([H:8])([H:9])[H:10]"
C       -1.16713047      -1.23349841       0.94469394
C       -0.28526448      -0.24663886       0.26282212
O        0.61693332      -0.87678495      -0.68442413
C        1.77199370      -0.40005229      -0.85529508
O        2.16668375       0.66116647      -0.26429978
C       -0.71497806       1.00672761      -0.17220463
C       -0.78206311       2.19819433      -0.41750810
H       -1.91753059      -0.70334419       1.53057628
H       -0.60539439      -1.87340486       1.62801533
H       -1.69546820      -1.89200518       0.24463851
H        1.29705863       1.13871025       0.21054752
H        2.42773927      -0.88834793      -1.56729768
H       -1.11257938       3.10927802      -0.86026431
13
Frame=3 idx=009878 GeodesicLength=0.6886854830177602 rxn_smarts="[C:1]([C@@:2]([O:3][C:4](=[O:5])[H:12])([C:6]#[C:7][H:13])[H:11])([H:8])([H:9])[H:10]>>[C:1]([C:2]([O:3][C:4](=[O:5])[H:12])=[C:6]=[C:7]([H:11])[H:13])([H:8])([H:9])[H:10]"
C       -1.14552423      -1.22425861       0.94682532
C       -0.32467706      -0.24350376       0.18970526
O        0.57940762      -0.84787337      -0.76702415
C        1.76897163      -0.42440454      -0.85663652
O        2.17149825       0.57217818      -0.17649836
C       -0.75987721       1.01604060      -0.21221812
C       -0.74823673       2.22312602      -0.39694324
H       -1.94641773      -0.70830775       1.47528597
H       -0.55175993      -1.76544287       1.68604683
H       -1.60533349      -1.98019607       0.29997568
H        1.23108828       1.12556404       0.23783404
H        2.41831304      -0.87994535      -1.59662596
H       -1.08745244       3.13702349      -0.82972675
13
Frame=4 idx=009878 GeodesicLength=0.9189850266624489 rxn_smarts="[C:1]([C@@:2]([O:3][C:4](=[O:5])[H:12])([C:6]#[C:7][H:13])[H:11])([H:8])([H:9])[H:10]>>[C:1]([C:2]([O:3][C:4](=[O:5])[H:12])=[C:6]=[C:7]([H:11])[H:13])([H:8])([H:9])[H:10]"
C       -1.12210533      -1.21184997       0.94603790
C       -0.36334386      -0.23895318       0.12040672
O        0.54500451      -0.81477385      -0.84467407
C        1.76235062      -0.45107241      -0.85937692
O        2.16908614       0.47318492      -0.09468234
C       -0.80318490       1.02733864      -0.24663391
C       -0.71946786       2.24178084      -0.37652954
H       -1.97514283      -0.72406296       1.41601796
H       -0.50492601      -1.64641416       1.73474677
H       -1.50047232      -2.05532130       0.35862329
H        1.16510719       1.11211481       0.26409679
H        2.40892164      -0.87380691      -1.62188479
H       -1.06182698       3.16183553      -0.79614785
13
Frame=5 idx=009878 GeodesicLength=1.1498576871192796 rxn_smarts="[C:1]([C@@:2]([O:3][C:4](=[O:5])[H:12])([C:6]#[C:7][H:13])[H:11])([H:8])([H:9])[H:10]>>[C:1]([C:2]([O:3][C:4](=[O:5])[H:12])=[C:6]=[C:7]([H:11])[H:13])([H:8])([H:9])[H:10]"
C       -1.09780247      -1.19701598       0.94285578
C       -0.39887894      -0.23267699       0.05794730
O        0.51468126      -0.77770555      -0.91526469
C        1.75345038      -0.47883255      -0.86409493
O        2.16246778       0.36501876      -0.02052502
C       -0.84442673       1.03954477      -0.27480792
C       -0.69590993       2.25526811      -0.35506533
H       -2.00215833      -0.75071330       1.35411762
H       -0.46931815      -1.52110317       1.77457859
H       -1.38362928      -2.11429351       0.41856863
H        1.09974453       1.10029006       0.29005420
H        2.39886330      -0.86989475      -1.64522984
H       -1.03708342       3.18211410      -0.76313439
13
Frame=6 idx=009878 GeodesicLength=1.3812045829926956 rxn_smarts="[C:1]([C@@:2]([O:3][C:4](=[O:5])[H:12])([C:6]#[C:7][H:13])[H:11])([H:8])([H:9])[H:10]>>[C:1]([C:2]([O:3][C:4](=[O:5])[H:12])=[C:6]=[C:7]([H:11])[H:13])([H:8])([H:9])[H:10]"
C       -1.07345170      -1.18053189       0.93805009
C       -0.42917661      -0.22434775       0.00431918
O        0.48930936      -0.73718821      -0.97730802
C        1.74397228      -0.50701674      -0.87089148
O        2.15471299       0.24729530       0.04541479
C       -0.88329128       1.05177280      -0.29715372
C       -0.67821680       2.26467945      -0.33231813
H       -2.02565729      -0.78706318       1.29084202
H       -0.44800989      -1.39469965       1.80682735
H       -1.25900272      -2.15541310       0.47828271
H        1.03566802       1.09241009       0.31535347
H        2.38806947      -0.86748916      -1.66863097
H       -1.01492582       3.19759204      -0.73278730
13
Frame=7 idx=009878 GeodesicLength=1.6127713085088045 rxn_smarts="[C:1]([C@@:2]([O:3][C:4](=[O:5])[H:12])([C:6]#[C:7][H:13])[H:11])([H:8])([H:9])[H:10]>>[C:1]([C:2]([O:3][C:4](=[O:5])[H:12])=[C:6]=[C:7]([H:11])[H:13])([H:8])([H:9])[H:10]"
C       -1.04942693      -1.16298554       0.93234323
C       -0.45281997      -0.21359582      -0.03986075
O        0.46957725      -0.69355256      -1.03029715
C        1.73549388      -0.53549200      -0.87947544
O        2.14811256       0.11847658       0.10306710
C       -0.91976852       1.06356944      -0.31473382
C       -0.66726304       2.27135735      -0.30859251
H       -2.04362325      -0.83085754       1.22750175
H       -0.44170718      -1.27197531       1.83274221
H       -1.13143943      -2.17843507       0.53671392
H        0.97316342       1.09074930       0.33959749
H        2.37711932      -0.86622508      -1.69293309
H       -0.99741811       3.20896625      -0.70607296
13
Frame=8 idx=009878 GeodesicLength=1.8442581997300318 rxn_smarts="[C:1]([C@@:2]([O:3][C:4](=[O:5])[H:12])([C:6]#[C:7][H:13])[H:11])([H:8])([H:9])[H:10]>>[C:1]([C:2]([O:3][C:4](=[O:5])[H:12])=[C:6]=[C:7]([H:11])[H:13])([H:8])([H:9])[H:10]"
C       -1.02558490      -1.14462126       0.92631919
C       -0.46888104      -0.19993826      -0.07481001
O        0.45622254      -0.64668464      -1.07425872
C        1.72931919      -0.56456487      -0.88924749
O        2.14394113      -0.02443472       0.15252203
C       -0.95409184       1.07477891      -0.32890703
C       -0.66425588       2.27676626      -0.28432119
H       -2.05426866      -0.87915568       1.16535018
H       -0.44887779      -1.15675800       1.85332793
H       -1.00560530      -2.18434172       0.59296741
H        0.91192556       1.09756556       0.36279715
H        2.36683050      -0.86597219      -1.71821974
H       -0.98667350       3.21736062      -0.68351972
13
Frame=9 idx=009878 GeodesicLength=2.075252165425963 rxn_smarts="[C:1]([C@@:2]([O:3][C:4](=[O:5])[H:12])([C:6]#[C:7][H:13])[H:11])([H:8])([H:9])[H:10]>>[C:1]([C:2]([O:3][C:4](=[O:5])[H:12])=[C:6]=[C:7]([H:11])[H:13])([H:8])([H:9])[H:10]"
C       -1.00137272      -1.12566486       0.92038129
C       -0.47656297      -0.18253535      -0.10053234
O        0.45025112      -0.59542488      -1.10895987
C        1.72645348      -0.59461593      -0.89910094
O        2.14247489      -0.18551715       0.19343884
C       -0.98694958       1.08541314      -0.34047613
C       -0.67139639       2.28245482      -0.25951746
H       -2.05590033      -0.92815875       1.10678699
H       -0.46532332      -1.05345546       1.86891662
H       -0.88676632      -2.17526416       0.64485650
H        0.85074302       1.11566030       0.38589180
H        2.35796144      -0.86643413      -1.74384929
H       -0.98361232       3.22354241      -0.66783603
13
Frame=10 idx=009878 GeodesicLength=2.3053774666074704 rxn_smarts="[C:1]([C@@:2]([O:3][C:4](=[O:5])[H:12])([C:6]#[C:7][H:13])[H:11])([H:8])([H:9])[H:10]>>[C:1]([C:2]([O:3][C:4](=[O:5])[H:12])=[C:6]=[C:7]([H:11])[H:13])([H:8])([H:9])[H:10]"
C       -0.97583707      -1.10501707       0.91472216
C       -0.47412271      -0.16029126      -0.11758751
O        0.45408234      -0.53894362      -1.13405791
C        1.72851134      -0.62768518      -0.90809572
O        2.14303064      -0.37166980       0.22386509
C       -1.01801298       1.09522525      -0.35231324
C       -0.69101855       2.28962663      -0.23496227
H       -2.04828891      -0.97407907       1.05080600
H       -0.48791252      -0.96161307       1.88107192
H       -0.77729281      -2.15378404       0.69206171
H        0.78850259       1.14833222       0.40896937
H        2.35189368      -0.86951045      -1.76905180
H       -0.99353504       3.22940946      -0.65542779
13
Frame=11 idx=009878 GeodesicLength=2.534065679185284 rxn_smarts="[C:1]([C@@:2]([O:3][C:4](=[O:5])[H:12])([C:6]#[C:7][H:13])[H:11])([H:8])([H:9])[H:10]>>[C:1]([C:2]([O:3][C:4](=[O:5])[H:12])=[C:6]=[C:7]([H:11])[H:13])([H:8])([H:9])[H:10]"
C       -0.94790015      -1.08091648       0.90943867
C       -0.45841668      -0.13139823      -0.12560342
O        0.47214094      -0.47622440      -1.14760245
C        1.73756605      -0.66787734      -0.91398080
O        2.14316085      -0.59292697       0.24043180
C       -1.04568350       1.10380999      -0.36805595
C       -0.72505282       2.29918313      -0.21394147
H       -2.03080548      -1.00931350       0.99942808
H       -0.51016571      -0.88270289       1.89009543
H       -0.68315176      -2.12277395       0.73164313
H        0.72403779       1.19990729       0.43237137
H        2.35140404      -0.87512166      -1.79203008
H       -1.02713356       3.23635501      -0.64219431
13
Frame=12 idx=009878 GeodesicLength=2.7603355326360846 rxn_smarts="[C:1]([C@@:2]([O:3][C:4](=[O:5])[H:12])([C:6]#[C:7][H:13])[H:11])([H:8])([H:9])[H:10]>>[C:1]([C:2]([O:3][C:4](=[O:5])[H:12])=[C:6]=[C:7]([H:11])[H:13])([H:8])([H:9])[H:10]"
C       -0.91582680      -1.05290491       0.90585008
C       -0.42662928      -0.09338747      -0.12128583
O        0.50872676      -0.40326923      -1.14544458
C        1.75373695      -0.71702317      -0.91593086
O        2.13392387      -0.86129879       0.23346135
C       -1.06934760       1.11037546      -0.38702283
C       -0.77829759       2.31122848      -0.19525571
H       -2.00363802      -1.03070986       0.95374176
H       -0.52708065      -0.81786784       1.89892675
H       -0.60634177      -2.08677641       0.76167088
H        0.65316980       1.27501248       0.46119067
H        2.35874268      -0.87537243      -1.81173420
H       -1.08113836       3.24199368      -0.63816750
13
Frame=13 idx=009878 GeodesicLength=2.981921660061074 rxn_smarts="[C:1]([C@@:2]([O:3][C:4](=[O:5])[H:12])([C:6]#[C:7][H:13])[H:11])([H:8])([H:9])[H:10]>>[C:1]([C:2]([O:3][C:4](=[O:5])[H:12])=[C:6]=[C:7]([H:11])[H:13])([H:8])([H:9])[H:10]"
C       -0.87663231      -1.01728066       0.90390170
C       -0.37312671      -0.04277043      -0.10347262
O        0.57459493      -0.31710822      -1.12145708
C        1.77745059      -0.78456032      -0.91297246
O        2.09929614      -1.18351162       0.18574176
C       -1.08199817       1.11447590      -0.41395491
C       -0.84862100       2.32480526      -0.18584452
H       -1.96580772      -1.03097859       0.91228076
H       -0.53429288      -0.76310822       1.90918107
H       -0.54805130      -2.04721086       0.78142838
H        0.57299454       1.37720822       0.49885670
H        2.38067254      -0.87572528      -1.82112330
H       -1.17647865       3.24576483      -0.63256549
13
Frame=14 idx=009878 GeodesicLength=3.1917471280254714 rxn_smarts="[C:1]([C@@:2]([O:3][C:4](=[O:5])[H:12])([C:6]#[C:7][H:13])[H:11])([H:8])([H:9])[H:10]>>[C:1]([C:2]([O:3][C:4](=[O:5])[H:12])=[C:6]=[C:7]([H:11])[H:13])([H:8])([H:9])[H:10]"
C       -0.82856394      -0.97845916       0.90742531
C       -0.30024724       0.02121236      -0.06400143
O        0.67299122      -0.21396818      -1.06221023
C        1.79728053      -0.86887277      -0.91176870
O        2.01853919      -1.53371758       0.06917487
C       -1.08245964       1.11353885      -0.44020464
C       -0.93531953       2.33489635      -0.18401089
H       -1.91692232      -1.02054371       0.87348374
H       -0.53646060      -0.72046521       1.92730976
H       -0.49879202      -2.00829167       0.79510627
H        0.47046235       1.50125885       0.56165858
H        2.41623102      -0.86557029      -1.81601960
H       -1.27673902       3.23898217      -0.65594305
13
Frame=15 idx=009878 GeodesicLength=3.3798676753611208 rxn_smarts="[C:1]([C@@:2]([O:3][C:4](=[O:5])[H:12])([C:6]#[C:7][H:13])[H:11])([H:8])([H:9])[H:10]>>[C:1]([C:2]([O:3][C:4](=[O:5])[H:12])=[C:6]=[C:7]([H:11])[H:13])([H:8])([H:9])[H:10]"
C       -0.77103877      -0.93835485       0.91766029
C       -0.21392481       0.09368761      -0.00581711
O        0.81147602      -0.10068783      -0.95437701
C        1.80334547      -0.96025763      -0.91939990
O        1.86925807      -1.85802662      -0.12796605
C       -1.06035717       1.10560261      -0.47102666
C       -1.01981071       2.33468847      -0.19872765
H       -1.85579521      -1.00762931       0.83383991
H       -0.53913780      -0.68367535       1.95360007
H       -0.44469624      -1.96925319       0.81329966
H        0.33553374       1.62687082       0.65611484
H        2.45839525      -0.86042757      -1.79431391
H       -1.37324785       3.21746284      -0.70288648
13
Frame=16 idx=009878 GeodesicLength=3.541920245826717 rxn_smarts="[C:1]([C@@:2]([O:3][C:4](=[O:5])[H:12])([C:6]#[C:7][H:13])[H:11])([H:8])([H:9])[H:10]>>[C:1]([C:2]([O:3][C:4](=[O:5])[H:12])=[C:6]=[C:7]([H:11])[H:13])([H:8])([H:9])[H:10]"
C       -0.70931270      -0.90481545       0.94050997
C       -0.12412096       0.16716019       0.07703574
O        0.97365420      -0.00525586      -0.78706084
C        1.77973403      -1.03621165      -0.94053540
O        1.65596354      -2.09287709      -0.40319152
C       -1.01153712       1.08650858      -0.50109964
C       -1.08343064       2.31835804      -0.23518967
H       -1.78345949      -1.01180105       0.78467373
H       -0.56358766      -0.65092598       1.99214804
H       -0.36628107      -1.93101750       0.85105348
H        0.17311800       1.73469462       0.76238622
H        2.48831484      -0.85258755      -1.76057657
H       -1.42905497       3.17877069      -0.78015354
