15
Frame=0 idx=009213 GeodesicLength=0.0 rxn_smarts="[C:1]([C:2]#[C:3][C:4]([C@@:5]1([H:13])[C:6]([H:14])([H:15])[O:7]1)([H:11])[H:12])([H:8])([H:9])[H:10]>>[C-:5]1=[O+:7][C:6]1([H:14])[H:15].[C:1]([C:2](=[C:3]=[C:4]([H:11])[H:12])[H:13])([H:8])([H:9])[H:10]"
C        2.09555108      -0.94366727      -1.42222871
C        1.08827238      -0.17419368      -0.65188609
C        0.98304633       0.66394952       0.30007952
C       -0.01985682       1.39699183       0.87682466
C       -1.43304919       0.46454067       0.05779483
C       -2.13498583      -0.44219274       0.99573960
O       -2.64449241       0.80456105       0.49325988
H        3.10599343      -0.70865931      -1.09205830
H        1.93086983      -2.01628420      -1.30538546
H        2.01467083      -0.71472855      -2.48614232
H       -0.12628721       2.43168878       0.56192019
H       -0.25176036       1.23694838       1.92815576
H       -0.07512262      -0.23296217      -0.91754571
H       -2.62609349      -1.32618569       0.60553053
H       -1.90675592      -0.43980662       2.05594166
15
Frame=1 idx=009213 GeodesicLength=0.09745629219355902 rxn_smarts="[C:1]([C:2]#[C:3][C:4]([C@@:5]1([H:13])[C:6]([H:14])([H:15])[O:7]1)([H:11])[H:12])([H:8])([H:9])[H:10]>>[C-:5]1=[O+:7][C:6]1([H:14])[H:15].[C:1]([C:2](=[C:3]=[C:4]([H:11])[H:12])[H:13])([H:8])([H:9])[H:10]"
C        2.10432237      -0.94002601      -1.42341321
C        1.09035408      -0.17554496      -0.65684632
C        0.98835104       0.66147870       0.29592690
C       -0.01351241       1.39453758       0.87794693
C       -1.44638373       0.45752118       0.05002922
C       -2.14872269      -0.44134300       0.99462721
O       -2.65309366       0.80759914       0.49198080
H        3.11354765      -0.69427389      -1.09688398
H        1.95160261      -2.01372287      -1.30018340
H        2.02053588      -0.71740840      -2.48850077
H       -0.11621479       2.43091855       0.56685702
H       -0.23200884       1.23666464       1.93244319
H       -0.10103247      -0.24592538      -0.90874781
H       -2.65348142      -1.32160018       0.61355404
H       -1.90426362      -0.43887510       2.05121017
15
Frame=2 idx=009213 GeodesicLength=0.19499113241276927 rxn_smarts="[C:1]([C:2]#[C:3][C:4]([C@@:5]1([H:13])[C:6]([H:14])([H:15])[O:7]1)([H:11])[H:12])([H:8])([H:9])[H:10]>>[C-:5]1=[O+:7][C:6]1([H:14])[H:15].[C:1]([C:2](=[C:3]=[C:4]([H:11])[H:12])[H:13])([H:8])([H:9])[H:10]"
C        2.11296907      -0.93677685      -1.42419155
C        1.09246134      -0.17629069      -0.66230498
C        0.99336828       0.65961538       0.29118699
C       -0.00735194       1.39243914       0.87891563
C       -1.46034848       0.45063358       0.04217659
C       -2.16192997      -0.44098236       0.99362300
O       -2.66207053       0.81011796       0.49157482
H        3.12082554      -0.68182567      -1.09998128
H        1.97054531      -2.01123872      -1.29519915
H        2.02795362      -0.71995437      -2.49044811
H       -0.10662973       2.43045806       0.57165943
H       -0.21174510       1.23675484       1.93654898
H       -0.12746321      -0.25656734      -0.90160090
H       -2.68000491      -1.31744398       0.62184156
H       -1.90057930      -0.43893900       2.04619897
15
Frame=3 idx=009213 GeodesicLength=0.29253817181222075 rxn_smarts="[C:1]([C:2]#[C:3][C:4]([C@@:5]1([H:13])[C:6]([H:14])([H:15])[O:7]1)([H:11])[H:12])([H:8])([H:9])[H:10]>>[C-:5]1=[O+:7][C:6]1([H:14])[H:15].[C:1]([C:2](=[C:3]=[C:4]([H:11])[H:12])[H:13])([H:8])([H:9])[H:10]"
C        2.12159219      -0.93384112      -1.42463990
C        1.09465548      -0.17674684      -0.66802297
C        0.99809578       0.65806181       0.28607457
C       -0.00133401       1.39058667       0.87976801
C       -1.47495790       0.44385635       0.03424462
C       -2.17476644      -0.44100190       0.99273779
O       -2.67140167       0.81222321       0.49193178
H        3.12796814      -0.67083062      -1.10173231
H        1.98822932      -2.00886284      -1.29044926
H        2.03658648      -0.72229733      -2.49203460
H       -0.09733740       2.43017931       0.57623754
H       -0.19101587       1.23726771       1.94049045
H       -0.15446937      -0.26518560      -0.89595385
H       -2.70589424      -1.31360049       0.63047294
H       -1.89595049      -0.43980832       2.04087518
15
Frame=4 idx=009213 GeodesicLength=0.39000968842316386 rxn_smarts="[C:1]([C:2]#[C:3][C:4]([C@@:5]1([H:13])[C:6]([H:14])([H:15])[O:7]1)([H:11])[H:12])([H:8])([H:9])[H:10]>>[C-:5]1=[O+:7][C:6]1([H:14])[H:15].[C:1]([C:2](=[C:3]=[C:4]([H:11])[H:12])[H:13])([H:8])([H:9])[H:10]"
C        2.13028531      -0.93115193      -1.42483380
C        1.09698652      -0.17717753      -0.67380507
C        1.00252970       0.65656025       0.28077239
C        0.00457301       1.38888497       0.88053264
C       -1.49022842       0.43716236       0.02623915
C       -2.18736526      -0.44130568       0.99198984
O       -2.68108642       0.81401910       0.49295631
H        3.13507275      -0.66091721      -1.10244612
H        2.00511100      -2.00659556      -1.28600155
H        2.04619975      -0.72436534      -2.49329966
H       -0.08818043       2.42996849       0.58050839
H       -0.16987335       1.23825013       1.94427374
H       -0.18209889      -0.27205797      -0.89164649
H       -2.73132655      -1.30996884       0.63950858
H       -1.89059872      -0.44130523       2.03525163
15
Frame=5 idx=009213 GeodesicLength=0.4873750114075357 rxn_smarts="[C:1]([C:2]#[C:3][C:4]([C@@:5]1([H:13])[C:6]([H:14])([H:15])[O:7]1)([H:11])[H:12])([H:8])([H:9])[H:10]>>[C-:5]1=[O+:7][C:6]1([H:14])[H:15].[C:1]([C:2](=[C:3]=[C:4]([H:11])[H:12])[H:13])([H:8])([H:9])[H:10]"
C        2.13910982      -0.92866682      -1.42481886
C        1.09950390      -0.17776018      -0.67950442
C        1.00666980       0.65493064       0.27542323
C        0.01039039       1.38727097       0.88123879
C       -1.50617854       0.43054433       0.01817029
C       -2.19981343      -0.44183301       0.99137968
O       -2.69111083       0.81555995       0.49459081
H        3.14220662      -0.65180990      -1.10235452
H        2.02151200      -2.00444136      -1.28186961
H        2.05659683      -0.72613885      -2.49426842
H       -0.07904997       2.42974966       0.58441651
H       -0.14834513       1.23974469       1.94790960
H       -0.21041157      -0.27735405      -0.88858272
H       -2.75642313      -1.30647534       0.64897529
H       -1.88465676      -0.44332075       2.02929434
15
Frame=6 idx=009213 GeodesicLength=0.584644242077329 rxn_smarts="[C:1]([C:2]#[C:3][C:4]([C@@:5]1([H:13])[C:6]([H:14])([H:15])[O:7]1)([H:11])[H:12])([H:8])([H:9])[H:10]>>[C-:5]1=[O+:7][C:6]1([H:14])[H:15].[C:1]([C:2](=[C:3]=[C:4]([H:11])[H:12])[H:13])([H:8])([H:9])[H:10]"
C        2.14811198      -0.92638327      -1.42458885
C        1.10221484      -0.17857810      -0.68508257
C        1.01048087       0.65307771       0.27007067
C        0.01612930       1.38572333       0.88189209
C       -1.52286299       0.42405614       0.01005320
C       -2.21213996      -0.44257594       0.99090507
O       -2.70149640       0.81689085       0.49690747
H        3.14944186      -0.64337973      -1.10151143
H        2.03758790      -2.00244036      -1.27798873
H        2.06771580      -0.72762742      -2.49495797
H       -0.06988351       2.42949188       0.58792277
H       -0.12640875       1.24178665       1.95138427
H       -0.23951832      -0.28104132      -0.88685816
H       -2.78123088      -1.30310554       0.65889527
H       -1.87814174      -0.44589488       2.02295689
15
Frame=7 idx=009213 GeodesicLength=0.6817933790233851 rxn_smarts="[C:1]([C:2]#[C:3][C:4]([C@@:5]1([H:13])[C:6]([H:14])([H:15])[O:7]1)([H:11])[H:12])([H:8])([H:9])[H:10]>>[C-:5]1=[O+:7][C:6]1([H:14])[H:15].[C:1]([C:2](=[C:3]=[C:4]([H:11])[H:12])[H:13])([H:8])([H:9])[H:10]"
C        2.15733735      -0.92428016      -1.42416295
C        1.10513983      -0.17973695      -0.69046738
C        1.01394700       0.65087984       0.26479709
C        0.02180262       1.38420357       0.88250611
C       -1.54032053       0.41771875       0.00189945
C       -2.22438596      -0.44350843       0.99056988
O       -2.71225207       0.81806448       0.49991834
H        3.15680725      -0.63547306      -1.10003039
H        2.05354830      -2.00058677      -1.27436388
H        2.07947309      -0.72883205      -2.49536753
H       -0.06060720       2.42914498       0.59098310
H       -0.10407147       1.24441212       1.95468460
H       -0.26949760      -0.28319043      -0.88646252
H       -2.80580405      -1.29982427       0.66927615
H       -1.87111656      -0.44899163       2.01621994
15
Frame=8 idx=009213 GeodesicLength=0.7788434030515708 rxn_smarts="[C:1]([C:2]#[C:3][C:4]([C@@:5]1([H:13])[C:6]([H:14])([H:15])[O:7]1)([H:11])[H:12])([H:8])([H:9])[H:10]>>[C-:5]1=[O+:7][C:6]1([H:14])[H:15].[C:1]([C:2](=[C:3]=[C:4]([H:11])[H:12])[H:13])([H:8])([H:9])[H:10]"
C        2.16682282      -0.92234974      -1.42354706
C        1.10830652      -0.18133245      -0.69558788
C        1.01705402       0.64823423       0.25967238
C        0.02742306       1.38268559       0.88309412
C       -1.55859100       0.41157033      -0.00627383
C       -2.23658506      -0.44461205       0.99035908
O       -2.72337734       0.81910739       0.50365486
H        3.16434018      -0.62793770      -1.09801897
H        2.06957632      -1.99889490      -1.27095245
H        2.09176508      -0.72978086      -2.49550824
H       -0.05116219       2.42867224       0.59355450
H       -0.08132733       1.24765537       1.95780998
H       -0.30043830      -0.28379910      -0.88739688
H       -2.83018784      -1.29660275       0.68012280
H       -1.86361894      -0.45261563       2.00901760
15
Frame=9 idx=009213 GeodesicLength=0.8758116460694099 rxn_smarts="[C:1]([C:2]#[C:3][C:4]([C@@:5]1([H:13])[C:6]([H:14])([H:15])[O:7]1)([H:11])[H:12])([H:8])([H:9])[H:10]>>[C-:5]1=[O+:7][C:6]1([H:14])[H:15].[C:1]([C:2](=[C:3]=[C:4]([H:11])[H:12])[H:13])([H:8])([H:9])[H:10]"
C        2.17660092      -0.92056962      -1.42277851
C        1.11176864      -0.18346668      -0.70033242
C        1.01981751       0.64502362       0.25480904
C        0.03299544       1.38113264       0.88368441
C       -1.57769853       0.40559466      -0.01444610
C       -2.24877372      -0.44584885       0.99025884
O       -2.73485425       0.82003406       0.50807791
H        3.17204449      -0.62063264      -1.09563713
H        2.08586567      -1.99733988      -1.26780405
H        2.10447604      -0.73047777      -2.49538995
H       -0.04149951       2.42802531       0.59559372
H       -0.05821854       1.25155832       1.96076039
H       -0.33239519      -0.28298065      -0.88950655
H       -2.85441681      -1.29338925       0.69138986
H       -1.85571215      -0.45666326       2.00132053
15
Frame=10 idx=009213 GeodesicLength=0.9727203267735398 rxn_smarts="[C:1]([C:2]#[C:3][C:4]([C@@:5]1([H:13])[C:6]([H:14])([H:15])[O:7]1)([H:11])[H:12])([H:8])([H:9])[H:10]>>[C-:5]1=[O+:7][C:6]1([H:14])[H:15].[C:1]([C:2](=[C:3]=[C:4]([H:11])[H:12])[H:13])([H:8])([H:9])[H:10]"
C        2.18667381      -0.91899323      -1.42176794
C        1.11546602      -0.18607602      -0.70481818
C        1.02215918       0.64129172       0.25011081
C        0.03852002       1.37959524       0.88423837
C       -1.59774593       0.39994786      -0.02259237
C       -2.26088011      -0.44730492       0.99026069
O       -2.74673950       0.82085298       0.51346251
H        3.17994443      -0.61366798      -1.09266535
H        2.10230169      -1.99599108      -1.26476322
H        2.11774147      -0.73098459      -2.49496970
H       -0.03162580       2.42724430       0.59706486
H       -0.03464971       1.25616159       1.96347240
H       -0.36554154      -0.28038919      -0.89314192
H       -2.87840333      -1.29027894       0.70309063
H       -1.84722069      -0.46140774       1.99301839
15
Frame=11 idx=009213 GeodesicLength=1.0696086119105563 rxn_smarts="[C:1]([C:2]#[C:3][C:4]([C@@:5]1([H:13])[C:6]([H:14])([H:15])[O:7]1)([H:11])[H:12])([H:8])([H:9])[H:10]>>[C-:5]1=[O+:7][C:6]1([H:14])[H:15].[C:1]([C:2](=[C:3]=[C:4]([H:11])[H:12])[H:13])([H:8])([H:9])[H:10]"
C        2.19703744      -0.91764519      -1.42049428
C        1.11941664      -0.18915190      -0.70903803
C        1.02406718       0.63702599       0.24559267
C        0.04399371       1.37809544       0.88475980
C       -1.61878798       0.39468990      -0.03067964
C       -2.27286369      -0.44901086       0.99033116
O       -2.75903157       0.82152982       0.51991128
H        3.18802658      -0.60706688      -1.08908495
H        2.11887462      -1.99486904      -1.26179032
H        2.13155889      -0.73135300      -2.49422875
H       -0.02154442       2.42634525       0.59793523
H       -0.01061669       1.26151610       1.96592443
H       -0.39998116      -0.27589019      -0.89831921
H       -2.90207750      -1.28730675       0.71516905
H       -1.83807203      -0.46690868       1.98401155
15
Frame=12 idx=009213 GeodesicLength=1.166492810923321 rxn_smarts="[C:1]([C:2]#[C:3][C:4]([C@@:5]1([H:13])[C:6]([H:14])([H:15])[O:7]1)([H:11])[H:12])([H:8])([H:9])[H:10]>>[C-:5]1=[O+:7][C:6]1([H:14])[H:15].[C:1]([C:2](=[C:3]=[C:4]([H:11])[H:12])[H:13])([H:8])([H:9])[H:10]"
C        2.20768198      -0.91656375      -1.41889939
C        1.12359488      -0.19266327      -0.71303824
C        1.02549423       0.63224048       0.24121752
C        0.04941623       1.37667059       0.88522985
C       -1.64091192       0.38993783      -0.03867583
C       -2.28466448      -0.45103099       0.99044111
O       -2.77174585       0.82205951       0.52762508
H        3.19626985      -0.60089632      -1.08478272
H        2.13552973      -1.99400672      -1.25879598
H        2.14598482      -0.73164799      -2.49310973
H       -0.01125878       2.42535264       0.59815858
H        0.01393512       1.26767116       1.96805312
H       -0.43585105      -0.26923305      -0.90518230
H       -2.92533937      -1.28455670       0.72758594
H       -1.82813538      -0.47333343       1.97417300
15
Frame=13 idx=009213 GeodesicLength=1.2634016948853923 rxn_smarts="[C:1]([C:2]#[C:3][C:4]([C@@:5]1([H:13])[C:6]([H:14])([H:15])[O:7]1)([H:11])[H:12])([H:8])([H:9])[H:10]>>[C-:5]1=[O+:7][C:6]1([H:14])[H:15].[C:1]([C:2](=[C:3]=[C:4]([H:11])[H:12])[H:13])([H:8])([H:9])[H:10]"
C        2.21858835      -0.91579142      -1.41694044
C        1.12800080      -0.19656947      -0.71683929
C        1.02641805       0.62695787       0.23696898
C        0.05478163       1.37536758       0.88563956
C       -1.66419150       0.38578496      -0.04653812
C       -2.29621448      -0.45342405       0.99054478
O       -2.78488870       0.82239311       0.53676824
H        3.20464475      -0.59524429      -1.07967754
H        2.15218532      -1.99344119      -1.25572204
H        2.16105591      -0.73193877      -2.49157206
H       -0.00078881       2.42430763       0.59769473
H        0.03902193       1.27469264       1.96982216
H       -0.47326823      -0.26018375      -0.91378614
H       -2.94806510      -1.28211497       0.74026375
H       -1.81727992      -0.48079589       1.96337344
15
Frame=14 idx=009213 GeodesicLength=1.360350527094022 rxn_smarts="[C:1]([C:2]#[C:3][C:4]([C@@:5]1([H:13])[C:6]([H:14])([H:15])[O:7]1)([H:11])[H:12])([H:8])([H:9])[H:10]>>[C-:5]1=[O+:7][C:6]1([H:14])[H:15].[C:1]([C:2](=[C:3]=[C:4]([H:11])[H:12])[H:13])([H:8])([H:9])[H:10]"
C        2.22971707      -0.91539966      -1.41452404
C        1.13259109      -0.20077203      -0.72053974
C        1.02678370       0.62126102       0.23275785
C        0.06008382       1.37426995       0.88595431
C       -1.68873078       0.38239346      -0.05421452
C       -2.30739699      -0.45630415       0.99059491
O       -2.79847455       0.82247419       0.54764292
H        3.21311661      -0.59028357      -1.07355886
H        2.16864923      -1.99324015      -1.25243049
H        2.17688355      -0.73232361      -2.48954044
H        0.00982453       2.42328066       0.59648863
H        0.06471045       1.28265343       1.97114602
H       -0.51239428      -0.24832246      -0.92431041
H       -2.97007947      -1.28013387       0.75313076
H       -1.80528398      -0.48955322       1.95140307
15
Frame=15 idx=009213 GeodesicLength=1.457356429213319 rxn_smarts="[C:1]([C:2]#[C:3][C:4]([C@@:5]1([H:13])[C:6]([H:14])([H:15])[O:7]1)([H:11])[H:12])([H:8])([H:9])[H:10]>>[C-:5]1=[O+:7][C:6]1([H:14])[H:15].[C:1]([C:2](=[C:3]=[C:4]([H:11])[H:12])[H:13])([H:8])([H:9])[H:10]"
C        2.24101152      -0.91546585      -1.41156555
C        1.13733855      -0.20513741      -0.72423464
C        1.02655354       0.61526095       0.22849853
C        0.06531253       1.37347674       0.88614520
C       -1.71462644       0.37990915      -0.06164503
C       -2.31807504      -0.45978960       0.99052536
O       -2.81250679       0.82221119       0.56052443
H        3.22162452      -0.58624280      -1.06621556
H        2.18467126      -1.99347089      -1.24881974
H        2.19358567      -0.73290401      -2.48693310
H        0.02051773       2.42236493       0.59449918
H        0.09104276       1.29164082       1.97195009
H       -0.55337904      -0.23324143      -0.93686084
H       -2.99115494      -1.27879532       0.76607543
H       -1.79191583      -0.49981646       1.93805623
15
Frame=16 idx=009213 GeodesicLength=1.5544154843243612 rxn_smarts="[C:1]([C:2]#[C:3][C:4]([C@@:5]1([H:13])[C:6]([H:14])([H:15])[O:7]1)([H:11])[H:12])([H:8])([H:9])[H:10]>>[C-:5]1=[O+:7][C:6]1([H:14])[H:15].[C:1]([C:2](=[C:3]=[C:4]([H:11])[H:12])[H:13])([H:8])([H:9])[H:10]"
C        2.25237530      -0.91610745      -1.40792943
C        1.14218294      -0.20942242      -0.72811217
C        1.02566288       0.60917079       0.22402019
C        0.07044705       1.37314714       0.88615701
C       -1.74200523       0.37853796      -0.06874783
C       -2.32803898      -0.46407072       0.99025255
O       -2.82698719       0.82146122       0.57582460
H        3.23008678      -0.58351284      -1.05726678
H        2.19979411      -1.99424418      -1.24473121
H        2.21138613      -0.73380954      -2.48363037
H        0.03117648       2.42171767       0.59167814
H        0.11810563       1.30177203       1.97211812
H       -0.59640808      -0.21433161      -0.95163177
H       -3.01096524      -1.27837881       0.77895732
H       -1.77681258      -0.51192924       1.92304163
