13
Frame=0 idx=000467 GeodesicLength=0.0 rxn_smarts="[O:1]([C@@:2]1([H:8])[C:3]([H:9])([H:10])[C@@:4]2([H:11])[N:5]([H:12])[C@@:6]12[H:13])[H:7]>>[O:1]([C@@:2]1([H:8])[C:3]([H:9])([H:10])[C:4]([H:11])([H:13])[N:5]([H:12])[C:6]1)[H:7]"
O        1.94571856       0.70269215       0.44870099
C        0.94285415       0.37808997      -0.46705178
C        0.29302422      -1.02212503      -0.32200025
C       -1.04839725      -0.40531993       0.00293835
N       -0.78081170       0.58794690       1.02675014
C       -0.35129717       1.22978601      -0.19553923
H        1.53495117       0.69643992       1.32033632
H        1.34722106       0.55846259      -1.46124866
H        0.69842392      -1.64091369       0.47867979
H        0.29567208      -1.58346926      -1.25543359
H       -2.02118003      -0.88735671       0.02924461
H       -1.63906703       1.01565263       1.35320538
H       -1.21711199       0.37011443      -0.95858201
13
Frame=1 idx=000467 GeodesicLength=0.05685505149453554 rxn_smarts="[O:1]([C@@:2]1([H:8])[C:3]([H:9])([H:10])[C@@:4]2([H:11])[N:5]([H:12])[C@@:6]12[H:13])[H:7]>>[O:1]([C@@:2]1([H:8])[C:3]([H:9])([H:10])[C:4]([H:11])([H:13])[N:5]([H:12])[C:6]1)[H:7]"
O        1.95753049       0.69079185       0.44609676
C        0.94488252       0.37638951      -0.46215630
C        0.29184850      -1.02256749      -0.32073343
C       -1.05262944      -0.40632919      -0.00430541
N       -0.78770612       0.58450134       1.02464947
C       -0.34439702       1.22742567      -0.18667624
H        1.54985918       0.71274686       1.31875179
H        1.34030641       0.55951561      -1.46004750
H        0.69371439      -1.63965888       0.48304320
H        0.30097819      -1.58559087      -1.25306993
H       -2.01999322      -0.89813961       0.02912020
H       -1.64492233       1.01341714       1.35182502
H       -1.22947153       0.38749806      -0.96649761
13
Frame=2 idx=000467 GeodesicLength=0.11369813107096967 rxn_smarts="[O:1]([C@@:2]1([H:8])[C:3]([H:9])([H:10])[C@@:4]2([H:11])[N:5]([H:12])[C@@:6]12[H:13])[H:7]>>[O:1]([C@@:2]1([H:8])[C:3]([H:9])([H:10])[C:4]([H:11])([H:13])[N:5]([H:12])[C:6]1)[H:7]"
O        1.96919145       0.67872384       0.44354775
C        0.94690523       0.37459699      -0.45714173
C        0.29065367      -1.02309570      -0.31939528
C       -1.05688377      -0.40737155      -0.01171753
N       -0.79472165       0.58091445       1.02250506
C       -0.33758543       1.22486197      -0.17767808
H        1.56527673       0.72951450       1.31657700
H        1.33342684       0.56054717      -1.45860033
H        0.68888961      -1.63845456       0.48752053
H        0.30634232      -1.58781123      -1.25057756
H       -2.01867415      -0.90894271       0.02873281
H       -1.65090137       1.01102675       1.35039956
H       -1.24191948       0.40549009      -0.97417221
13
Frame=3 idx=000467 GeodesicLength=0.17051965230932326 rxn_smarts="[O:1]([C@@:2]1([H:8])[C:3]([H:9])([H:10])[C@@:4]2([H:11])[N:5]([H:12])[C@@:6]12[H:13])[H:7]>>[O:1]([C@@:2]1([H:8])[C:3]([H:9])([H:10])[C:4]([H:11])([H:13])[N:5]([H:12])[C:6]1)[H:7]"
O        1.98068414       0.66651010       0.44107090
C        0.94892104       0.37271155      -0.45200342
C        0.28944196      -1.02371228      -0.31798283
C       -1.06115536      -0.40845008      -0.01929735
N       -0.80186317       0.57718798       1.02031210
C       -0.33086902       1.22208954      -0.16854742
H        1.58121495       0.74672094       1.31377620
H        1.32658955       0.56155561      -1.45690134
H        0.68395468      -1.63730207       0.49211215
H        0.31176647      -1.59013207      -1.24795236
H       -2.01722461      -0.91975792       0.02807601
H       -1.65700859       1.00848335       1.34892497
H       -1.25445203       0.42409536      -0.98158760
13
Frame=4 idx=000467 GeodesicLength=0.22730822405556358 rxn_smarts="[O:1]([C@@:2]1([H:8])[C:3]([H:9])([H:10])[C@@:4]2([H:11])[N:5]([H:12])[C@@:6]12[H:13])[H:7]>>[O:1]([C@@:2]1([H:8])[C:3]([H:9])([H:10])[C:4]([H:11])([H:13])[N:5]([H:12])[C:6]1)[H:7]"
O        1.99199127       0.65417407       0.43868346
C        0.95092824       0.37073236      -0.44673664
C        0.28821627      -1.02441907      -0.31649305
C       -1.06543836      -0.40956764      -0.02704351
N       -0.80913549       0.57332440       1.01806473
C       -0.32425527       1.21910285      -0.15928763
H        1.59768248       0.76433888       1.31031379
H        1.31980070       0.56253877      -1.45494447
H        0.67891659      -1.63620192       0.49681778
H        0.31725293      -1.59255357      -1.24518990
H       -2.01564564      -0.93057629       0.02714489
H       -1.66324832       1.00578978       1.34739542
H       -1.26706539       0.44331737      -0.98872486
13
Frame=5 idx=000467 GeodesicLength=0.28405442374651374 rxn_smarts="[O:1]([C@@:2]1([H:8])[C:3]([H:9])([H:10])[C@@:4]2([H:11])[N:5]([H:12])[C@@:6]12[H:13])[H:7]>>[O:1]([C@@:2]1([H:8])[C:3]([H:9])([H:10])[C:4]([H:11])([H:13])[N:5]([H:12])[C:6]1)[H:7]"
O        2.00309877       0.64173591       0.43640510
C        0.95292682       0.36865916      -0.44133675
C        0.28697845      -1.02521879      -0.31492429
C       -1.06972718      -0.41072844      -0.03495338
N       -0.81654297       0.56932663       1.01575841
C       -0.31774935       1.21589708      -0.14990223
H        1.61468249       0.78234992       1.30615375
H        1.31306918       0.56349651      -1.45272476
H        0.67377959      -1.63515702       0.50163555
H        0.32280123      -1.59507580      -1.24228910
H       -2.01393979      -0.94139223       0.02593605
H       -1.66962400       1.00294975       1.34580716
H       -1.27975322       0.46315731      -0.99556550
13
Frame=6 idx=000467 GeodesicLength=0.3407451666645554 rxn_smarts="[O:1]([C@@:2]1([H:8])[C:3]([H:9])([H:10])[C@@:4]2([H:11])[N:5]([H:12])[C@@:6]12[H:13])[H:7]>>[O:1]([C@@:2]1([H:8])[C:3]([H:9])([H:10])[C:4]([H:11])([H:13])[N:5]([H:12])[C:6]1)[H:7]"
O        2.01398977       0.62922544       0.43425154
C        0.95491381       0.36649202      -0.43579982
C        0.28573282      -1.02611248      -0.31327238
C       -1.07401420      -0.41193517      -0.04302426
N       -0.82409017       0.56519823       1.01338670
C       -0.31135987       1.21246788      -0.14039458
H        1.63221955       0.80071332       1.30126124
H        1.30639806       0.56442614      -1.45023791
H        0.66855361      -1.63416621       0.50656659
H        0.32841531      -1.59769886      -1.23924346
H       -2.01210790      -0.95219456       0.02444311
H       -1.67614005       0.99996699       1.34415310
H       -1.29251076       0.48361725      -1.00208988
13
Frame=7 idx=000467 GeodesicLength=0.3973712550517817 rxn_smarts="[O:1]([C@@:2]1([H:8])[C:3]([H:9])([H:10])[C@@:4]2([H:11])[N:5]([H:12])[C@@:6]12[H:13])[H:7]>>[O:1]([C@@:2]1([H:8])[C:3]([H:9])([H:10])[C:4]([H:11])([H:13])[N:5]([H:12])[C:6]1)[H:7]"
O        2.02465293       0.61666763       0.43224139
C        0.95688930       0.36423162      -0.43012250
C        0.28448254      -1.02710223      -0.31153530
C       -1.07829308      -0.41319237      -0.05125189
N       -0.83178139       0.56094347       1.01094558
C       -0.30509257       1.20881157      -0.13076852
H        1.65029168       0.81940119       1.29560257
H        1.29979513       0.56532703      -1.44748170
H        0.66324561      -1.63323101       0.51160999
H        0.33409563      -1.60042277      -1.23605178
H       -2.01015455      -0.96297664       0.02266180
H       -1.68280042       0.99684657       1.34243022
H       -1.30533079       0.50469593      -1.00827985
13
Frame=8 idx=000467 GeodesicLength=0.45393991632374847 rxn_smarts="[O:1]([C@@:2]1([H:8])[C:3]([H:9])([H:10])[C@@:4]2([H:11])[N:5]([H:12])[C@@:6]12[H:13])[H:7]>>[O:1]([C@@:2]1([H:8])[C:3]([H:9])([H:10])[C:4]([H:11])([H:13])[N:5]([H:12])[C:6]1)[H:7]"
O        2.03508811       0.60406683       0.43038560
C        0.95885096       0.36187372      -0.42429602
C        0.28322668      -1.02819210      -0.30970454
C       -1.08256058      -0.41449927      -0.05964698
N       -0.83962386       0.55655100       1.00843441
C       -0.29894691       1.20492461      -0.12100706
H        1.66892033       0.83842969       1.28912037
H        1.29325180       0.56619664      -1.44445103
H        0.65784592      -1.63235044       0.51677991
H        0.33985211      -1.60325753      -1.23269865
H       -2.00808398      -0.97373193       0.02055821
H       -1.68961626       0.99356913       1.34063655
H       -1.31820431       0.52641964      -1.01411076
13
Frame=9 idx=000467 GeodesicLength=0.5104360813512294 rxn_smarts="[O:1]([C@@:2]1([H:8])[C:3]([H:9])([H:10])[C@@:4]2([H:11])[N:5]([H:12])[C@@:6]12[H:13])[H:7]>>[O:1]([C@@:2]1([H:8])[C:3]([H:9])([H:10])[C:4]([H:11])([H:13])[N:5]([H:12])[C:6]1)[H:7]"
O        2.04528173       0.59144664       0.42870494
C        0.96079811       0.35941812      -0.41831649
C        0.28196979      -1.02938321      -0.30777811
C       -1.08680836      -0.41586028      -0.06820279
N       -0.84762187       0.55202541       1.00584752
C       -0.29293036       1.20080166      -0.11111484
H        1.68809728       0.85776825       1.28177540
H        1.28677766       0.56703389      -1.44114073
H        0.65236439      -1.63152634       0.52207251
H        0.34568516      -1.60619887      -1.22918294
H       -2.00590018      -0.98445151       0.01812983
H       -1.69659075       0.99014176       1.33876734
H       -1.33112261       0.54878449      -1.01956166
13
Frame=10 idx=000467 GeodesicLength=0.5668733931379316 rxn_smarts="[O:1]([C@@:2]1([H:8])[C:3]([H:9])([H:10])[C@@:4]2([H:11])[N:5]([H:12])[C@@:6]12[H:13])[H:7]>>[O:1]([C@@:2]1([H:8])[C:3]([H:9])([H:10])[C:4]([H:11])([H:13])[N:5]([H:12])[C:6]1)[H:7]"
O        2.05523403       0.57881453       0.42721444
C        0.96272961       0.35686029      -0.41217589
C        0.28071254      -1.03068383      -0.30574653
C       -1.09103231      -0.41727596      -0.07692955
N       -0.85578370       0.54735497       1.00318806
C       -0.28704269       1.19644111      -0.10107338
H        1.70784162       0.87743826       1.27350304
H        1.28036633       0.56783652      -1.43754960
H        0.64679371      -1.63076322       0.52750570
H        0.35160520      -1.60926185      -1.22549121
H       -2.00361317      -0.99512604       0.01533377
H       -1.70373643       0.98654549       1.33682858
H       -1.34407474       0.57181972      -1.02460742
13
Frame=11 idx=000467 GeodesicLength=0.6232510226551019 rxn_smarts="[O:1]([C@@:2]1([H:8])[C:3]([H:9])([H:10])[C@@:4]2([H:11])[N:5]([H:12])[C@@:6]12[H:13])[H:7]>>[O:1]([C@@:2]1([H:8])[C:3]([H:9])([H:10])[C:4]([H:11])([H:13])[N:5]([H:12])[C:6]1)[H:7]"
O        2.06494331       0.56617600       0.42592927
C        0.96464200       0.35419526      -0.40586142
C        0.27945225      -1.03209362      -0.30359857
C       -1.09522832      -0.41874515      -0.08583694
N       -0.86411577       0.54252494       1.00045111
C       -0.28128336       1.19183268      -0.09086294
H        1.72817948       0.89745587       1.26422626
H        1.27401004       0.56860128      -1.43366225
H        0.64112172      -1.63005401       0.53309116
H        0.35762052      -1.61244892      -1.22160113
H       -2.00123190      -1.00574551       0.01212894
H       -1.71106285       0.98275435       1.33481280
H       -1.35704712       0.59554683      -1.02921631
13
Frame=12 idx=000467 GeodesicLength=0.6795609840784258 rxn_smarts="[O:1]([C@@:2]1([H:8])[C:3]([H:9])([H:10])[C@@:4]2([H:11])[N:5]([H:12])[C@@:6]12[H:13])[H:7]>>[O:1]([C@@:2]1([H:8])[C:3]([H:9])([H:10])[C:4]([H:11])([H:13])[N:5]([H:12])[C:6]1)[H:7]"
O        2.07439675       0.55354866       0.42488363
C        0.96653585       0.35142339      -0.39936617
C        0.27819266      -1.03361543      -0.30133496
C       -1.09938691      -0.42027197      -0.09491715
N       -0.87262359       0.53754344       0.99763246
C       -0.27565925       1.18697322      -0.08048695
H        1.74909643       0.91779641       1.25388887
H        1.26772227       0.56932703      -1.42947207
H        0.63535553      -1.62940712       0.53882225
H        0.36373532      -1.61575327      -1.21751890
H       -1.99875788      -1.01630769       0.00852015
H       -1.71857676       0.97877919       1.33271368
H       -1.37003043       0.61996414      -1.03336482
13
Frame=13 idx=000467 GeodesicLength=0.7358138233881483 rxn_smarts="[O:1]([C@@:2]1([H:8])[C:3]([H:9])([H:10])[C@@:4]2([H:11])[N:5]([H:12])[C@@:6]12[H:13])[H:7]>>[O:1]([C@@:2]1([H:8])[C:3]([H:9])([H:10])[C:4]([H:11])([H:13])[N:5]([H:12])[C:6]1)[H:7]"
O        2.08358906       0.54093302       0.42410568
C        0.96840999       0.34853872      -0.39267712
C        0.27693307      -1.03525757      -0.29894737
C       -1.10350178      -0.42185715      -0.10417826
N       -0.88131755       0.53239737       0.99473480
C       -0.27016973       1.18185843      -0.06992263
H        1.77061188       0.93849468       1.24239795
H        1.26150224       0.57001422      -1.42496868
H        0.62948149      -1.62883209       0.54471155
H        0.36995835      -1.61918504      -1.21323280
H       -1.99619959      -1.02680725       0.00446538
H       -1.72629231       0.97460194       1.33053350
H       -1.38300511       0.64510073      -1.03702201
13
Frame=14 idx=000467 GeodesicLength=0.7920157432289138 rxn_smarts="[O:1]([C@@:2]1([H:8])[C:3]([H:9])([H:10])[C@@:4]2([H:11])[N:5]([H:12])[C@@:6]12[H:13])[H:7]>>[O:1]([C@@:2]1([H:8])[C:3]([H:9])([H:10])[C:4]([H:11])([H:13])[N:5]([H:12])[C:6]1)[H:7]"
O        2.09251476       0.52835563       0.42361283
C        0.97026008       0.34554019      -0.38578373
C        0.27567464      -1.03702197      -0.29642257
C       -1.10756566      -0.42349927      -0.11363015
N       -0.89020956       0.52707624       0.99175536
C       -0.26481733       1.17648323      -0.05914817
H        1.79275281       0.95953040       1.22966785
H        1.25534246       0.57066209      -1.42014314
H        0.62349284      -1.62832129       0.55077849
H        0.37630315      -1.62275439      -1.20871877
H       -1.99356501      -1.03723649      -0.00007911
H       -1.73422745       0.97020282       1.32826544
H       -1.39595572       0.67098281      -1.04015435
13
Frame=15 idx=000467 GeodesicLength=0.8481815793915825 rxn_smarts="[O:1]([C@@:2]1([H:8])[C:3]([H:9])([H:10])[C@@:4]2([H:11])[N:5]([H:12])[C@@:6]12[H:13])[H:7]>>[O:1]([C@@:2]1([H:8])[C:3]([H:9])([H:10])[C:4]([H:11])([H:13])[N:5]([H:12])[C:6]1)[H:7]"
O        2.10116668       0.51580084       0.42345961
C        0.97208750       0.34241483      -0.37866346
C        0.27441639      -1.03891825      -0.29375302
C       -1.11157209      -0.42519713      -0.12328339
N       -0.89931026       0.52156227       0.98869693
C       -0.25960268       1.17083568      -0.04813628
H        1.81554135       0.98097264       1.21556244
H        1.24924972       0.57126812      -1.41497157
H        0.61737750      -1.62789122       0.55702998
H        0.38277585      -1.62646643      -1.20396847
H       -1.99086584      -1.04758486      -0.00516197
H       -1.74239849       0.96555821       1.32591107
H       -1.40886564       0.69764531      -1.04272188
13
Frame=16 idx=000467 GeodesicLength=0.9043117403560363 rxn_smarts="[O:1]([C@@:2]1([H:8])[C:3]([H:9])([H:10])[C@@:4]2([H:11])[N:5]([H:12])[C@@:6]12[H:13])[H:7]>>[O:1]([C@@:2]1([H:8])[C:3]([H:9])([H:10])[C:4]([H:11])([H:13])[N:5]([H:12])[C:6]1)[H:7]"
O        2.10953031       0.50329738       0.42367415
C        0.97388675       0.33916300      -0.37130026
C        0.27315567      -1.04094804      -0.29092187
C       -1.11551046      -0.42694974      -0.13314819
N       -0.90863328       0.51584069       0.98555462
C       -0.25452415       1.16490878      -0.03685845
H        1.83901222       1.00280474       1.19995874
H        1.24321841       0.57183785      -1.40943563
H        0.61111722      -1.62753544       0.56348644
H        0.38938834      -1.63032865      -1.19895109
H       -1.98810920      -1.05784780      -0.01083490
H       -1.75082556       0.96063931       1.32345739
H       -1.42170628       0.72511793      -1.04468096
