18
Frame=0 idx=003410 GeodesicLength=0.0 rxn_smarts="[C:1]([C@@:2]1([H:10])[C:3]([H:11])([H:12])[C:4]([H:13])([H:14])[C@:5]1([C:6]([H:16])([H:17])[H:18])[H:15])([H:7])([H:8])[H:9]>>[C:1]([C@@:2]([C:3]([C:4]([H:13])([H:14])[H:15])([H:11])[H:12])([C:5][C:6]([H:16])([H:17])[H:18])[H:10])([H:7])([H:8])[H:9]"
C       -1.52579057       0.77487685       0.12055135
C       -0.49992915      -0.11538312       0.82328313
C       -0.48220087      -1.52797537       0.22910828
C        0.62181343      -1.33243097      -0.79761414
C        0.98676259       0.20884085       0.63956310
C        1.33363905       1.46994930      -0.07957827
H       -1.44523074       1.81700146       0.43719039
H       -1.42259882       0.75148130      -0.96742018
H       -2.53665171       0.43630102       0.35990860
H       -0.72936558      -0.11433596       1.89392394
H       -0.15774438      -2.25236399       0.97747353
H       -1.43607274      -1.86581821      -0.18139089
H        0.34817472      -0.71999002      -1.65336953
H        1.17873130      -2.21392069      -1.11996316
H        1.47366791      -0.82438084      -0.05806219
H        0.70044102       1.76395070      -0.92668744
H        1.21133116       2.24784209       0.68561276
H        2.38102332       1.49635554      -0.38252935
18
Frame=1 idx=003410 GeodesicLength=0.055526430561464175 rxn_smarts="[C:1]([C@@:2]1([H:10])[C:3]([H:11])([H:12])[C:4]([H:13])([H:14])[C@:5]1([C:6]([H:16])([H:17])[H:18])[H:15])([H:7])([H:8])[H:9]>>[C:1]([C@@:2]([C:3]([C:4]([H:13])([H:14])[H:15])([H:11])[H:12])([C:5][C:6]([H:16])([H:17])[H:18])[H:10])([H:7])([H:8])[H:9]"
C       -1.52678992       0.77426061       0.11556099
C       -0.49927088      -0.11373202       0.81790689
C       -0.48282712      -1.53005451       0.23153990
C        0.61960980      -1.33684127      -0.79859458
C        0.98503797       0.20935341       0.62785143
C        1.33402227       1.47929468      -0.07362552
H       -1.44953691       1.81607973       0.43387339
H       -1.42234851       0.75329761      -0.97230975
H       -2.53697061       0.43196123       0.35231559
H       -0.71867736      -0.10660738       1.89096113
H       -0.15658498      -2.24981704       0.98358320
H       -1.43736678      -1.87036762      -0.17519286
H        0.33839088      -0.73452309      -1.65954226
H        1.16571884      -2.22399638      -1.12390730
H        1.49096522      -0.83770832      -0.05597868
H        0.69857903       1.78347545      -0.91517177
H        1.21774416       2.24862588       0.70112856
H        2.38030489       1.50729904      -0.38039834
18
Frame=2 idx=003410 GeodesicLength=0.11106917301118555 rxn_smarts="[C:1]([C@@:2]1([H:10])[C:3]([H:11])([H:12])[C:4]([H:13])([H:14])[C@:5]1([C:6]([H:16])([H:17])[H:18])[H:15])([H:7])([H:8])[H:9]>>[C:1]([C@@:2]([C:3]([C:4]([H:13])([H:14])[H:15])([H:11])[H:12])([C:5][C:6]([H:16])([H:17])[H:18])[H:10])([H:7])([H:8])[H:9]"
C       -1.52776479       0.77364355       0.11043449
C       -0.49853642      -0.11203549       0.81238019
C       -0.48345706      -1.53211185       0.23398393
C        0.61735518      -1.34138801      -0.79966204
C        0.98335585       0.20987099       0.61559629
C        1.33437125       1.48875878      -0.06751747
H       -1.45387058       1.81513251       0.43047437
H       -1.42204255       0.75514937      -0.97732723
H       -2.53723508       0.42759071       0.34457921
H       -0.70775404      -0.09873911       1.88775120
H       -0.15535545      -2.24713213       0.98973443
H       -1.43869058      -1.87490824      -0.16885397
H        0.32823754      -0.74961309      -1.66578224
H        1.15283033      -2.23411257      -1.12745346
H        1.50816367      -0.85110988      -0.05398065
H        0.69651900       1.80352782      -0.90305386
H        1.22442416       2.24900637       0.71708958
H        2.37944957       1.51847028      -0.37839278
18
Frame=3 idx=003410 GeodesicLength=0.1666274245819752 rxn_smarts="[C:1]([C@@:2]1([H:10])[C:3]([H:11])([H:12])[C:4]([H:13])([H:14])[C@:5]1([C:6]([H:16])([H:17])[H:18])[H:15])([H:7])([H:8])[H:9]>>[C:1]([C@@:2]([C:3]([C:4]([H:13])([H:14])[H:15])([H:11])[H:12])([C:5][C:6]([H:16])([H:17])[H:18])[H:10])([H:7])([H:8])[H:9]"
C       -1.52871604       0.77302644       0.10516321
C       -0.49772388      -0.11028903       0.80669493
C       -0.48408644      -1.53414353       0.23644461
C        0.61503828      -1.34607367      -0.80082610
C        0.98170862       0.21040621       0.60277679
C        1.33468585       1.49833842      -0.06124341
H       -1.45823557       1.81415953       0.42698540
H       -1.42168076       0.75703876      -0.98248084
H       -2.53744478       0.42318791       0.33669036
H       -0.69659011      -0.09072347       1.88427894
H       -0.15404018      -2.24429692       0.99593087
H       -1.44004259      -1.87944043      -0.16235591
H        0.31770241      -0.76527272      -1.67208184
H        1.14006431      -2.24427934      -1.13060529
H        1.52526749      -0.86458128      -0.05206939
H        0.69425788       1.82410727      -0.89029531
H        1.23138516       2.24895014       0.73350047
H        2.37845036       1.52988571      -0.37650750
18
Frame=4 idx=003410 GeodesicLength=0.22220167856252804 rxn_smarts="[C:1]([C@@:2]1([H:10])[C:3]([H:11])([H:12])[C:4]([H:13])([H:14])[C@:5]1([C:6]([H:16])([H:17])[H:18])[H:15])([H:7])([H:8])[H:9]>>[C:1]([C@@:2]([C:3]([C:4]([H:13])([H:14])[H:15])([H:11])[H:12])([C:5][C:6]([H:16])([H:17])[H:18])[H:10])([H:7])([H:8])[H:9]"
C       -1.52964504       0.77241018       0.09973780
C       -0.49683148      -0.10848757       0.80084206
C       -0.48471064      -1.53614508       0.23892600
C        0.61264750      -1.35090041      -0.80209640
C        0.98008784       0.21097224       0.58936985
C        1.33496590       1.50802929      -0.05479417
H       -1.46263650       1.81316058       0.42339787
H       -1.42126364       0.75896824      -0.98777956
H       -2.53759964       0.41875098       0.32863916
H       -0.68518001      -0.08255220       1.88052790
H       -0.15262216      -2.24129776       1.00217633
H       -1.44142077      -1.88396389      -0.15567983
H        0.30677238      -0.78151580      -1.67843256
H        1.12742057      -2.25450646      -1.13336440
H        1.54228102      -0.87811672      -0.05024595
H        0.69179137       1.84521445      -0.87685046
H        1.23864336       2.24841866       0.75036484
H        2.37729994       1.54156130      -0.37473849
18
Frame=5 idx=003410 GeodesicLength=0.27778893151465817 rxn_smarts="[C:1]([C@@:2]1([H:10])[C:3]([H:11])([H:12])[C:4]([H:13])([H:14])[C@:5]1([C:6]([H:16])([H:17])[H:18])[H:15])([H:7])([H:8])[H:9]>>[C:1]([C@@:2]([C:3]([C:4]([H:13])([H:14])[H:15])([H:11])[H:12])([C:5][C:6]([H:16])([H:17])[H:18])[H:10])([H:7])([H:8])[H:9]"
C       -1.53055393       0.77179557       0.09414854
C       -0.49585816      -0.10662554       0.79481294
C       -0.48532472      -1.53811175       0.24143251
C        0.61017229      -1.35586935      -0.80348171
C        0.97848397       0.21158308       0.57535153
C        1.33521125       1.51782573      -0.04816011
H       -1.46707856       1.81213574       0.41970261
H       -1.42079233       0.76093990      -0.99323261
H       -2.53770023       0.41427798       0.32041555
H       -0.67351789      -0.07421679       1.87648274
H       -0.15108457      -2.23812043       1.00847425
H       -1.44282224      -1.88847831      -0.14880732
H        0.29543488      -0.79835524      -1.68482458
H        1.11490020      -2.26480131      -1.13573295
H        1.55920746      -0.89170841      -0.04851145
H        0.68911619       1.86684599      -0.86267301
H        1.24621576       2.24737321       0.76768721
H        2.37599063       1.55350994      -0.37308415
18
Frame=6 idx=003410 GeodesicLength=0.3333874076096249 rxn_smarts="[C:1]([C@@:2]1([H:10])[C:3]([H:11])([H:12])[C:4]([H:13])([H:14])[C@:5]1([C:6]([H:16])([H:17])[H:18])[H:15])([H:7])([H:8])[H:9]>>[C:1]([C@@:2]([C:3]([C:4]([H:13])([H:14])[H:15])([H:11])[H:12])([C:5][C:6]([H:16])([H:17])[H:18])[H:10])([H:7])([H:8])[H:9]"
C       -1.53144511       0.77118394       0.08838552
C       -0.49480286      -0.10469697       0.78859758
C       -0.48592309      -1.54003746       0.24396853
C        0.60760138      -1.36098088      -0.80499077
C        0.97688650       0.21225362       0.56069619
C        1.33542155       1.52772068      -0.04132930
H       -1.47156648       1.81108530       0.41588940
H       -1.42026909       0.76295630      -0.99884950
H       -2.53774700       0.40976693       0.31200958
H       -0.66159940      -0.06571074       1.87212660
H       -0.14940826      -2.23474883       1.01482779
H       -1.44424328      -1.89298202      -0.14171854
H        0.28367742      -0.81580469      -1.69124698
H        1.10250332      -2.27517038      -1.13771161
H        1.57605034      -0.90534627      -0.04686712
H        0.68622800       1.88899548      -0.84771410
H        1.25412342       2.24576767       0.78546531
H        2.37451263       1.56574832      -0.37153859
18
Frame=7 idx=003410 GeodesicLength=0.38899483154592174 rxn_smarts="[C:1]([C@@:2]1([H:10])[C:3]([H:11])([H:12])[C:4]([H:13])([H:14])[C@:5]1([C:6]([H:16])([H:17])[H:18])[H:15])([H:7])([H:8])[H:9]>>[C:1]([C@@:2]([C:3]([C:4]([H:13])([H:14])[H:15])([H:11])[H:12])([C:5][C:6]([H:16])([H:17])[H:18])[H:10])([H:7])([H:8])[H:9]"
C       -1.53232170       0.77057619       0.08243867
C       -0.49366497      -0.10269595       0.78218625
C       -0.48650007      -1.54191607       0.24653809
C        0.60492477      -1.36623474      -0.80663144
C        0.97528352       0.21299963       0.54537717
C        1.33559749       1.53770401      -0.03429252
H       -1.47610627       1.81000936       0.41194773
H       -1.41969695       0.76501981      -1.00464000
H       -2.53774147       0.40521575       0.30341100
H       -0.64941811      -0.05702267       1.86744125
H       -0.14757436      -2.23116664       1.02123952
H       -1.44567950      -1.89747339      -0.13439445
H        0.27148712      -0.83387661      -1.69768765
H        1.09023231      -2.28561780      -1.13930162
H        1.59281281      -0.91901893      -0.04531181
H        0.68312270       1.91165344      -0.83191900
H        1.26238615       2.24355533       0.80369868
H        2.37285653       1.57828928      -0.37009986
18
Frame=8 idx=003410 GeodesicLength=0.4446124951687535 rxn_smarts="[C:1]([C@@:2]1([H:10])[C:3]([H:11])([H:12])[C:4]([H:13])([H:14])[C@:5]1([C:6]([H:16])([H:17])[H:18])[H:15])([H:7])([H:8])[H:9]>>[C:1]([C@@:2]([C:3]([C:4]([H:13])([H:14])[H:15])([H:11])[H:12])([C:5][C:6]([H:16])([H:17])[H:18])[H:10])([H:7])([H:8])[H:9]"
C       -1.53318789       0.76997429       0.07629747
C       -0.49244482      -0.10061542       0.77556852
C       -0.48704885      -1.54373968       0.24914504
C        0.60213203      -1.37162823      -0.80841196
C        0.97366133       0.21383827       0.52936786
C        1.33573810       1.54776529      -0.02703663
H       -1.48070372       1.80890929       0.40786643
H       -1.41908092       0.76713323      -1.01061411
H       -2.53768508       0.40062197       0.29460998
H       -0.63697152      -0.04814776       1.86240970
H       -0.14556218      -2.22735544       1.02771091
H       -1.44712500      -1.90194904      -0.12681574
H        0.25885233      -0.85258342      -1.70413197
H        1.07808951      -2.29614594      -1.14050279
H        1.60949944      -0.93271099      -0.04384220
H        0.67979546       1.93480492      -0.81523700
H        1.27103236       2.24068162       0.82238111
H        2.37100943       1.59114705      -0.36876460
18
Frame=9 idx=003410 GeodesicLength=0.5002381592748976 rxn_smarts="[C:1]([C@@:2]1([H:10])[C:3]([H:11])([H:12])[C:4]([H:13])([H:14])[C@:5]1([C:6]([H:16])([H:17])[H:18])[H:15])([H:7])([H:8])[H:9]>>[C:1]([C@@:2]([C:3]([C:4]([H:13])([H:14])[H:15])([H:11])[H:12])([C:5][C:6]([H:16])([H:17])[H:18])[H:10])([H:7])([H:8])[H:9]"
C       -1.53404976       0.76937952       0.06995173
C       -0.49114451      -0.09844842       0.76873494
C       -0.48756276      -1.54550086       0.25179269
C        0.59921508      -1.37715648      -0.81033919
C        0.97200305       0.21478809       0.51264347
C        1.33584312       1.55789227      -0.01954827
H       -1.48536659       1.80778596       0.40363310
H       -1.41842706       0.76929901      -1.01678171
H       -2.53758203       0.39598350       0.28559629
H       -0.62425349      -0.03907327       1.85701499
H       -0.14335253      -2.22329652       1.03424407
H       -1.44857293      -1.90640609      -0.11896608
H        0.24576738      -0.87193194      -1.71056340
H        1.06608412      -2.30675080      -1.14131434
H        1.62611288      -0.94640415      -0.04245073
H        0.67624556       1.95843630      -0.79760757
H        1.28008703       2.23708238       0.84150962
H        2.36895345       1.60432150      -0.36754959
18
Frame=10 idx=003410 GeodesicLength=0.5558672913712326 rxn_smarts="[C:1]([C@@:2]1([H:10])[C:3]([H:11])([H:12])[C:4]([H:13])([H:14])[C@:5]1([C:6]([H:16])([H:17])[H:18])[H:15])([H:7])([H:8])[H:9]>>[C:1]([C@@:2]([C:3]([C:4]([H:13])([H:14])[H:15])([H:11])[H:12])([C:5][C:6]([H:16])([H:17])[H:18])[H:10])([H:7])([H:8])[H:9]"
C       -1.53491157       0.76879416       0.06339028
C       -0.48976450      -0.09618753       0.76167368
C       -0.48803376      -1.54718961       0.25448462
C        0.59616497      -1.38281613      -0.81241982
C        0.97029393       0.21586710       0.49517443
C        1.33591483       1.56806564      -0.01181859
H       -1.49010109       1.80664060       0.39923693
H       -1.41774142       0.77152073      -1.02315365
H       -2.53743376       0.39129799       0.27635923
H       -0.61126571      -0.02979616       1.85123907
H       -0.14092245      -2.21896948       1.04083867
H       -1.45001521      -1.91083915      -0.11082580
H        0.23221654      -0.89193656      -1.71696402
H        1.05421802      -2.31743313      -1.14173524
H        1.64265642      -0.96007895      -0.04113659
H        0.67246628       1.98252263      -0.77895972
H        1.28957861       2.23270833       0.86105772
H        2.36667986       1.61782951      -0.36644121
18
Frame=11 idx=003410 GeodesicLength=0.6114972469419612 rxn_smarts="[C:1]([C@@:2]1([H:10])[C:3]([H:11])([H:12])[C:4]([H:13])([H:14])[C@:5]1([C:6]([H:16])([H:17])[H:18])[H:15])([H:7])([H:8])[H:9]>>[C:1]([C@@:2]([C:3]([C:4]([H:13])([H:14])[H:15])([H:11])[H:12])([C:5][C:6]([H:16])([H:17])[H:18])[H:10])([H:7])([H:8])[H:9]"
C       -1.53578029       0.76822024       0.05660259
C       -0.48830706      -0.09382451       0.75437384
C       -0.48845411      -1.54879628       0.25722451
C        0.59297348      -1.38860049      -0.81465997
C        0.96851520       0.21709572       0.47693233
C        1.33595445       1.57826306      -0.00383975
H       -1.49491386       1.80547507       0.39466374
H       -1.41703380       0.77380048      -1.02974052
H       -2.53724437       0.38656335       0.26689026
H       -0.59800632      -0.02030754       1.84506442
H       -0.13824945      -2.21435292       1.04749495
H       -1.45144339      -1.91524309      -0.10237645
H        0.21819265      -0.91260454      -1.72331496
H        1.04249856      -2.32818588      -1.14176568
H        1.65913279      -0.97371194      -0.03989179
H        0.66845450       2.00703351      -0.75923080
H        1.29953666       2.22749756       0.88101428
H        2.36417438       1.63167820      -0.36544099
18
Frame=12 idx=003410 GeodesicLength=0.6671268323573966 rxn_smarts="[C:1]([C@@:2]1([H:10])[C:3]([H:11])([H:12])[C:4]([H:13])([H:14])[C@:5]1([C:6]([H:16])([H:17])[H:18])[H:15])([H:7])([H:8])[H:9]>>[C:1]([C@@:2]([C:3]([C:4]([H:13])([H:14])[H:15])([H:11])[H:12])([C:5][C:6]([H:16])([H:17])[H:18])[H:10])([H:7])([H:8])[H:9]"
C       -1.53666341       0.76766054       0.04957887
C       -0.48677592      -0.09135168       0.74682540
C       -0.48881507      -1.55030946       0.26001355
C        0.58963453      -1.39449991      -0.81706490
C        0.96664614       0.21849414       0.45789379
C        1.33596250       1.58846066       0.00439830
H       -1.49981236       1.80429187       0.38990183
H       -1.41631495       0.77614180      -1.03655193
H       -2.53701847       0.38177797       0.25718078
H       -0.58447914      -0.01060214       1.83847378
H       -0.13531236      -2.20942521       1.05420936
H       -1.45284686      -1.91960987      -0.09360425
H        0.20368848      -0.93394265      -1.72959225
H        1.03093743      -2.33899918      -1.14140225
H        1.67554655      -0.98727555      -0.03870501
H        0.66420616       2.03193287      -0.73834736
H        1.30999855       2.22138341       0.90134426
H        2.36141820       1.64587238      -0.36455197
18
Frame=13 idx=003410 GeodesicLength=0.7227530198886916 rxn_smarts="[C:1]([C@@:2]1([H:10])[C:3]([H:11])([H:12])[C:4]([H:13])([H:14])[C@:5]1([C:6]([H:16])([H:17])[H:18])[H:15])([H:7])([H:8])[H:9]>>[C:1]([C@@:2]([C:3]([C:4]([H:13])([H:14])[H:15])([H:11])[H:12])([C:5][C:6]([H:16])([H:17])[H:18])[H:10])([H:7])([H:8])[H:9]"
C       -1.53757043       0.76711835       0.04231009
C       -0.48517654      -0.08876074       0.73901847
C       -0.48910780      -1.55171699       0.26285287
C        0.58614291      -1.40050157      -0.81963909
C        0.96466348       0.22008506       0.43803589
C        1.33594168       1.59862786       0.01290394
H       -1.50480388       1.80309437       0.38493837
H       -1.41559877       0.77854806      -1.04359695
H       -2.53676235       0.37694083       0.24722420
H       -0.57068720      -0.00067434       1.83145159
H       -0.13208895      -2.20416442       1.06097780
H       -1.45421393      -1.92393162      -0.08449578
H        0.18870115      -0.95595217      -1.73577104
H        1.01954862      -2.34985651      -1.14064421
H        1.69190078      -1.00073863      -0.03756058
H        0.65972126       2.05717199      -0.71623745
H        1.32099589       2.21430085       0.92201239
H        2.35839407       1.66040963      -0.36378053
18
Frame=14 idx=003410 GeodesicLength=0.7783718506563224 rxn_smarts="[C:1]([C@@:2]1([H:10])[C:3]([H:11])([H:12])[C:4]([H:13])([H:14])[C@:5]1([C:6]([H:16])([H:17])[H:18])[H:15])([H:7])([H:8])[H:9]>>[C:1]([C@@:2]([C:3]([C:4]([H:13])([H:14])[H:15])([H:11])[H:12])([C:5][C:6]([H:16])([H:17])[H:18])[H:10])([H:7])([H:8])[H:9]"
C       -1.53851131       0.76659722       0.03478740
C       -0.48351549      -0.08604324       0.73094398
C       -0.48932293      -1.55300491       0.26574252
C        0.58249571      -1.40659009      -0.82238485
C        0.96254230       0.22189147       0.41734087
C        1.33589361       1.60873055       0.02168140
H       -1.50989555       1.80188646       0.37976041
H       -1.41490087       0.78102199      -1.05088471
H       -2.53648289       0.37205173       0.23701474
H       -0.55664035       0.00947864       1.82398209
H       -0.12855740      -2.19854685       1.06779411
H       -1.45553132      -1.92819776      -0.07504055
H        0.17323131      -0.97863200      -1.74182263
H        1.00834753      -2.36073948      -1.13948866
H        1.70820008      -1.01406462      -0.03644083
H        0.65499718       2.08269580      -0.69282262
H        1.33256963       2.20617675       0.94297215
H        2.35508075       1.67528836      -0.36313481
18
Frame=15 idx=003410 GeodesicLength=0.8339797592732422 rxn_smarts="[C:1]([C@@:2]1([H:10])[C:3]([H:11])([H:12])[C:4]([H:13])([H:14])[C@:5]1([C:6]([H:16])([H:17])[H:18])[H:15])([H:7])([H:8])[H:9]>>[C:1]([C@@:2]([C:3]([C:4]([H:13])([H:14])[H:15])([H:11])[H:12])([C:5][C:6]([H:16])([H:17])[H:18])[H:10])([H:7])([H:8])[H:9]"
C       -1.53949753       0.76610177       0.02700547
C       -0.48180161      -0.08319131       0.72259492
C       -0.48945126      -1.55415873       0.26868027
C        0.57869141      -1.41274510      -0.82530449
C        0.96025503       0.22393655       0.39579784
C        1.33582173       1.61872783       0.03073400
H       -1.51509345       1.80067311       0.37435773
H       -1.41423956       0.78356812      -1.05842113
H       -2.53618838       0.36711146       0.22655015
H       -0.54235092       0.01985729       1.81605303
H       -0.12469856      -2.19255116       1.07464820
H       -1.45678490      -1.93239647      -0.06523372
H        0.15728360      -1.00197487      -1.74771479
H        0.99735609      -2.37162056      -1.13793391
H        1.72444911      -1.02721357      -0.03532204
H        0.65003753       2.10843000      -0.66802943
H        1.34475440       2.19694684       0.96416188
H        2.35145725       1.69049880      -0.36262399
18
Frame=16 idx=003410 GeodesicLength=0.8895741154088094 rxn_smarts="[C:1]([C@@:2]1([H:10])[C:3]([H:11])([H:12])[C:4]([H:13])([H:14])[C@:5]1([C:6]([H:16])([H:17])[H:18])[H:15])([H:7])([H:8])[H:9]>>[C:1]([C@@:2]([C:3]([C:4]([H:13])([H:14])[H:15])([H:11])[H:12])([C:5][C:6]([H:16])([H:17])[H:18])[H:10])([H:7])([H:8])[H:9]"
C       -1.54054290       0.76563690       0.01895843
C       -0.48004679      -0.08019640       0.71396554
C       -0.48948302      -1.55516256       0.27166359
C        0.57473196      -1.41894267      -0.82839696
C        0.95777183       0.22624525       0.37340209
C        1.33572912       1.62857469       0.04005969
H       -1.52040512       1.79946100       0.36871790
H       -1.41363614       0.78618941      -1.06621262
H       -2.53588948       0.36212146       0.21582775
H       -0.52783722       0.03046171       1.80765340
H       -0.12049325      -2.18615468       1.08152947
H       -1.45795829      -1.93651477      -0.05507328
H        0.14086780      -1.02596764      -1.75341373
H        0.98659905      -2.38246752      -1.13597778
H        1.74065408      -1.04014007      -0.03417452
H        0.64484277       2.13429359      -0.64177516
H        1.35759793       2.18653362       0.98551134
H        2.34749767       1.70602868      -0.36226515
