13
Frame=0 idx=009480 GeodesicLength=0.0 rxn_smarts="[O:1]([C@@:2]1([H:9])[C:3]([H:10])([H:11])[C@:4]1([O:5][C:6](=[O:7])[H:13])[H:12])[H:8]>>[C-:6]#[O+:7].[O:1]([C@@:2]1([H:9])[C:3]([H:10])([H:11])[C@:4]1([O:5][H:13])[H:12])[H:8]"
O       -0.58390469       1.29950760       0.64090986
C       -0.90438473      -0.05683007       0.47453324
C       -1.25212476      -0.49093038      -0.90919367
C        0.05617247      -0.92580501      -0.30016586
O        1.21917789      -0.37964278      -0.79225845
C        2.17047234       0.88052035       0.22748410
O        2.53382885       0.65649763       1.28216398
H       -0.31249575       1.43109865       1.55142271
H       -1.45157304      -0.49649736       1.30257847
H       -2.05307713      -1.20453937      -1.05167366
H       -1.16205791       0.26896193      -1.67522054
H        0.15039173      -1.96083810       0.01886486
H        1.58957475       0.97849686      -0.76944506
13
Frame=1 idx=009480 GeodesicLength=0.10950409613547132 rxn_smarts="[O:1]([C@@:2]1([H:9])[C:3]([H:10])([H:11])[C@:4]1([O:5][C:6](=[O:7])[H:13])[H:12])[H:8]>>[C-:6]#[O+:7].[O:1]([C@@:2]1([H:9])[C:3]([H:10])([H:11])[C@:4]1([O:5][H:13])[H:12])[H:8]"
O       -0.63054993       1.30781022       0.63365149
C       -0.92750474      -0.05339492       0.47229375
C       -1.26114087      -0.50293001      -0.91039851
C        0.05269603      -0.90712218      -0.29281841
O        1.19501226      -0.33059813      -0.79956000
C        2.20747402       0.85441547       0.24154803
O        2.59850087       0.60845988       1.28237233
H       -0.31105544       1.43539680       1.52917762
H       -1.47292191      -0.49844371       1.29861473
H       -2.04406790      -1.23606608      -1.05383132
H       -1.18892812       0.25631611      -1.67900915
H        0.16970236      -1.93613779       0.03686909
H        1.61278336       1.00229434      -0.75890965
13
Frame=2 idx=009480 GeodesicLength=0.2177391034877033 rxn_smarts="[O:1]([C@@:2]1([H:9])[C:3]([H:10])([H:11])[C@:4]1([O:5][C:6](=[O:7])[H:13])[H:12])[H:8]>>[C-:6]#[O+:7].[O:1]([C@@:2]1([H:9])[C:3]([H:10])([H:11])[C@:4]1([O:5][H:13])[H:12])[H:8]"
O       -0.68048025       1.31556921       0.62761857
C       -0.95156145      -0.05042812       0.47056938
C       -1.26940099      -0.51479792      -0.91137926
C        0.04925447      -0.88718507      -0.28475161
O        1.17032369      -0.27907082      -0.80311822
C        2.24548664       0.82601938       0.25396168
O        2.66482839       0.55765082       1.27914352
H       -0.31078908       1.44141791       1.50404380
H       -1.49494360      -0.50175848       1.29478617
H       -2.03311353      -1.26759518      -1.05636844
H       -1.21507595       0.24359957      -1.68234025
H        0.18924426      -1.90973836       0.05489259
H        1.63622741       1.02631707      -0.74705794
13
Frame=3 idx=009480 GeodesicLength=0.32456221205198243 rxn_smarts="[O:1]([C@@:2]1([H:9])[C:3]([H:10])([H:11])[C@:4]1([O:5][C:6](=[O:7])[H:13])[H:12])[H:8]>>[C-:6]#[O+:7].[O:1]([C@@:2]1([H:9])[C:3]([H:10])([H:11])[C@:4]1([O:5][H:13])[H:12])[H:8]"
O       -0.73356437       1.32267502       0.62298840
C       -0.97645672      -0.04792899       0.46943540
C       -1.27671798      -0.52643133      -0.91208701
C        0.04589482      -0.86594535      -0.27582973
O        1.14518320      -0.22499628      -0.80267474
C        2.28458412       0.79510669       0.26425730
O        2.73234892       0.50388490       1.27209964
H       -0.31263213       1.44937023       1.47606258
H       -1.51752509      -0.50647676       1.29114992
H       -2.01993681      -1.29901460      -1.05928348
H       -1.24021365       0.23092221      -1.68516569
H        0.20893368      -1.88162391       0.07307526
H        1.66010201       1.05045816      -0.73402787
13
Frame=4 idx=009480 GeodesicLength=0.4300871700703504 rxn_smarts="[O:1]([C@@:2]1([H:9])[C:3]([H:10])([H:11])[C@:4]1([O:5][C:6](=[O:7])[H:13])[H:12])[H:8]>>[C-:6]#[O+:7].[O:1]([C@@:2]1([H:9])[C:3]([H:10])([H:11])[C@:4]1([O:5][H:13])[H:12])[H:8]"
O       -0.78998527       1.32882094       0.62017944
C       -1.00225428      -0.04604850       0.46905127
C       -1.28278409      -0.53761962      -0.91253254
C        0.04258770      -0.84347945      -0.26568002
O        1.11971958      -0.16859460      -0.79755806
C        2.32474340       0.76162809       0.27181456
O        2.80107299       0.44762597       1.26064106
H       -0.31700930       1.45938971       1.44515891
H       -1.54097893      -0.51286430       1.28761056
H       -2.00427569      -1.32989756      -1.06291335
H       -1.26367980       0.21859893      -1.68739360
H        0.22844477      -1.85196750       0.09170004
H        1.68439892       1.07440787      -0.72007827
13
Frame=5 idx=009480 GeodesicLength=0.5343072573158656 rxn_smarts="[O:1]([C@@:2]1([H:9])[C:3]([H:10])([H:11])[C@:4]1([O:5][C:6](=[O:7])[H:13])[H:12])[H:8]>>[C-:6]#[O+:7].[O:1]([C@@:2]1([H:9])[C:3]([H:10])([H:11])[C@:4]1([O:5][H:13])[H:12])[H:8]"
O       -0.84967974       1.33369411       0.61956962
C       -1.02894197      -0.04490167       0.46955544
C       -1.28728198      -0.54810775      -0.91270606
C        0.03932474      -0.81987777      -0.25392825
O        1.09410675      -0.11017298      -0.78713338
C        2.36591091       0.72551527       0.27591981
O        2.87072570       0.38945251       1.24428657
H       -0.32469777       1.47155217       1.41149281
H       -1.56553483      -0.52113004       1.28405079
H       -1.98586358      -1.35977893      -1.06755071
H       -1.28481557       0.20701938      -1.68890655
H        0.24746597      -1.82096810       0.11109190
H        1.70928136       1.09770381      -0.70574197
13
Frame=6 idx=009480 GeodesicLength=0.6372518741232118 rxn_smarts="[O:1]([C@@:2]1([H:9])[C:3]([H:10])([H:11])[C@:4]1([O:5][C:6](=[O:7])[H:13])[H:12])[H:8]>>[C-:6]#[O+:7].[O:1]([C@@:2]1([H:9])[C:3]([H:10])([H:11])[C@:4]1([O:5][H:13])[H:12])[H:8]"
O       -0.91244895       1.33703894       0.62144221
C       -1.05651282      -0.04454408       0.47103545
C       -1.28988154      -0.55764229      -0.91261074
C        0.03610725      -0.79521267      -0.24016276
O        1.06853174      -0.05002400      -0.77076138
C        2.40798608       0.68668688       0.27582818
O        2.94107025       0.32990292       1.22257083
H       -0.33674112       1.48584834       1.37551305
H       -1.59145379      -0.53140060       1.28029361
H       -1.96440251      -1.38823422      -1.07346478
H       -1.30294901       0.19656717      -1.68964177
H        0.26571079      -1.78880645       0.13169944
H        1.73498365       1.11982007      -0.69174136
13
Frame=7 idx=009480 GeodesicLength=0.7389325723506145 rxn_smarts="[O:1]([C@@:2]1([H:9])[C:3]([H:10])([H:11])[C@:4]1([O:5][C:6](=[O:7])[H:13])[H:12])[H:8]>>[C-:6]#[O+:7].[O:1]([C@@:2]1([H:9])[C:3]([H:10])([H:11])[C@:4]1([O:5][H:13])[H:12])[H:8]"
O       -0.97797862       1.33865796       0.62595512
C       -1.08498184      -0.04496833       0.47350743
C       -1.29021317      -0.56595415      -0.91225689
C        0.03294502      -0.76952813      -0.22391547
O        1.04321533       0.01155256      -0.74773546
C        2.45078992       0.64505538       0.27073583
O        3.01184150       0.26958279       1.19504422
H       -0.35438257       1.50206751       1.33808952
H       -1.61906053      -0.54370501       1.27605818
H       -1.93952914      -1.41483721      -1.08091308
H       -1.31735737       0.18763058      -1.68956627
H        0.28290859      -1.75561563       0.15411456
H        1.76180290       1.14006168      -0.67911772
13
Frame=8 idx=009480 GeodesicLength=0.8395027730275461 rxn_smarts="[O:1]([C@@:2]1([H:9])[C:3]([H:10])([H:11])[C@:4]1([O:5][C:6](=[O:7])[H:13])[H:12])[H:8]>>[C-:6]#[O+:7].[O:1]([C@@:2]1([H:9])[C:3]([H:10])([H:11])[C@:4]1([O:5][H:13])[H:12])[H:8]"
O       -1.04623156       1.33832955       0.63324724
C       -1.11443741      -0.04622361       0.47701310
C       -1.28784259      -0.57271996      -0.91165999
C        0.02981631      -0.74289699      -0.20457775
O        1.01841006       0.07424045      -0.71707685
C        2.49406196       0.60053186       0.25987030
O        3.08305874       0.20923428       1.16122478
H       -0.37864374       1.52010248       1.29999225
H       -1.64883470      -0.55818383       1.27097901
H       -1.91082222      -1.43907549      -1.09027035
H       -1.32716257       0.18072886      -1.68861526
H        0.29873255      -1.72161343       0.17900825
H        1.78989517       1.15754583      -0.66913472
13
Frame=9 idx=009480 GeodesicLength=0.9389694690455455 rxn_smarts="[O:1]([C@@:2]1([H:9])[C:3]([H:10])([H:11])[C@:4]1([O:5][C:6](=[O:7])[H:13])[H:12])[H:8]>>[C-:6]#[O+:7].[O:1]([C@@:2]1([H:9])[C:3]([H:10])([H:11])[C@:4]1([O:5][H:13])[H:12])[H:8]"
O       -1.11701849       1.33590804       0.64330522
C       -1.14497544      -0.04828766       0.48149940
C       -1.28226382      -0.57756602      -0.91082939
C        0.02671955      -0.71531413      -0.18150401
O        0.99440188       0.13784192      -0.67765201
C        2.53746497       0.55286220       0.24231439
O        3.15439919       0.14992216       1.12090290
H       -0.41072119       1.53951027       1.26262398
H       -1.68124037      -0.57489522       1.26456904
H       -1.87774960      -1.46039936      -1.10185710
H       -1.33142369       0.17643493      -1.68671891
H        0.31289474      -1.68693127       0.20713494
H        1.81951227       1.17091413      -0.66378846
13
Frame=10 idx=009480 GeodesicLength=1.0374706796443618 rxn_smarts="[O:1]([C@@:2]1([H:9])[C:3]([H:10])([H:11])[C@:4]1([O:5][C:6](=[O:7])[H:13])[H:12])[H:8]>>[C-:6]#[O+:7].[O:1]([C@@:2]1([H:9])[C:3]([H:10])([H:11])[C@:4]1([O:5][H:13])[H:12])[H:8]"
O       -1.19058880       1.33130171       0.65597791
C       -1.17685618      -0.05110855       0.48684626
C       -1.27275636      -0.58006557      -0.90976983
C        0.02365507      -0.68662543      -0.15378835
O        0.97149130       0.20247480      -0.62767274
C        2.58050419       0.50159811       0.21716049
O        3.22614477       0.09239533       1.07335903
H       -0.45181487       1.55990593       1.22734747
H       -1.71696911      -0.59391751       1.25612261
H       -1.83937308      -1.47827120      -1.11608367
H       -1.32887056       0.17537948      -1.68380711
H        0.32511956      -1.65154388       0.23955605
H        1.85031407       1.17847677      -0.66524812
13
Frame=11 idx=009480 GeodesicLength=1.135011033991743 rxn_smarts="[O:1]([C@@:2]1([H:9])[C:3]([H:10])([H:11])[C@:4]1([O:5][C:6](=[O:7])[H:13])[H:12])[H:8]>>[C-:6]#[O+:7].[O:1]([C@@:2]1([H:9])[C:3]([H:10])([H:11])[C@:4]1([O:5][H:13])[H:12])[H:8]"
O       -1.26740834       1.32447822       0.67092734
C       -1.21041256      -0.05457143       0.49280250
C       -1.25822405      -0.57964730      -0.90847275
C        0.02066976      -0.65651522      -0.12023346
O        0.95012474       0.26850626      -0.56446551
C        2.62239981       0.44594010       0.18327657
O        3.29873485       0.03749982       1.01735943
H       -0.50317614       1.58077959       1.19576665
H       -1.75684424      -0.61531847       1.24461074
H       -1.79422889      -1.49200079      -1.13342297
H       -1.31765333       0.17836483      -1.67977128
H        0.33509128      -1.61527374       0.27770606
H        1.88092713       1.17775813      -0.67608333
13
Frame=12 idx=009480 GeodesicLength=1.2314386526713847 rxn_smarts="[O:1]([C@@:2]1([H:9])[C:3]([H:10])([H:11])[C@:4]1([O:5][C:6](=[O:7])[H:13])[H:12])[H:8]>>[C-:6]#[O+:7].[O:1]([C@@:2]1([H:9])[C:3]([H:10])([H:11])[C@:4]1([O:5][H:13])[H:12])[H:8]"
O       -1.34849004       1.31545064       0.68723651
C       -1.24598546      -0.05846516       0.49891893
C       -1.23682622      -0.57560687      -0.90681290
C        0.01792421      -0.62455374      -0.07900394
O        0.93119417       0.33619242      -0.48395100
C        2.66154441       0.38540893       0.13991529
O        3.37371312      -0.01550852       0.94909563
H       -0.56610882       1.60220202       1.16844836
H       -1.80184470      -0.63904349       1.22851059
H       -1.73984304      -1.50073706      -1.15435679
H       -1.29470009       0.18631465      -1.67437453
H        0.34237001      -1.57782709       0.32384936
H        1.90705245       1.16617327      -0.69747552
13
Frame=13 idx=009480 GeodesicLength=1.3261633427542316 rxn_smarts="[O:1]([C@@:2]1([H:9])[C:3]([H:10])([H:11])[C@:4]1([O:5][C:6](=[O:7])[H:13])[H:12])[H:8]>>[C-:6]#[O+:7].[O:1]([C@@:2]1([H:9])[C:3]([H:10])([H:11])[C@:4]1([O:5][H:13])[H:12])[H:8]"
O       -1.43371589       1.30456819       0.70274725
C       -1.28319599      -0.06234344       0.50437818
C       -1.20628446      -0.56733541      -0.90443033
C        0.01563251      -0.59105685      -0.02820528
O        0.91650527       0.40382258      -0.38216496
C        2.69537731       0.31871629       0.08547181
O        3.45202824      -0.06711148       0.86270887
H       -0.64017569       1.62476433       1.14367719
H       -1.85230398      -0.66428943       1.20604182
H       -1.67353830      -1.50352541      -1.17878313
H       -1.25590290       0.19998451      -1.66721288
H        0.34592359      -1.53985006       0.38049050
H        1.91965030       1.14365618      -0.72471905
13
Frame=14 idx=009480 GeodesicLength=1.419129642435809 rxn_smarts="[O:1]([C@@:2]1([H:9])[C:3]([H:10])([H:11])[C@:4]1([O:5][C:6](=[O:7])[H:13])[H:12])[H:8]>>[C-:6]#[O+:7].[O:1]([C@@:2]1([H:9])[C:3]([H:10])([H:11])[C@:4]1([O:5][H:13])[H:12])[H:8]"
O       -1.52050255       1.29298964       0.71267040
C       -1.32045171      -0.06533066       0.50776784
C       -1.16460551      -0.55583984      -0.90033077
C        0.01392813      -0.55750869       0.03334861
O        0.90825485       0.46664017      -0.25826339
C        2.71883863       0.24783666       0.01989650
O        3.53178545      -0.12412187       0.74736753
H       -0.72166460       1.64976176       1.11508375
H       -1.90694472      -0.68852467       1.17582659
H       -1.59311065      -1.50122063      -1.20443761
H       -1.19750263       0.21751651      -1.65785584
H        0.34453272      -1.50261086       0.45038289
H        1.90744260       1.12041245      -0.74145650
13
Frame=15 idx=009480 GeodesicLength=1.5113469781411157 rxn_smarts="[O:1]([C@@:2]1([H:9])[C:3]([H:10])([H:11])[C@:4]1([O:5][C:6](=[O:7])[H:13])[H:12])[H:8]>>[C-:6]#[O+:7].[O:1]([C@@:2]1([H:9])[C:3]([H:10])([H:11])[C@:4]1([O:5][H:13])[H:12])[H:8]"
O       -1.60128655       1.28180495       0.71476724
C       -1.35425352      -0.06732795       0.50859896
C       -1.11429004      -0.54293101      -0.89344987
C        0.01250577      -0.52755404       0.10167978
O        0.90760903       0.51738990      -0.12096772
C        2.72651476       0.17732320      -0.05295032
O        3.60223950      -0.18413121       0.60588196
H       -0.79974307       1.67645099       1.07519416
H       -1.96099852      -0.70972013       1.13953704
H       -1.50347802      -1.49515137      -1.22731981
H       -1.12292514       0.23677200      -1.64514158
H        0.33774554      -1.47029898       0.52863460
H        1.87036023       1.10737364      -0.73446444
13
Frame=16 idx=009480 GeodesicLength=1.60456923489835 rxn_smarts="[O:1]([C@@:2]1([H:9])[C:3]([H:10])([H:11])[C@:4]1([O:5][C:6](=[O:7])[H:13])[H:12])[H:8]>>[C-:6]#[O+:7].[O:1]([C@@:2]1([H:9])[C:3]([H:10])([H:11])[C@:4]1([O:5][H:13])[H:12])[H:8]"
O       -1.66861654       1.27151469       0.71132721
C       -1.38182946      -0.06874160       0.50743456
C       -1.06083262      -0.53020824      -0.88371649
C        0.01063173      -0.50417631       0.17032518
O        0.91312246       0.55162481       0.01778067
C        2.71636981       0.11287173      -0.12531589
O        3.65405754      -0.23837198       0.45107981
H       -0.86359228       1.70241572       1.01975241
H       -2.00952518      -0.72696533       1.10049342
H       -1.41324818      -1.48656869      -1.24496475
H       -1.04061236       0.25600994      -1.62831745
H        0.32604503      -1.44633022       0.60625880
H        1.81803004       1.10692547      -0.70213750
