13
Frame=0 idx=008345 GeodesicLength=0.0 rxn_smarts="[O:1]([C@@:2]([C:3]([C:4]#[C:5][H:12])([H:10])[H:11])([C:6]#[C:7][H:13])[H:9])[H:8]>>[O:1](/[C:5](=[C:4]1\[C@@:2]([C:6]#[C:7][H:13])([H:9])[C:3]1([H:10])[H:11])[H:12])[H:8]"
O       -0.59644024       0.17145086       1.45282656
C        0.50915296      -0.66962094       0.01612240
C       -0.45141673      -0.86861526      -1.06363444
C       -1.79479314      -0.23354701      -0.58708694
C       -1.78574834       0.27265058       0.61713498
C        1.52026580       0.32011867      -0.09584762
C        2.38820808       1.13442537      -0.24884820
H       -0.27576247       1.05728396       1.67259646
H        0.70699060      -1.47237910       0.71412832
H       -0.63350476      -1.92588450      -1.24870381
H       -0.14316894      -0.37879691      -1.98524809
H       -2.60527434       0.74026427       1.14875831
H        3.16149147       1.85265007      -0.39219788
13
Frame=1 idx=008345 GeodesicLength=0.10374808182132107 rxn_smarts="[O:1]([C@@:2]([C:3]([C:4]#[C:5][H:12])([H:10])[H:11])([C:6]#[C:7][H:13])[H:9])[H:8]>>[O:1](/[C:5](=[C:4]1\[C@@:2]([C:6]#[C:7][H:13])([H:9])[C:3]1([H:10])[H:11])[H:12])[H:8]"
O       -0.59728024       0.15644735       1.47686306
C        0.50265684      -0.65709680       0.02113727
C       -0.44654634      -0.87277484      -1.07039579
C       -1.75195335      -0.18067094      -0.59877280
C       -1.79973412       0.28411466       0.61703838
C        1.51755689       0.33101714      -0.09894484
C        2.39044893       1.13765045      -0.26287918
H       -0.29067376       1.04139074       1.71696832
H        0.72033765      -1.47329501       0.69796815
H       -0.65393596      -1.92973577      -1.22683307
H       -0.12105946      -0.41137513      -2.00061005
H       -2.63732217       0.72420230       1.14244483
H        3.16750509       1.85012585      -0.41398428
13
Frame=2 idx=008345 GeodesicLength=0.20720963736625841 rxn_smarts="[O:1]([C@@:2]([C:3]([C:4]#[C:5][H:12])([H:10])[H:11])([C:6]#[C:7][H:13])[H:9])[H:8]>>[O:1](/[C:5](=[C:4]1\[C@@:2]([C:6]#[C:7][H:13])([H:9])[C:3]1([H:10])[H:11])[H:12])[H:8]"
O       -0.59716049       0.14204975       1.50024558
C        0.49689627      -0.64560807       0.02633672
C       -0.44225180      -0.87637532      -1.07606797
C       -1.70812635      -0.13172396      -0.60593177
C       -1.81366927       0.29506793       0.61630992
C        1.51639648       0.33999062      -0.10226123
C        2.39283217       1.14038716      -0.27642841
H       -0.30579741       1.02643305       1.75851414
H        0.73346386      -1.47433564       0.68198788
H       -0.67431050      -1.93143265      -1.20672662
H       -0.10172097      -0.44086865      -2.01322496
H       -2.66933806       0.70850038       1.13257173
H        3.17278608       1.84791540      -0.43532500
13
Frame=3 idx=008345 GeodesicLength=0.3103908604883051 rxn_smarts="[O:1]([C@@:2]([C:3]([C:4]#[C:5][H:12])([H:10])[H:11])([C:6]#[C:7][H:13])[H:9])[H:8]>>[O:1](/[C:5](=[C:4]1\[C@@:2]([C:6]#[C:7][H:13])([H:9])[C:3]1([H:10])[H:11])[H:12])[H:8]"
O       -0.59617349       0.12810643       1.52318025
C        0.49183919      -0.63522417       0.03186674
C       -0.43847928      -0.87943428      -1.08071050
C       -1.66400690      -0.08722849      -0.60882642
C       -1.82724768       0.30649641       0.61462758
C        1.51670138       0.34700382      -0.10555425
C        2.39574749       1.14212381      -0.28938607
H       -0.32096593       1.01205939       1.79803044
H        0.74622065      -1.47576004       0.66628142
H       -0.69409010      -1.93137338      -1.18853445
H       -0.08504917      -0.46712360      -2.02342086
H       -2.70104327       0.69365088       1.11917234
H        3.17654711       1.84670323      -0.45672621
13
Frame=4 idx=008345 GeodesicLength=0.413353703792694 rxn_smarts="[O:1]([C@@:2]([C:3]([C:4]#[C:5][H:12])([H:10])[H:11])([C:6]#[C:7][H:13])[H:9])[H:8]>>[O:1](/[C:5](=[C:4]1\[C@@:2]([C:6]#[C:7][H:13])([H:9])[C:3]1([H:10])[H:11])[H:12])[H:8]"
O       -0.59422668       0.11411512       1.54580957
C        0.48748271      -0.62634527       0.03774912
C       -0.43524168      -0.88226630      -1.08439059
C       -1.61998591      -0.04728371      -0.60789328
C       -1.83995461       0.31939884       0.61174651
C        1.51849583       0.35160604      -0.10881277
C        2.39968213       1.14191465      -0.30190939
H       -0.33562428       0.99748158       1.83626455
H        0.75852141      -1.47815301       0.65077190
H       -0.71327837      -1.93015585      -1.17207935
H       -0.07084950      -0.49064354      -2.03158286
H       -2.73151714       0.68154359       1.10197172
H        3.17649609       1.84878787      -0.47764512
13
Frame=5 idx=008345 GeodesicLength=0.5162096598515743 rxn_smarts="[O:1]([C@@:2]([C:3]([C:4]#[C:5][H:12])([H:10])[H:11])([C:6]#[C:7][H:13])[H:9])[H:8]>>[O:1](/[C:5](=[C:4]1\[C@@:2]([C:6]#[C:7][H:13])([H:9])[C:3]1([H:10])[H:11])[H:12])[H:8]"
O       -0.59206495       0.09968820       1.56848402
C        0.48379007      -0.61756167       0.04398385
C       -0.43235910      -0.88451458      -1.08708513
C       -1.57722214      -0.01275928      -0.60323120
C       -1.85273573       0.33274088       0.60805513
C        1.52037564       0.35660304      -0.11205700
C        2.40234799       1.14354950      -0.31408603
H       -0.35145681       0.98245737       1.87399631
H        0.77154559      -1.47993301       0.63520087
H       -0.73038093      -1.92801690      -1.15713635
H       -0.05934648      -0.51072399      -2.03795015
H       -2.76175592       0.67076735       1.08156849
H        3.17926277       1.84770309      -0.49974281
13
Frame=6 idx=008345 GeodesicLength=0.6189191860674131 rxn_smarts="[O:1]([C@@:2]([C:3]([C:4]#[C:5][H:12])([H:10])[H:11])([C:6]#[C:7][H:13])[H:9])[H:8]>>[O:1](/[C:5](=[C:4]1\[C@@:2]([C:6]#[C:7][H:13])([H:9])[C:3]1([H:10])[H:11])[H:12])[H:8]"
O       -0.58922715       0.08486213       1.59116679
C        0.48075753      -0.60963004       0.05057822
C       -0.42987595      -0.88650742      -1.08893628
C       -1.53551891       0.01732629      -0.59552584
C       -1.86502207       0.34724050       0.60350789
C        1.52294322       0.36062365      -0.11532855
C        2.40526355       1.14464797      -0.32610675
H       -0.36759601       0.96687869       1.91113668
H        0.78468373      -1.48202142       0.61966046
H       -0.74621329      -1.92535775      -1.14349672
H       -0.05001863      -0.52826708      -2.04291647
H       -2.79090692       0.66258474       1.05808273
H        3.18073091       1.84761975      -0.52182216
13
Frame=7 idx=008345 GeodesicLength=0.7215255222273722 rxn_smarts="[O:1]([C@@:2]([C:3]([C:4]#[C:5][H:12])([H:10])[H:11])([C:6]#[C:7][H:13])[H:9])[H:8]>>[O:1](/[C:5](=[C:4]1\[C@@:2]([C:6]#[C:7][H:13])([H:9])[C:3]1([H:10])[H:11])[H:12])[H:8]"
O       -0.58563007       0.06925391       1.61390884
C        0.47840445      -0.60271983       0.05750768
C       -0.42774667      -0.88845055      -1.08999387
C       -1.49490362       0.04331266      -0.58516360
C       -1.87656686       0.36311333       0.59801326
C        1.52602038       0.36360521      -0.11868566
C        2.40816171       1.14524591      -0.33793321
H       -0.38396788       0.95026716       1.94794652
H        0.79808139      -1.48466401       0.60403519
H       -0.76084712      -1.92252963      -1.13083215
H       -0.04267635      -0.54378466      -2.04673860
H       -2.81842706       0.65810806       1.03155958
H        3.18009771       1.84924243      -0.54362399
13
Frame=8 idx=008345 GeodesicLength=0.8238371359337331 rxn_smarts="[O:1]([C@@:2]([C:3]([C:4]#[C:5][H:12])([H:10])[H:11])([C:6]#[C:7][H:13])[H:9])[H:8]>>[O:1](/[C:5](=[C:4]1\[C@@:2]([C:6]#[C:7][H:13])([H:9])[C:3]1([H:10])[H:11])[H:12])[H:8]"
O       -0.58093041       0.05342282       1.63652783
C        0.47664183      -0.59722836       0.06470753
C       -0.42615811      -0.89050062      -1.09031228
C       -1.45506100       0.06600471      -0.57262026
C       -1.88688350       0.38106511       0.59150263
C        1.53030677       0.36447847      -0.12236708
C        2.41258240       1.14346908      -0.34987668
H       -0.39981523       0.93313016       1.98385251
H        0.81086295      -1.48830136       0.58841194
H       -0.77534244      -1.91956634      -1.11888875
H       -0.03699051      -0.55802366      -2.04956374
H       -2.84405666       0.65651747       1.00240289
H        3.17484391       1.85553251      -0.56377656
13
Frame=9 idx=008345 GeodesicLength=0.9259573958715581 rxn_smarts="[O:1]([C@@:2]([C:3]([C:4]#[C:5][H:12])([H:10])[H:11])([C:6]#[C:7][H:13])[H:9])[H:8]>>[O:1](/[C:5](=[C:4]1\[C@@:2]([C:6]#[C:7][H:13])([H:9])[C:3]1([H:10])[H:11])[H:12])[H:8]"
O       -0.57623395       0.03667485       1.65956199
C        0.47544843      -0.59052713       0.07232206
C       -0.42457456      -0.89154493      -1.08968554
C       -1.41765490       0.08428584      -0.55738392
C       -1.89831170       0.39768332       0.58491858
C        1.53302250       0.36846590      -0.12600686
C        2.41400038       1.14611689      -0.36178344
H       -0.41873084       0.91507536       2.01976625
H        0.82543728      -1.48982429       0.57248864
H       -0.78656058      -1.91626611      -1.10764081
H       -0.03349439      -0.56863164      -2.05118933
H       -2.86981286       0.65517974       0.97126267
H        3.17746516       1.85331221      -0.58663029
13
Frame=10 idx=008345 GeodesicLength=1.0280264489459168 rxn_smarts="[O:1]([C@@:2]([C:3]([C:4]#[C:5][H:12])([H:10])[H:11])([C:6]#[C:7][H:13])[H:9])[H:8]>>[O:1](/[C:5](=[C:4]1\[C@@:2]([C:6]#[C:7][H:13])([H:9])[C:3]1([H:10])[H:11])[H:12])[H:8]"
O       -0.57073322       0.01886922       1.68286736
C        0.47491300      -0.58464410       0.08020248
C       -0.42331130      -0.89280463      -1.08839444
C       -1.38169100       0.09907129      -0.54022089
C       -1.90914515       0.41531511       0.57754986
C        1.53585183       0.37214407      -0.12995095
C        2.41514811       1.14893473      -0.37383645
H       -0.43837763       0.89556079       2.05559912
H        0.84052928      -1.49155734       0.55631822
H       -0.79670211      -1.91345090      -1.09684166
H       -0.03162654      -0.57797435      -2.05215393
H       -2.89372101       0.65809399       0.93775710
H        3.17886573       1.85244212      -0.60889583
13
Frame=11 idx=008345 GeodesicLength=1.1299676936590584 rxn_smarts="[O:1]([C@@:2]([C:3]([C:4]#[C:5][H:12])([H:10])[H:11])([C:6]#[C:7][H:13])[H:9])[H:8]>>[O:1](/[C:5](=[C:4]1\[C@@:2]([C:6]#[C:7][H:13])([H:9])[C:3]1([H:10])[H:11])[H:12])[H:8]"
O       -0.56430701      -0.00024667       1.70641215
C        0.47507167      -0.57981500       0.08838455
C       -0.42230651      -0.89440735      -1.08639665
C       -1.34694046       0.11066421      -0.52132211
C       -1.91905100       0.43418425       0.56926038
C        1.53880750       0.37520824      -0.13411430
C        2.41612115       1.15143720      -0.38599532
H       -0.45872445       0.87417516       2.09135157
H        0.85609221      -1.49377267       0.53988708
H       -0.80592295      -1.91121741      -1.08628111
H       -0.03119443      -0.58638321      -2.05241963
H       -2.91530820       0.66616683       0.90176499
H        3.17766247       1.85400642      -0.63053160
13
Frame=12 idx=008345 GeodesicLength=1.2317779821521284 rxn_smarts="[O:1]([C@@:2]([C:3]([C:4]#[C:5][H:12])([H:10])[H:11])([C:6]#[C:7][H:13])[H:9])[H:8]>>[O:1](/[C:5](=[C:4]1\[C@@:2]([C:6]#[C:7][H:13])([H:9])[C:3]1([H:10])[H:11])[H:12])[H:8]"
O       -0.55713584      -0.02085238       1.73031479
C        0.47589963      -0.57557499       0.09690472
C       -0.42147815      -0.89621735      -1.08364956
C       -1.31367497       0.11904253      -0.50070181
C       -1.92827696       0.45395900       0.56011359
C        1.54136341       0.37866110      -0.13842324
C        2.41605225       1.15500847      -0.39816638
H       -0.48049697       0.85061291       2.12720184
H        0.87251845      -1.49585258       0.52312680
H       -0.81381671      -1.90961111      -1.07581806
H       -0.03220761      -0.59362936      -2.05197020
H       -2.93485218       0.67879047       0.86350244
H        3.17610566       1.85566329      -0.65243493
13
Frame=13 idx=008345 GeodesicLength=1.3334519649717829 rxn_smarts="[O:1]([C@@:2]([C:3]([C:4]#[C:5][H:12])([H:10])[H:11])([C:6]#[C:7][H:13])[H:9])[H:8]>>[O:1](/[C:5](=[C:4]1\[C@@:2]([C:6]#[C:7][H:13])([H:9])[C:3]1([H:10])[H:11])[H:12])[H:8]"
O       -0.54900523      -0.04316464       1.75454969
C        0.47744589      -0.57240235       0.10576902
C       -0.42084590      -0.89855390      -1.08014054
C       -1.28158699       0.12441854      -0.47854011
C       -1.93624184       0.47520651       0.54988530
C        1.54374988       0.38180219      -0.14288554
C        2.41534536       1.15873495      -0.41040442
H       -0.50344898       0.82445207       2.16309999
H        0.88961632      -1.49832717       0.50605189
H       -0.82079045      -1.90885645      -1.06525629
H       -0.03452051      -0.60031424      -2.05082793
H       -2.95159689       0.69733511       0.82274103
H        3.17187934       1.85966936      -0.67404208
13
Frame=14 idx=008345 GeodesicLength=1.4350029036208356 rxn_smarts="[O:1]([C@@:2]([C:3]([C:4]#[C:5][H:12])([H:10])[H:11])([C:6]#[C:7][H:13])[H:9])[H:8]>>[O:1](/[C:5](=[C:4]1\[C@@:2]([C:6]#[C:7][H:13])([H:9])[C:3]1([H:10])[H:11])[H:12])[H:8]"
O       -0.54003685      -0.06733147       1.77922646
C        0.47967556      -0.56985630       0.11499456
C       -0.42037989      -0.90133013      -1.07580981
C       -1.25097897       0.12670174      -0.45478453
C       -1.94307221       0.49777817       0.53859465
C        1.54543168       0.38560925      -0.14748446
C        2.41310066       1.16399696      -0.42269324
H       -0.52830180       0.79532124       2.19916166
H        0.90777372      -1.50055996       0.48857712
H       -0.82648594      -1.90903839      -1.05443554
H       -0.03823500      -0.60625472      -2.04896094
H       -2.96566910       0.72117017       0.77964950
H        3.16717813       1.86379345      -0.69603544
13
Frame=15 idx=008345 GeodesicLength=1.5364354554550144 rxn_smarts="[O:1]([C@@:2]([C:3]([C:4]#[C:5][H:12])([H:10])[H:11])([C:6]#[C:7][H:13])[H:9])[H:8]>>[O:1](/[C:5](=[C:4]1\[C@@:2]([C:6]#[C:7][H:13])([H:9])[C:3]1([H:10])[H:11])[H:12])[H:8]"
O       -0.53004475      -0.09356761       1.80434748
C        0.48262857      -0.56832904       0.12461012
C       -0.42010922      -0.90483606      -1.07060322
C       -1.22162047       0.12598619      -0.42951556
C       -1.94811951       0.52228083       0.52599970
C        1.54654049       0.38955264      -0.15219311
C        2.40953072       1.17015073      -0.43503286
H       -0.55503215       0.76270897       2.23530420
H        0.92685524      -1.50295518       0.47072774
H       -0.83121564      -1.91036655      -1.04315639
H       -0.04327779      -0.61195452      -2.04633147
H       -2.97620530       0.75148629       0.73393025
H        3.16006981       1.86984331      -0.71808687
13
Frame=16 idx=008345 GeodesicLength=1.637769026481915 rxn_smarts="[O:1]([C@@:2]([C:3]([C:4]#[C:5][H:12])([H:10])[H:11])([C:6]#[C:7][H:13])[H:9])[H:8]>>[O:1](/[C:5](=[C:4]1\[C@@:2]([C:6]#[C:7][H:13])([H:9])[C:3]1([H:10])[H:11])[H:12])[H:8]"
O       -0.51921693      -0.12199501       1.83009979
C        0.48621440      -0.56685860       0.13461955
C       -0.42000308      -0.90879320      -1.06441000
C       -1.19420264       0.12197908      -0.40248461
C       -1.95182107       0.54818394       0.51225913
C        1.54602090       0.39560288      -0.15702750
C        2.40277166       1.18001782      -0.44746802
H       -0.58490749       0.72604466       2.27165857
H        0.94761372      -1.50412611       0.45231966
H       -0.83416520      -1.91290784      -1.03125336
H       -0.04996646      -0.61681554      -2.04285447
H       -2.98366193       0.78672202       0.68592490
H        3.15532411       1.87294593      -0.74138365
