17
Frame=0 idx=011050 GeodesicLength=0.0 rxn_smarts="[C:1]([N:2]([C:3](=[O:4])[N:5]([C:6]([H:12])([H:13])[H:14])[C:7]([H:15])([H:16])[H:17])[H:11])([H:8])([H:9])[H:10]>>[C:1]([N:2]1[C@:3]([N:5]([C:6]([H:12])([H:13])[H:14])[C:7]([H:15])([H:16])[H:17])([H:11])[O:4]1)([H:8])([H:9])[H:10]"
C        2.60297030      -0.34012493      -0.77305353
N        1.19496723      -0.45741363      -0.88906961
C        0.47647520      -0.29543363       0.31457666
O        0.71004643      -1.26338715       1.13909282
N       -0.88997421       0.05876854       0.11841554
C       -1.91475461      -0.86725718       0.52797955
C       -1.29755022       1.42269885      -0.08623918
H        2.96378827      -0.11754101       0.23545498
H        3.01788389      -1.29757150      -1.11267916
H        2.96303959       0.39479412      -1.50269504
H        0.94146563       0.73118135       0.58143749
H       -2.31332492      -0.63278437       1.52201297
H       -1.48709918      -1.86751418       0.56591448
H       -2.74110481      -0.83383667      -0.18792129
H       -0.44754841       2.02482727      -0.40603146
H       -2.05762870       1.47367081      -0.87102004
H       -1.72165144       1.86692338       0.82382489
17
Frame=1 idx=011050 GeodesicLength=0.08546798268395267 rxn_smarts="[C:1]([N:2]([C:3](=[O:4])[N:5]([C:6]([H:12])([H:13])[H:14])[C:7]([H:15])([H:16])[H:17])[H:11])([H:8])([H:9])[H:10]>>[C:1]([N:2]1[C@:3]([N:5]([C:6]([H:12])([H:13])[H:14])[C:7]([H:15])([H:16])[H:17])([H:11])[O:4]1)([H:8])([H:9])[H:10]"
C        2.61232952      -0.35323535      -0.76171655
N        1.20041290      -0.44063530      -0.87452805
C        0.46901646      -0.27843561       0.31676366
O        0.72243965      -1.25951535       1.11868958
N       -0.89564005       0.06420629       0.11388819
C       -1.91296677      -0.87213126       0.51905110
C       -1.31122937       1.42790121      -0.07498316
H        2.97704844      -0.11585926       0.24199394
H        3.00844748      -1.32457621      -1.08178984
H        2.98419731       0.36346390      -1.50296315
H        0.95613485       0.76398478       0.52918347
H       -2.31044301      -0.64713555       1.51570814
H       -1.47969394      -1.87023563       0.54474958
H       -2.74169024      -0.84000758      -0.19407296
H       -0.47434416       2.03235700      -0.42386814
H       -2.09619539       1.47977541      -0.83456924
H       -1.70782368       1.87007850       0.84846342
17
Frame=2 idx=011050 GeodesicLength=0.17065948879563902 rxn_smarts="[C:1]([N:2]([C:3](=[O:4])[N:5]([C:6]([H:12])([H:13])[H:14])[C:7]([H:15])([H:16])[H:17])[H:11])([H:8])([H:9])[H:10]>>[C:1]([N:2]1[C@:3]([N:5]([C:6]([H:12])([H:13])[H:14])[C:7]([H:15])([H:16])[H:17])([H:11])[O:4]1)([H:8])([H:9])[H:10]"
C        2.62058701      -0.36589324      -0.75055118
N        1.20538903      -0.42632353      -0.85916695
C        0.46220873      -0.26146151       0.32030351
O        0.73416646      -1.25523999       1.09969595
N       -0.90066833       0.06948782       0.10972467
C       -1.91099951      -0.87681984       0.50967450
C       -1.32375038       1.43288642      -0.06355073
H        2.98994149      -0.11279511       0.24760613
H        2.99926194      -1.34984739      -1.05049580
H        3.00183555       0.33236369      -1.50402827
H        0.96972443       0.79514281       0.47609478
H       -2.30773689      -0.66131250       1.50871595
H       -1.47224941      -1.87264711       0.52317633
H       -2.74162149      -0.84566347      -0.20118703
H       -0.50061469       2.03962311      -0.44027967
H       -2.13219829       1.48541029      -0.79780062
H       -1.69327562       1.87308956       0.87206844
17
Frame=3 idx=011050 GeodesicLength=0.25559141319805573 rxn_smarts="[C:1]([N:2]([C:3](=[O:4])[N:5]([C:6]([H:12])([H:13])[H:14])[C:7]([H:15])([H:16])[H:17])[H:11])([H:8])([H:9])[H:10]>>[C:1]([N:2]1[C@:3]([N:5]([C:6]([H:12])([H:13])[H:14])[C:7]([H:15])([H:16])[H:17])([H:11])[O:4]1)([H:8])([H:9])[H:10]"
C        2.62786939      -0.37799887      -0.73954109
N        1.20988401      -0.41423840      -0.84326235
C        0.45594659      -0.24469027       0.32489463
O        0.74523838      -1.25066132       1.08196924
N       -0.90513685       0.07456854       0.10588436
C       -1.90893242      -0.88128983       0.50000262
C       -1.33514774       1.43763304      -0.05203737
H        3.00240766      -0.10850250       0.25237825
H        2.99054094      -1.37330694      -1.01889618
H        3.01632836       0.30178180      -1.50562535
H        0.98214590       0.82428626       0.42228259
H       -2.30515679      -0.67518915       1.50122484
H       -1.46489162      -1.87473932       0.50139149
H       -2.74108255      -0.85075191      -0.20899803
H       -0.52625116       2.04654642      -0.45535807
H       -2.16569943       1.49055586      -0.76090263
H       -1.67806269       1.87599659       0.89459304
17
Frame=4 idx=011050 GeodesicLength=0.34026828546505694 rxn_smarts="[C:1]([N:2]([C:3](=[O:4])[N:5]([C:6]([H:12])([H:13])[H:14])[C:7]([H:15])([H:16])[H:17])[H:11])([H:8])([H:9])[H:10]>>[C:1]([N:2]1[C@:3]([N:5]([C:6]([H:12])([H:13])[H:14])[C:7]([H:15])([H:16])[H:17])([H:11])[O:4]1)([H:8])([H:9])[H:10]"
C        2.63430339      -0.38944366      -0.72867711
N        1.21390745      -0.40408089      -0.82706113
C        0.45012528      -0.22831232       0.33025112
O        0.75567581      -1.24594277       1.06531919
N       -0.90912625       0.07940021       0.10234322
C       -1.90685576      -0.88551751       0.49020668
C       -1.34544873       1.44212134      -0.04055843
H        3.01440399      -0.10316379       0.25641937
H        2.98243655      -1.39487505      -0.98717170
H        3.02806458       0.27203570      -1.50748394
H        0.99333943       0.85109111       0.36794958
H       -2.30267363      -0.68863430       1.49344117
H       -1.45777335      -1.87652522       0.47962268
H       -2.74026339      -0.85524224      -0.21723196
H       -0.55112711       2.05304818      -0.46921692
H       -2.19673929       1.49518903      -0.72411105
H       -1.66224898       1.87885217       0.91595923
17
Frame=5 idx=011050 GeodesicLength=0.42468600443920934 rxn_smarts="[C:1]([N:2]([C:3](=[O:4])[N:5]([C:6]([H:12])([H:13])[H:14])[C:7]([H:15])([H:16])[H:17])[H:11])([H:8])([H:9])[H:10]>>[C:1]([N:2]1[C@:3]([N:5]([C:6]([H:12])([H:13])[H:14])[C:7]([H:15])([H:16])[H:17])([H:11])[O:4]1)([H:8])([H:9])[H:10]"
C        2.64000953      -0.40013031      -0.71795763
N        1.21748825      -0.39552994      -0.81075955
C        0.44464680      -0.21251172       0.33612225
O        0.76550838      -1.24125982       1.04950935
N       -0.91271207       0.08393649       0.09909770
C       -1.90485074      -0.88946447       0.48046083
C       -1.35468536       1.44631366      -0.02923139
H        3.02589694      -0.09701001       0.25983977
H        2.97504853      -1.41447349      -0.95559097
H        3.03742741       0.24344805      -1.50931939
H        1.00327529       0.87529360       0.31336111
H       -2.30028455      -0.70149076       1.48554981
H       -1.45103654      -1.87799605       0.45811511
H       -2.73932063      -0.85910656      -0.22561579
H       -0.57512064       2.05902216      -0.48196352
H       -2.22533974       1.49927292      -0.68767879
H       -1.64595087       1.88168624       0.93606109
17
Frame=6 idx=011050 GeodesicLength=0.5088726509516287 rxn_smarts="[C:1]([N:2]([C:3](=[O:4])[N:5]([C:6]([H:12])([H:13])[H:14])[C:7]([H:15])([H:16])[H:17])[H:11])([H:8])([H:9])[H:10]>>[C:1]([N:2]1[C@:3]([N:5]([C:6]([H:12])([H:13])[H:14])[C:7]([H:15])([H:16])[H:17])([H:11])[O:4]1)([H:8])([H:9])[H:10]"
C        2.64510413      -0.41002911      -0.70737005
N        1.22066860      -0.38830373      -0.79451735
C        0.43942856      -0.19739127       0.34228494
O        0.77478057      -1.23668152       1.03438626
N       -0.91596738       0.08816377       0.09611315
C       -1.90296878      -0.89313383       0.47084829
C       -1.36292742       1.45021907      -0.01810343
H        3.03687141      -0.09014303       0.26273001
H        2.96842777      -1.43216594      -0.92421945
H        3.04479984       0.21610612      -1.51099752
H        1.01195320       0.89679510       0.25868005
H       -2.29797211      -0.71372114       1.47766303
H       -1.44475120      -1.87917817       0.43696265
H       -2.73837410      -0.86235559      -0.23398835
H       -0.59821236       2.06444282      -0.49371941
H       -2.25165676       1.50284750      -0.65168068
H       -1.62920397       1.88452895       0.95492786
17
Frame=7 idx=011050 GeodesicLength=0.5928610801464134 rxn_smarts="[C:1]([N:2]([C:3](=[O:4])[N:5]([C:6]([H:12])([H:13])[H:14])[C:7]([H:15])([H:16])[H:17])[H:11])([H:8])([H:9])[H:10]>>[C:1]([N:2]1[C@:3]([N:5]([C:6]([H:12])([H:13])[H:14])[C:7]([H:15])([H:16])[H:17])([H:11])[O:4]1)([H:8])([H:9])[H:10]"
C        2.64968625      -0.41912212      -0.69690255
N        1.22348907      -0.38214857      -0.77845999
C        0.43439594      -0.18303183       0.34856242
O        0.78353317      -1.23228098       1.01982003
N       -0.91895762       0.09207359       0.09335554
C       -1.90125502      -0.89654273       0.46143165
C       -1.37023736       1.45385511      -0.00721204
H        3.04732254      -0.08263732       0.26517859
H        2.96258617      -1.44803130      -0.89310306
H        3.05052407       0.19006126      -1.51242894
H        1.01940483       0.91557358       0.20404808
H       -2.29572636      -0.72532067       1.46987140
H       -1.43898043      -1.88011301       0.41623753
H       -2.73752627      -0.86501424      -0.24222713
H       -0.62039508       2.06931270      -0.50460410
H       -2.27584308       1.50596604      -0.61616961
H       -1.61202081       1.88740048       0.97260217
17
Frame=8 idx=011050 GeodesicLength=0.6766943122407683 rxn_smarts="[C:1]([N:2]([C:3](=[O:4])[N:5]([C:6]([H:12])([H:13])[H:14])[C:7]([H:15])([H:16])[H:17])[H:11])([H:8])([H:9])[H:10]>>[C:1]([N:2]1[C@:3]([N:5]([C:6]([H:12])([H:13])[H:14])[C:7]([H:15])([H:16])[H:17])([H:11])[O:4]1)([H:8])([H:9])[H:10]"
C        2.65384080      -0.42744987      -0.68652679
N        1.22599383      -0.37688530      -0.76266212
C        0.42950317      -0.16942409       0.35481051
O        0.79181571      -1.22799235       1.00577890
N       -0.92173639       0.09569138       0.09078195
C       -1.89972354      -0.89972435       0.45218857
C       -1.37669860       1.45725932       0.00348060
H        3.05725804      -0.07449616       0.26722816
H        2.95750925      -1.46221935      -0.86213186
H        3.05489118       0.16517533      -1.51360183
H        1.02566265       0.93170007       0.14943906
H       -2.29354970      -0.73636117       1.46217652
H       -1.43370924      -1.88083006       0.39587722
H       -2.73681579      -0.86713153      -0.25032686
H       -0.64175581       2.07365994      -0.51473969
H       -2.29813576       1.50871135      -0.58099363
H       -1.59434980       1.89031683       0.98922130
17
Frame=9 idx=011050 GeodesicLength=0.7603871644148689 rxn_smarts="[C:1]([N:2]([C:3](=[O:4])[N:5]([C:6]([H:12])([H:13])[H:14])[C:7]([H:15])([H:16])[H:17])[H:11])([H:8])([H:9])[H:10]>>[C:1]([N:2]1[C@:3]([N:5]([C:6]([H:12])([H:13])[H:14])[C:7]([H:15])([H:16])[H:17])([H:11])[O:4]1)([H:8])([H:9])[H:10]"
C        2.65765081      -0.43500759      -0.67623424
N        1.22822705      -0.37232512      -0.74718662
C        0.42469818      -0.15661950       0.36093137
O        0.79967004      -1.22389283       0.99213185
N       -0.92435444       0.09901290       0.08837541
C       -1.89841191      -0.90268079       0.44316044
C       -1.38236792       1.46043516       0.01395515
H        3.06668962      -0.06577787       0.26894089
H        2.95320163      -1.47478679      -0.83135704
H        3.05816002       0.14145975      -1.51445357
H        1.03077748       0.94520702       0.09495168
H       -2.29145767      -0.74682777       1.45463288
H       -1.42898609      -1.88134548       0.37592471
H       -2.73631559      -0.86871850      -0.25820139
H       -0.66230715       2.07747312      -0.52420521
H       -2.31864857       1.51111500      -0.54617862
H       -1.57622549       1.89327929       1.00481229
17
Frame=10 idx=011050 GeodesicLength=0.843946501305616 rxn_smarts="[C:1]([N:2]([C:3](=[O:4])[N:5]([C:6]([H:12])([H:13])[H:14])[C:7]([H:15])([H:16])[H:17])[H:11])([H:8])([H:9])[H:10]>>[C:1]([N:2]1[C@:3]([N:5]([C:6]([H:12])([H:13])[H:14])[C:7]([H:15])([H:16])[H:17])([H:11])[O:4]1)([H:8])([H:9])[H:10]"
C        2.66117491      -0.44177119      -0.66602461
N        1.23022151      -0.36827741      -0.73207013
C        0.41994014      -0.14467777       0.36687836
O        0.80712902      -1.22011323       0.97873477
N       -0.92684878       0.10202420       0.08614077
C       -1.89736077      -0.90542136       0.43441072
C       -1.38727381       1.46338191       0.02416531
H        3.07563049      -0.05658684       0.27039834
H        2.94962694      -1.48576301      -0.80091540
H        3.06053489       0.11901712      -1.51490745
H        1.03481962       0.95614906       0.04073081
H       -2.28948251      -0.75669523       1.44731172
H       -1.42488154      -1.88169382       0.35646587
H       -2.73608671      -0.86980150      -0.26576326
H       -0.68201777       2.08073274      -0.53309571
H       -2.33744000       1.51319288      -0.51181843
H       -1.55768564       1.89630344       1.01935832
17
Frame=11 idx=011050 GeodesicLength=0.9273813758304074 rxn_smarts="[C:1]([N:2]([C:3](=[O:4])[N:5]([C:6]([H:12])([H:13])[H:14])[C:7]([H:15])([H:16])[H:17])[H:11])([H:8])([H:9])[H:10]>>[C:1]([N:2]1[C@:3]([N:5]([C:6]([H:12])([H:13])[H:14])[C:7]([H:15])([H:16])[H:17])([H:11])[O:4]1)([H:8])([H:9])[H:10]"
C        2.66445861      -0.44772447      -0.65589567
N        1.23200083      -0.36458174      -0.71732631
C        0.41520192      -0.13364865       0.37263867
O        0.81423296      -1.21677976       0.96545406
N       -0.92924827       0.10471243       0.08408791
C       -1.89660211      -0.90795766       0.42598954
C       -1.39144334       1.46610301       0.03407142
H        3.08410091      -0.04701550       0.27168132
H        2.94674284      -1.49518944      -0.77093753
H        3.06217469       0.09794159      -1.51490155
H        1.03786655       0.96460611      -0.01309219
H       -2.28765599      -0.76594422       1.44026596
H       -1.42145144      -1.88191396       0.33756836
H       -2.73617614      -0.87040843      -0.27294877
H       -0.70086990       2.08341741      -0.54151349
H       -2.35457613       1.51497118      -0.47798804
H       -1.53875599       1.89941207       1.03284630
17
Frame=12 idx=011050 GeodesicLength=1.010697199439628 rxn_smarts="[C:1]([N:2]([C:3](=[O:4])[N:5]([C:6]([H:12])([H:13])[H:14])[C:7]([H:15])([H:16])[H:17])[H:11])([H:8])([H:9])[H:10]>>[C:1]([N:2]1[C@:3]([N:5]([C:6]([H:12])([H:13])[H:14])[C:7]([H:15])([H:16])[H:17])([H:11])[O:4]1)([H:8])([H:9])[H:10]"
C        2.66754358      -0.45283952      -0.64585412
N        1.23359536      -0.36107128      -0.70295364
C        0.41045250      -0.12358724       0.37822176
O        0.82100431      -1.21403296       0.95212569
N       -0.93157587       0.10705829       0.08223834
C       -1.89617175      -0.91029161       0.41796091
C       -1.39489447       1.46858439       0.04362197
H        3.09211214      -0.03718296       0.27287417
H        2.94450496      -1.50308251      -0.74159803
H        3.06322988       0.07836486      -1.51436947
H        1.03999905       0.97065938      -0.06635064
H       -2.28603073      -0.77453325       1.43355420
H       -1.41876445      -1.88203195       0.31932438
H       -2.73661895      -0.87056146      -0.27968390
H       -0.71882579       2.08547391      -0.54956396
H       -2.37009835       1.51644879      -0.44478455
H       -1.51946139       1.90262512       1.04523689
17
Frame=13 idx=011050 GeodesicLength=1.0939241369121355 rxn_smarts="[C:1]([N:2]([C:3](=[O:4])[N:5]([C:6]([H:12])([H:13])[H:14])[C:7]([H:15])([H:16])[H:17])[H:11])([H:8])([H:9])[H:10]>>[C:1]([N:2]1[C@:3]([N:5]([C:6]([H:12])([H:13])[H:14])[C:7]([H:15])([H:16])[H:17])([H:11])[O:4]1)([H:8])([H:9])[H:10]"
C        2.67046032      -0.45718424      -0.63586771
N        1.23502168      -0.35772434      -0.68894407
C        0.40568605      -0.11442490       0.38362143
O        0.82747815      -1.21177854       0.93879738
N       -0.93384774       0.10909721       0.08055593
C       -1.89605002      -0.91245446       0.41024909
C       -1.39768754       1.47086634       0.05288927
H        3.09967931      -0.02700505       0.27398826
H        2.94288033      -1.50959376      -0.71271733
H        3.06381092       0.06006992      -1.51338801
H        1.04125904       0.97444994      -0.11923836
H       -2.28459473      -0.78257250       1.42711734
H       -1.41675681      -1.88206605       0.30159975
H       -2.73739939      -0.87028760      -0.28604216
H       -0.73600002       2.08698167      -0.55727195
H       -2.38417176       1.51771505      -0.41202460
H       -1.49976779       1.90591133       1.05667574
17
Frame=14 idx=011050 GeodesicLength=1.1770664566093754 rxn_smarts="[C:1]([N:2]([C:3](=[O:4])[N:5]([C:6]([H:12])([H:13])[H:14])[C:7]([H:15])([H:16])[H:17])[H:11])([H:8])([H:9])[H:10]>>[C:1]([N:2]1[C@:3]([N:5]([C:6]([H:12])([H:13])[H:14])[C:7]([H:15])([H:16])[H:17])([H:11])[O:4]1)([H:8])([H:9])[H:10]"
C        2.67323778      -0.46074787      -0.62593804
N        1.23629587      -0.35443405      -0.67528218
C        0.40088992      -0.10619061       0.38887245
O        0.83368500      -1.21012068       0.92536010
N       -0.93607896       0.11081967       0.07905898
C       -1.89626223      -0.91446036       0.40288710
C       -1.39983986       1.47295524       0.06184885
H        3.10682498      -0.01654543       0.27508877
H        2.94183400      -1.51476082      -0.68439493
H        3.06401214       0.04313128      -1.51193097
H        1.04171604       0.97605830      -0.17168565
H       -2.28339328      -0.79005367       1.42098620
H       -1.41547105      -1.88205485       0.28444670
H       -2.73854011      -0.86961535      -0.29200190
H       -0.75238105       2.08793089      -0.56470987
H       -2.39684434       1.51879360      -0.37976146
H       -1.47968485       1.90929471       1.06715583
17
Frame=15 idx=011050 GeodesicLength=1.2601387031281004 rxn_smarts="[C:1]([N:2]([C:3](=[O:4])[N:5]([C:6]([H:12])([H:13])[H:14])[C:7]([H:15])([H:16])[H:17])[H:11])([H:8])([H:9])[H:10]>>[C:1]([N:2]1[C@:3]([N:5]([C:6]([H:12])([H:13])[H:14])[C:7]([H:15])([H:16])[H:17])([H:11])[O:4]1)([H:8])([H:9])[H:10]"
C        2.67588996      -0.46352136      -0.61607033
N        1.23743478      -0.35109622      -0.66193635
C        0.39604685      -0.09890766       0.39401993
O        0.83964011      -1.20912872       0.91169068
N       -0.93827329       0.11221651       0.07777476
C       -1.89681494      -0.91629655       0.39590642
C       -1.40136537       1.47482797       0.07048051
H        3.11354610      -0.00588922       0.27623021
H        2.94131848      -1.51860546      -0.65675455
H        3.06390836       0.02762326      -1.50996259
H        1.04142905       0.97554877      -0.22361334
H       -2.28247939      -0.79693489       1.41516938
H       -1.41492384      -1.88199099       0.26792390
H       -2.74001730      -0.86855212      -0.29753881
H       -0.76795048       2.08826452      -0.57192863
H       -2.40813881       1.51967570      -0.34804495
H       -1.45925029       1.91276647       1.07665376
17
Frame=16 idx=011050 GeodesicLength=1.3431551304017078 rxn_smarts="[C:1]([N:2]([C:3](=[O:4])[N:5]([C:6]([H:12])([H:13])[H:14])[C:7]([H:15])([H:16])[H:17])[H:11])([H:8])([H:9])[H:10]>>[C:1]([N:2]1[C@:3]([N:5]([C:6]([H:12])([H:13])[H:14])[C:7]([H:15])([H:16])[H:17])([H:11])[O:4]1)([H:8])([H:9])[H:10]"
C        2.67843507      -0.46554968      -0.60623058
N        1.23844175      -0.34772574      -0.64889391
C        0.39116072      -0.09251736       0.39907897
O        0.84536762      -1.20873808       0.89784782
N       -0.94044110       0.11331673       0.07667544
C       -1.89770084      -0.91800403       0.38923553
C       -1.40229601       1.47653410       0.07885463
H        3.11985632       0.00509303       0.27741895
H        2.94132015      -1.52124012      -0.62959252
H        3.06355755       0.01335928      -1.50756867
H        1.04041496       0.97299811      -0.27527058
H       -2.28184090      -0.80333706       1.40962137
H       -1.41507639      -1.88191196       0.25190016
H       -2.74183478      -0.86712131      -0.30273365
H       -0.78279338       2.08808161      -0.57893386
H       -2.41817043       1.52045510      -0.31671563
H       -1.43840033       1.91630736       1.08530653
