19
Frame=0 idx=009711 GeodesicLength=0.0 rxn_smarts="[C:1]([C@@:2]1([H:11])[C@@:3]2([H:12])[C:4]([H:13])([H:14])[C:5]([H:15])([H:16])[C:6]([H:17])([H:18])[C@@:7]12[H:19])([H:8])([H:9])[H:10]>>[C:1]([C:2]1([H:11])[C:3]([H:12])=[C:7]1[H:19])([H:8])([H:9])[H:10].[C:4](=[C:5]([C:6]([H:15])([H:17])[H:18])[H:16])([H:13])[H:14]"
C       -1.86805836      -0.04789621       0.71077375
C       -1.33694207      -0.57503628      -0.61104881
C       -0.10868916      -0.05660880      -1.30612244
C        0.84688405       1.15017223      -0.73478596
C        1.01463047       0.90376695       0.66339978
C        1.51625441      -0.39053900       1.03399423
C       -0.07606355      -1.35367356      -0.70811454
H       -2.26324090       0.96997947       0.63215259
H       -2.68918834      -0.69050682       1.03597930
H       -1.12543266      -0.07864900       1.50687397
H       -2.15389965      -0.83212165      -1.28820295
H       -0.13042851       0.08343278      -2.38300046
H        1.75188587       0.95853770      -1.31484458
H        0.45715461       2.13731360      -0.97730902
H        2.33055891       0.45686292       1.28490636
H        0.53283548       1.50145176       1.42483977
H        1.21828867      -0.84651254       1.97114911
H        2.01358672      -1.00593196       0.30108650
H        0.06986398      -2.28404166      -1.24172657
19
Frame=1 idx=009711 GeodesicLength=0.10681623106588295 rxn_smarts="[C:1]([C@@:2]1([H:11])[C@@:3]2([H:12])[C:4]([H:13])([H:14])[C:5]([H:15])([H:16])[C:6]([H:17])([H:18])[C@@:7]12[H:19])([H:8])([H:9])[H:10]>>[C:1]([C:2]1([H:11])[C:3]([H:12])=[C:7]1[H:19])([H:8])([H:9])[H:10].[C:4](=[C:5]([C:6]([H:15])([H:17])[H:18])[H:16])([H:13])[H:14]"
C       -1.87913686      -0.04705241       0.70978850
C       -1.34455376      -0.57969485      -0.60758581
C       -0.11693081      -0.06392189      -1.30522849
C        0.86095368       1.16525823      -0.73447108
C        1.03376980       0.90918837       0.66122063
C        1.51765977      -0.39951770       1.02084446
C       -0.08046467      -1.35583275      -0.70056208
H       -2.28196287       0.96697337       0.62231474
H       -2.69423537      -0.69318314       1.04326955
H       -1.13544720      -0.06282044       1.50529104
H       -2.15940685      -0.84490365      -1.28397577
H       -0.12883384       0.07690308      -2.38173210
H        1.76518192       0.98415082      -1.31898385
H        0.46566309       2.15219033      -0.96912475
H        2.33425996       0.45797227       1.29658095
H        0.53538113       1.49506487       1.42162148
H        1.20122500      -0.86630807       1.94666572
H        2.04397832      -1.00076306       0.29560580
H        0.06289959      -2.29370339      -1.22153895
19
Frame=2 idx=009711 GeodesicLength=0.2134865569515096 rxn_smarts="[C:1]([C@@:2]1([H:11])[C@@:3]2([H:12])[C:4]([H:13])([H:14])[C:5]([H:15])([H:16])[C:6]([H:17])([H:18])[C@@:7]12[H:19])([H:8])([H:9])[H:10]>>[C:1]([C:2]1([H:11])[C:3]([H:12])=[C:7]1[H:19])([H:8])([H:9])[H:10].[C:4](=[C:5]([C:6]([H:15])([H:17])[H:18])[H:16])([H:13])[H:14]"
C       -1.89026805      -0.04642821       0.70884513
C       -1.35243358      -0.58450475      -0.60415605
C       -0.12549138      -0.07142827      -1.30442538
C        0.87552570       1.18057508      -0.73412808
C        1.05278963       0.91439978       0.65900756
C        1.51904621      -0.40837704       1.00724979
C       -0.08515204      -1.35812496      -0.69316969
H       -2.30069255       0.96363089       0.61265742
H       -2.69931612      -0.69587519       1.05069965
H       -1.14556947      -0.04736124       1.50352421
H       -2.16522299      -0.85775486      -1.27965582
H       -0.12720176       0.07054763      -2.38040517
H        1.77909711       1.01018301      -1.32275476
H        0.47475634       2.16727283      -0.96076339
H        2.33781060       0.45909762       1.30803907
H        0.53796789       1.48853113       1.41791871
H        1.18467904      -0.88523292       1.92170657
H        2.07390911      -0.99579555       0.29111498
H        0.05576633      -2.30335500      -1.20130475
19
Frame=3 idx=009711 GeodesicLength=0.320031977310217 rxn_smarts="[C:1]([C@@:2]1([H:11])[C@@:3]2([H:12])[C:4]([H:13])([H:14])[C:5]([H:15])([H:16])[C:6]([H:17])([H:18])[C@@:7]12[H:19])([H:8])([H:9])[H:10]>>[C:1]([C:2]1([H:11])[C:3]([H:12])=[C:7]1[H:19])([H:8])([H:9])[H:10].[C:4](=[C:5]([C:6]([H:15])([H:17])[H:18])[H:16])([H:13])[H:14]"
C       -1.90146353      -0.04602099       0.70794569
C       -1.36059910      -0.58947760      -0.60075714
C       -0.13439932      -0.07913869      -1.30372667
C        0.89062706       1.19612959      -0.73376475
C        1.07168021       0.91939680       0.65674523
C        1.52041628      -0.41712195       0.99318442
C       -0.09013861      -1.36055594      -0.68594043
H       -2.31944142       0.95995626       0.60318186
H       -2.70444177      -0.69857765       1.05827473
H       -1.15580575      -0.03226914       1.50157516
H       -2.17137037      -0.87069514      -1.27523479
H       -0.12554724       0.06437045      -2.37901965
H        1.79368753       1.03667016      -1.32612519
H        0.48444989       2.18255988      -0.95223852
H        2.34119553       0.46026328       1.31929165
H        0.54058348       1.48185039       1.41371908
H        1.16869202      -0.90330578       1.89630640
H        2.10342846      -0.99103337       0.28760683
H        0.04844664      -2.31300057      -1.18102392
19
Frame=4 idx=009711 GeodesicLength=0.4264761130703287 rxn_smarts="[C:1]([C@@:2]1([H:11])[C@@:3]2([H:12])[C:4]([H:13])([H:14])[C:5]([H:15])([H:16])[C:6]([H:17])([H:18])[C@@:7]12[H:19])([H:8])([H:9])[H:10]>>[C:1]([C:2]1([H:11])[C:3]([H:12])=[C:7]1[H:19])([H:8])([H:9])[H:10].[C:4](=[C:5]([C:6]([H:15])([H:17])[H:18])[H:16])([H:13])[H:14]"
C       -1.91273461      -0.04582813       0.70709285
C       -1.36906852      -0.59462613      -0.59738552
C       -0.14368491      -0.08706649      -1.30314758
C        0.90628805       1.21193223      -0.73338917
C        1.09043207       0.92417576       0.65441632
C        1.52177490      -0.42575721       0.97861584
C       -0.09543731      -1.36313198      -0.67887698
H       -2.33822155       0.95595431       0.59388846
H       -2.70962236      -0.70128580       1.06600211
H       -1.16616049      -0.01754057       1.49944616
H       -2.17787214      -0.88374699      -1.27070146
H       -0.12388511       0.05837563      -2.37757519
H        1.80901675       1.06365604      -1.32905854
H        0.49475693       2.19805114      -0.94356557
H        2.34439786       0.46148586       1.33034991
H        0.54321381       1.47502228       1.40900786
H        1.15330259      -0.92054746       1.87049386
H        2.13257984      -0.98647751       0.28507950
H        0.04092419      -2.32264498      -1.16069289
19
Frame=5 idx=009711 GeodesicLength=0.5328375657273452 rxn_smarts="[C:1]([C@@:2]1([H:11])[C@@:3]2([H:12])[C:4]([H:13])([H:14])[C:5]([H:15])([H:16])[C:6]([H:17])([H:18])[C@@:7]12[H:19])([H:8])([H:9])[H:10]>>[C:1]([C:2]1([H:11])[C:3]([H:12])=[C:7]1[H:19])([H:8])([H:9])[H:10].[C:4](=[C:5]([C:6]([H:15])([H:17])[H:18])[H:16])([H:13])[H:14]"
C       -1.92409174      -0.04584827       0.70628985
C       -1.37785962      -0.59996353      -0.59403673
C       -0.15337908      -0.09522436      -1.30270316
C        0.92253957       1.22799398      -0.73300983
C        1.10903730       0.92873345       0.65200359
C        1.52312773      -0.43428776       0.96350679
C       -0.10106048      -1.36585861      -0.67198176
H       -2.35704517       0.95162786       0.58477852
H       -2.71486637      -0.70399431       1.07389089
H       -1.17663685      -0.00317122       1.49713840
H       -2.18475133      -0.89693396      -1.26604294
H       -0.12223023       0.05256789      -2.37606883
H        1.82514833       1.09118249      -1.33151804
H        0.50569226       2.21374665      -0.93476120
H        2.34739827       0.46278381       1.34122769
H        0.54584611       1.46804502       1.40376753
H        1.13854593      -0.93698018       1.84429430
H        2.16140022      -0.98212724       0.28353492
H        0.03318516      -2.33229171      -1.14030998
19
Frame=6 idx=009711 GeodesicLength=0.6391327135098435 rxn_smarts="[C:1]([C@@:2]1([H:11])[C@@:3]2([H:12])[C:4]([H:13])([H:14])[C:5]([H:15])([H:16])[C:6]([H:17])([H:18])[C@@:7]12[H:19])([H:8])([H:9])[H:10]>>[C:1]([C:2]1([H:11])[C:3]([H:12])=[C:7]1[H:19])([H:8])([H:9])[H:10].[C:4](=[C:5]([C:6]([H:15])([H:17])[H:18])[H:16])([H:13])[H:14]"
C       -1.93554557      -0.04608008       0.70554091
C       -1.38699084      -0.60550340      -0.59070564
C       -0.16351464      -0.10362601      -1.30240984
C        0.93941760       1.24432532      -0.73263698
C        1.12749034       0.93306696       0.64948481
C        1.52448290      -0.44271911       0.94781308
C       -0.10702075      -1.36874122      -0.66525847
H       -2.37592562       0.94697933       0.57585454
H       -2.72017884      -0.70670130       1.08195327
H       -1.18723538       0.01084428       1.49465205
H       -2.19203144      -0.91028141      -1.26124350
H       -0.12059998       0.04695427      -2.37449758
H        1.84215195       1.11930158      -1.33345605
H        0.51727129       2.22964422      -0.92584356
H        2.35017380       0.46417019       1.35193818
H        0.54846470       1.46091740       1.39797463
H        1.12445412      -0.95262377       1.81772607
H        2.18991997      -0.97798297       0.28298327
H        0.02521641      -2.34194429      -1.11986919
19
Frame=7 idx=009711 GeodesicLength=0.7453815677456371 rxn_smarts="[C:1]([C@@:2]1([H:11])[C@@:3]2([H:12])[C:4]([H:13])([H:14])[C:5]([H:15])([H:16])[C:6]([H:17])([H:18])[C@@:7]12[H:19])([H:8])([H:9])[H:10]>>[C:1]([C:2]1([H:11])[C:3]([H:12])=[C:7]1[H:19])([H:8])([H:9])[H:10].[C:4](=[C:5]([C:6]([H:15])([H:17])[H:18])[H:16])([H:13])[H:14]"
C       -1.94710553      -0.04652423       0.70485195
C       -1.39648087      -0.61126117      -0.58738521
C       -0.17412716      -0.11228618      -1.30228458
C        0.95696283       1.26094008      -0.73228038
C        1.14578667       0.93717514       0.64683571
C        1.52584918      -0.45105505       0.93148480
C       -0.11333046      -1.37178504      -0.65871058
H       -2.39487657       0.94200720       0.56712115
H       -2.72556456      -0.70940549       1.09020402
H       -1.19795515       0.02451144       1.49198722
H       -2.19973758      -0.92381765      -1.25628419
H       -0.11901235       0.04154495      -2.37285413
H        1.86010413       1.14806309      -1.33482462
H        0.52951258       2.24574380      -0.91683217
H        2.35269732       0.46565564       1.36249695
H        0.55105335       1.45363986       1.39159990
H        1.11105360      -0.96749804       1.79079959
H        2.21816333      -0.97404281       0.28344163
H        0.01700723      -2.35160555      -1.09936707
19
Frame=8 idx=009711 GeodesicLength=0.851602446005386 rxn_smarts="[C:1]([C@@:2]1([H:11])[C@@:3]2([H:12])[C:4]([H:13])([H:14])[C:5]([H:15])([H:16])[C:6]([H:17])([H:18])[C@@:7]12[H:19])([H:8])([H:9])[H:10]>>[C:1]([C:2]1([H:11])[C:3]([H:12])=[C:7]1[H:19])([H:8])([H:9])[H:10].[C:4](=[C:5]([C:6]([H:15])([H:17])[H:18])[H:16])([H:13])[H:14]"
C       -1.95878095      -0.04718043       0.70422889
C       -1.40634780      -0.61725298      -0.58406768
C       -0.18525155      -0.12122194      -1.30234376
C        0.97521427       1.27785813      -0.73195169
C        1.16392379       0.94105496       0.64403095
C        1.52723660      -0.45929956       0.91446641
C       -0.12000301      -1.37499655      -0.65234079
H       -2.41390996       0.93671228       0.55858285
H       -2.73102637      -0.71210578       1.09866085
H       -1.20879004       0.03783504       1.48914213
H       -2.20789218      -0.93757381      -1.25114387
H       -0.11748729       0.03634777      -2.37112951
H        1.87908142       1.17752755      -1.33556381
H        0.54243443       2.26204993      -0.90775286
H        2.35493716       0.46724579       1.37292431
H        0.55359595       1.44621313       1.38460897
H        1.09836591      -0.98162261       1.76351426
H        2.24615208      -0.97030974       0.28492917
H        0.00854753      -2.36128118      -1.07879483
19
Frame=9 idx=009711 GeodesicLength=0.9578953704012262 rxn_smarts="[C:1]([C@@:2]1([H:11])[C@@:3]2([H:12])[C:4]([H:13])([H:14])[C:5]([H:15])([H:16])[C:6]([H:17])([H:18])[C@@:7]12[H:19])([H:8])([H:9])[H:10]>>[C:1]([C:2]1([H:11])[C:3]([H:12])=[C:7]1[H:19])([H:8])([H:9])[H:10].[C:4](=[C:5]([C:6]([H:15])([H:17])[H:18])[H:16])([H:13])[H:14]"
C       -1.97058320      -0.04805938       0.70368941
C       -1.41662152      -0.62351718      -0.58072778
C       -0.19695944      -0.13046470      -1.30261674
C        0.99429062       1.29508058      -0.73166187
C        1.18190655       0.94470119       0.64100598
C        1.52865655      -0.46746835       0.89669107
C       -0.12704804      -1.37838604      -0.64615277
H       -2.43305617       0.93108316       0.55024261
H       -2.73654521      -0.71481728       1.10736586
H       -1.21973462       0.05084190       1.48613285
H       -2.21653717      -0.95161399      -1.24576704
H       -0.11604955       0.03139649      -2.36929599
H        1.89924726       1.20781478      -1.33551905
H        0.55607434       2.27852172      -0.89864533
H        2.35685918       0.46891963       1.38319744
H        0.55607677       1.43862758       1.37692884
H        1.08632252      -0.99497953       1.73583973
H        2.27386366      -0.96671464       0.28745637
H       -0.00016253      -2.37096593      -1.05816360
19
Frame=10 idx=009711 GeodesicLength=1.064182053935039 rxn_smarts="[C:1]([C@@:2]1([H:11])[C@@:3]2([H:12])[C:4]([H:13])([H:14])[C:5]([H:15])([H:16])[C:6]([H:17])([H:18])[C@@:7]12[H:19])([H:8])([H:9])[H:10]>>[C:1]([C:2]1([H:11])[C:3]([H:12])=[C:7]1[H:19])([H:8])([H:9])[H:10].[C:4](=[C:5]([C:6]([H:15])([H:17])[H:18])[H:16])([H:13])[H:14]"
C       -1.98251550      -0.04915573       0.70323410
C       -1.42730869      -0.63004991      -0.57737031
C       -0.20925667      -0.14002024      -1.30311334
C        1.01417540       1.31264174      -0.73142105
C        1.19972603       0.94811781       0.63776372
C        1.53012624      -0.47554889       0.87809506
C       -0.13447797      -1.38195309      -0.64015002
H       -2.45231662       0.92512194       0.54211518
H       -2.74213203      -0.71752778       1.11632041
H       -1.23078411       0.06351845       1.48294221
H       -2.22568053      -0.96594200      -1.24015420
H       -0.11471663       0.02668714      -2.36735530
H        1.92061237       1.23892388      -1.33470195
H        0.57044555       2.29519925      -0.88952715
H        2.35841610       0.47071013       1.39337130
H        0.55847383       1.43089476       1.36853895
H        1.07503064      -1.00763269       1.70777633
H        2.30131920      -0.96331595       0.29108138
H       -0.00913665      -2.38066883      -1.03744531
19
Frame=11 idx=009711 GeodesicLength=1.1704551086144386 rxn_smarts="[C:1]([C@@:2]1([H:11])[C@@:3]2([H:12])[C:4]([H:13])([H:14])[C:5]([H:15])([H:16])[C:6]([H:17])([H:18])[C@@:7]12[H:19])([H:8])([H:9])[H:10]>>[C:1]([C:2]1([H:11])[C:3]([H:12])=[C:7]1[H:19])([H:8])([H:9])[H:10].[C:4](=[C:5]([C:6]([H:15])([H:17])[H:18])[H:16])([H:13])[H:14]"
C       -1.99458431      -0.05047341       0.70287417
C       -1.43842608      -0.63686705      -0.57398315
C       -0.22218077      -0.14990504      -1.30385249
C        1.03492590       1.33055385      -0.73123867
C        1.21738027       0.95130772       0.63427462
C        1.53166055      -0.48353953       0.85861250
C       -0.14229995      -1.38569975      -0.63433460
H       -2.47171030       0.91882093       0.53421215
H       -2.74777962      -0.72024135       1.12554622
H       -1.24193553       0.07587270       1.47957174
H       -2.23534575      -0.98059099      -1.23427484
H       -0.11350866       0.02223808      -2.36529258
H        1.94326577       1.27090718      -1.33304068
H        0.58557372       2.31207451      -0.88042999
H        2.35956423       0.47262297       1.40345791
H        0.56076785       1.42301562       1.35938691
H        1.06450953      -1.01960994       1.67930336
H        2.32850061      -0.96010005       0.29584081
H       -0.01837744      -2.39038646      -1.01663337
19
Frame=12 idx=009711 GeodesicLength=1.276716238277717 rxn_smarts="[C:1]([C@@:2]1([H:11])[C@@:3]2([H:12])[C:4]([H:13])([H:14])[C:5]([H:15])([H:16])[C:6]([H:17])([H:18])[C@@:7]12[H:19])([H:8])([H:9])[H:10]>>[C:1]([C:2]1([H:11])[C:3]([H:12])=[C:7]1[H:19])([H:8])([H:9])[H:10].[C:4](=[C:5]([C:6]([H:15])([H:17])[H:18])[H:16])([H:13])[H:14]"
C       -2.00679610      -0.05201775       0.70262209
C       -1.44999097      -0.64398733      -0.57055303
C       -0.23577214      -0.16013922      -1.30485464
C        1.05660280       1.34883552      -0.73112679
C        1.23487147       0.95427111       0.63050323
C        1.53327854      -0.49143942       0.83816574
C       -0.15052235      -1.38962964      -0.62870940
H       -2.49125656       0.91217073       0.52654641
H       -2.75347690      -0.72296375       1.13507007
H       -1.25318048       0.08791236       1.47602175
H       -2.24555616      -0.99559980      -1.22809427
H       -0.11244937       0.01807014      -2.36308834
H        1.96730443       1.30382938      -1.33045038
H        0.60148976       2.32914582      -0.87138750
H        2.36024964       0.47465796       1.41347376
H        0.56293985       1.41499116       1.34940895
H        1.05477038      -1.03093082       1.65038666
H        2.35538028      -0.95705871       0.30178063
H       -0.02788612      -2.40011775      -0.99571494
19
Frame=13 idx=009711 GeodesicLength=1.3829568232530407 rxn_smarts="[C:1]([C@@:2]1([H:11])[C@@:3]2([H:12])[C:4]([H:13])([H:14])[C:5]([H:15])([H:16])[C:6]([H:17])([H:18])[C@@:7]12[H:19])([H:8])([H:9])[H:10]>>[C:1]([C:2]1([H:11])[C:3]([H:12])=[C:7]1[H:19])([H:8])([H:9])[H:10].[C:4](=[C:5]([C:6]([H:15])([H:17])[H:18])[H:16])([H:13])[H:14]"
C       -2.01915356      -0.05379582       0.70249159
C       -1.46201821      -0.65143058      -0.56706429
C       -0.25007159      -0.17074284      -1.30613959
C        1.07927042       1.36750987      -0.73109342
C        1.25220094       0.95701187       0.62641540
C        1.53500056      -0.49924175       0.81667587
C       -0.15915005      -1.39374449      -0.62327658
H       -2.51097199       0.90515763       0.51913298
H       -2.75921003      -0.72570151       1.14492067
H       -1.26450921       0.09964388       1.47229044
H       -2.25633240      -1.01101036      -1.22157367
H       -0.11156347       0.01421092      -2.36071695
H        1.99282726       1.33774339      -1.32685051
H        0.61822637       2.34641396      -0.86243852
H        2.36041227       0.47681034       1.42343620
H        0.56496599       1.40682712       1.33853764
H        1.04582348      -1.04161210       1.62098545
H        2.38191224      -0.95418960       0.30894986
H       -0.03765902      -2.40985993      -0.97468254
19
Frame=14 idx=009711 GeodesicLength=1.48918418409517 rxn_smarts="[C:1]([C@@:2]1([H:11])[C@@:3]2([H:12])[C:4]([H:13])([H:14])[C:5]([H:15])([H:16])[C:6]([H:17])([H:18])[C@@:7]12[H:19])([H:8])([H:9])[H:10]>>[C:1]([C:2]1([H:11])[C:3]([H:12])=[C:7]1[H:19])([H:8])([H:9])[H:10].[C:4](=[C:5]([C:6]([H:15])([H:17])[H:18])[H:16])([H:13])[H:14]"
C       -2.03166012      -0.05581610       0.70249933
C       -1.47452461      -0.65921986      -0.56349937
C       -0.26512587      -0.18174116      -1.30772987
C        1.10300678       1.38659836      -0.73115156
C        1.26937148       0.95953130       0.62196680
C        1.53685163      -0.50694125       0.79404784
C       -0.16819023      -1.39804783      -0.61804006
H       -2.53087498       0.89776750       0.51199101
H       -2.76496210      -0.72846347       1.15513156
H       -1.27590823       0.11107250       1.46837777
H       -2.26769750      -1.02687064      -1.21466753
H       -0.11088155       0.01068989      -2.35815162
H        2.01994827       1.37272357      -1.32211763
H        0.63582499       2.36387528      -0.85362999
H        2.35997865       0.47907750       1.43336129
H        0.56682368       1.39852901       1.32668591
H        1.03767904      -1.05166566       1.59104046
H        2.40803201      -0.95148870       0.31740546
H       -0.04769133      -2.41961025      -0.95351978
19
Frame=15 idx=009711 GeodesicLength=1.5953922793203004 rxn_smarts="[C:1]([C@@:2]1([H:11])[C@@:3]2([H:12])[C:4]([H:13])([H:14])[C:5]([H:15])([H:16])[C:6]([H:17])([H:18])[C@@:7]12[H:19])([H:8])([H:9])[H:10]>>[C:1]([C:2]1([H:11])[C:3]([H:12])=[C:7]1[H:19])([H:8])([H:9])[H:10].[C:4](=[C:5]([C:6]([H:15])([H:17])[H:18])[H:16])([H:13])[H:14]"
C       -2.04431517      -0.05808836       0.70266203
C       -1.48752349      -0.66737939      -0.55983876
C       -0.28097955      -0.19316115      -1.30964736
C        1.12789086       1.40612741      -0.73130914
C        1.28638638       0.96183214       0.61711500
C        1.53886029      -0.51452909       0.77018396
C       -0.17764569      -1.40254264      -0.61300179
H       -2.55097846       0.88998341       0.50514020
H       -2.77071318      -0.73125586       1.16573594
H       -1.28736259       0.12220240       1.46428092
H       -2.27967052      -1.04323078      -1.20732692
H       -0.11043213       0.00754098      -2.35535686
H        2.04877816       1.40883523      -1.31613142
H        0.65432606       2.38152957      -0.84500970
H        2.35886685       0.48145120       1.44326418
H        0.56848902       1.39010329       1.31376089
H        1.03034664      -1.06109960       1.56048521
H        2.43365062      -0.94895272       0.32720214
H       -0.05797410      -2.42936604      -0.93220853
19
Frame=16 idx=009711 GeodesicLength=1.7015828104882946 rxn_smarts="[C:1]([C@@:2]1([H:11])[C@@:3]2([H:12])[C:4]([H:13])([H:14])[C:5]([H:15])([H:16])[C:6]([H:17])([H:18])[C@@:7]12[H:19])([H:8])([H:9])[H:10]>>[C:1]([C:2]1([H:11])[C:3]([H:12])=[C:7]1[H:19])([H:8])([H:9])[H:10].[C:4](=[C:5]([C:6]([H:15])([H:17])[H:18])[H:16])([H:13])[H:14]"
C       -2.05711633      -0.06062548       0.70300014
C       -1.50102737      -0.67593676      -0.55606043
C       -0.29768134      -0.20503332      -1.31191812
C        1.15401644       1.42612321      -0.73157309
C        1.30325157       0.96391764       0.61180876
C        1.54105918      -0.52199376       0.74497509
C       -0.18751670      -1.40723142      -0.60816639
H       -2.57129835       0.88178413       0.49860522
H       -2.77643568      -0.73409037       1.17677237
H       -1.29885356       0.13303732       1.46000001
H       -2.29226957      -1.06014797      -1.19949509
H       -0.11025047       0.00480840      -2.35229168
H        2.07943777       1.44614840      -1.30874388
H        0.67378112       2.39937315      -0.83663522
H        2.35698153       0.48392359       1.45315617
H        0.56993614       1.38155999       1.29965102
H        1.02383038      -1.06991239       1.52924397
H        2.45864935      -0.94658236       0.33840286
H       -0.06849412      -2.43912201      -0.91073170
