11
Frame=0 idx=004396 GeodesicLength=0.0 rxn_smarts="[O:1]=[C:2]1[N:3]([H:7])[C:4]([H:8])([H:9])[C:5]([H:10])=[C:6]1[H:11]>>[O:1]([C:2]1=[C:6]=[C:5]([H:10])[C:4]([H:8])([H:9])[N:3]1[H:7])[H:11]"
O        2.33472684      -0.47377880       0.10701938
C        1.07996364      -0.29348828       0.04294885
N        0.03147159      -1.08372807      -0.10614534
C       -1.16303069      -0.24098084      -0.10189072
C       -0.57259580       1.14734977       0.07882587
C        0.76592960       1.10742491       0.16402142
H        0.03943271      -2.08270687      -0.20778961
H       -1.83512366      -0.52071898       0.71556271
H       -1.71332001      -0.34092063      -1.04285883
H       -1.22590638       2.01082871       0.12205915
H        2.25845218       0.77071913       0.22824717
11
Frame=1 idx=004396 GeodesicLength=0.03845960808096459 rxn_smarts="[O:1]=[C:2]1[N:3]([H:7])[C:4]([H:8])([H:9])[C:5]([H:10])=[C:6]1[H:11]>>[O:1]([C:2]1=[C:6]=[C:5]([H:10])[C:4]([H:8])([H:9])[N:3]1[H:7])[H:11]"
O        2.33529549      -0.47469694       0.09256502
C        1.07863772      -0.29992212       0.06860078
N        0.02878613      -1.08478656      -0.10450040
C       -1.16373394      -0.24131496      -0.10404594
C       -0.57209032       1.14509918       0.08058165
C        0.76576957       1.10491605       0.17380190
H        0.03939041      -2.08374970      -0.20538301
H       -1.84110164      -0.52004196       0.70943276
H       -1.70958810      -0.33861532      -1.04790609
H       -1.22326794       2.01026027       0.12185424
H        2.26190262       0.78285206       0.21499911
11
Frame=2 idx=004396 GeodesicLength=0.0768725239199013 rxn_smarts="[O:1]=[C:2]1[N:3]([H:7])[C:4]([H:8])([H:9])[C:5]([H:10])=[C:6]1[H:11]>>[O:1]([C:2]1=[C:6]=[C:5]([H:10])[C:4]([H:8])([H:9])[N:3]1[H:7])[H:11]"
O        2.33492477      -0.47636363       0.08326702
C        1.07776073      -0.30568306       0.08804538
N        0.02646530      -1.08549528      -0.10487548
C       -1.16437212      -0.24172243      -0.10550505
C       -0.57144514       1.14299191       0.08108283
C        0.76589639       1.10276980       0.17974396
H        0.03953725      -2.08449065      -0.20454062
H       -1.84481051      -0.51937950       0.70581665
H       -1.70815379      -0.33685151      -1.05081721
H       -1.22058813       2.00968907       0.12165072
H        2.26478524       0.79453529       0.20613180
11
Frame=3 idx=004396 GeodesicLength=0.11530690749921496 rxn_smarts="[O:1]=[C:2]1[N:3]([H:7])[C:4]([H:8])([H:9])[C:5]([H:10])=[C:6]1[H:11]>>[O:1]([C:2]1=[C:6]=[C:5]([H:10])[C:4]([H:8])([H:9])[N:3]1[H:7])[H:11]"
O        2.33422735      -0.47858670       0.07790046
C        1.07710774      -0.31101742       0.10330947
N        0.02431846      -1.08600651      -0.10659792
C       -1.16502349      -0.24217818      -0.10652275
C       -0.57073309       1.14096676       0.08080457
C        0.76620390       1.10084042       0.18321202
H        0.03976523      -2.08505656      -0.20480262
H       -1.84710940      -0.51874625       0.70382841
H       -1.70829287      -0.33539643      -1.05235402
H       -1.21790593       2.00910240       0.12155269
H        2.26744211       0.80607847       0.19966970
11
Frame=4 idx=004396 GeodesicLength=0.15373847927599255 rxn_smarts="[O:1]=[C:2]1[N:3]([H:7])[C:4]([H:8])([H:9])[C:5]([H:10])=[C:6]1[H:11]>>[O:1]([C:2]1=[C:6]=[C:5]([H:10])[C:4]([H:8])([H:9])[N:3]1[H:7])[H:11]"
O        2.33338725      -0.48115698       0.07476226
C        1.07655828      -0.31613322       0.11620903
N        0.02226257      -1.08641928      -0.10896892
C       -1.16568359      -0.24265815      -0.10732869
C       -0.56997859       1.13897752       0.08014720
C        0.76660398       1.09898585       0.18557886
H        0.04001444      -2.08553269      -0.20558702
H       -1.84871472      -0.51813149       0.70264074
H       -1.70921250      -0.33408558      -1.05321961
H       -1.21521309       2.00849979       0.12154888
H        2.26997597       0.81765422       0.19421726
11
Frame=5 idx=004396 GeodesicLength=0.19221153666623655 rxn_smarts="[O:1]=[C:2]1[N:3]([H:7])[C:4]([H:8])([H:9])[C:5]([H:10])=[C:6]1[H:11]>>[O:1]([C:2]1=[C:6]=[C:5]([H:10])[C:4]([H:8])([H:9])[N:3]1[H:7])[H:11]"
O        2.33248175      -0.48390027       0.07237072
C        1.07607853      -0.32111721       0.12741735
N        0.02024921      -1.08678720      -0.11168263
C       -1.16635647      -0.24316037      -0.10798035
C       -0.56917886       1.13701118       0.07915191
C        0.76707699       1.09715634       0.18719177
H        0.04023439      -2.08597773      -0.20654389
H       -1.84986921      -0.51746710       0.70202147
H       -1.71065975      -0.33293919      -1.05361891
H       -1.21248571       2.00789152       0.12145989
H        2.27242913       0.82929002       0.19021267
11
Frame=6 idx=004396 GeodesicLength=0.23063796690690852 rxn_smarts="[O:1]=[C:2]1[N:3]([H:7])[C:4]([H:8])([H:9])[C:5]([H:10])=[C:6]1[H:11]>>[O:1]([C:2]1=[C:6]=[C:5]([H:10])[C:4]([H:8])([H:9])[N:3]1[H:7])[H:11]"
O        2.33153153      -0.48681619       0.07075570
C        1.07563245      -0.32603126       0.13748898
N        0.01826813      -1.08712830      -0.11459380
C       -1.16703193      -0.24367558      -0.10853303
C       -0.56834416       1.13505121       0.07799516
C        0.76760108       1.09532313       0.18842103
H        0.04043548      -2.08639243      -0.20768223
H       -1.85074597      -0.51678520       0.70174428
H       -1.71241558      -0.33186773      -1.05373148
H       -1.20972553       2.00727542       0.12133610
H        2.27479450       0.84104693       0.18679929
11
Frame=7 idx=004396 GeodesicLength=0.2690841989798823 rxn_smarts="[O:1]=[C:2]1[N:3]([H:7])[C:4]([H:8])([H:9])[C:5]([H:10])=[C:6]1[H:11]>>[O:1]([C:2]1=[C:6]=[C:5]([H:10])[C:4]([H:8])([H:9])[N:3]1[H:7])[H:11]"
O        2.33054742      -0.48986139       0.06944980
C        1.07520927      -0.33091816       0.14673785
N        0.01630191      -1.08746536      -0.11755788
C       -1.16770755      -0.24420141      -0.10902046
C       -0.56747525       1.13308557       0.07675255
C        0.76816004       1.09345773       0.18951782
H        0.04060012      -2.08679914      -0.20886982
H       -1.85147420      -0.51607897       0.70166732
H       -1.71433276      -0.33084818      -1.05367682
H       -1.20692063       2.00665521       0.12111964
H        2.27709163       0.85297410       0.18388000
11
Frame=8 idx=004396 GeodesicLength=0.30760240765895763 rxn_smarts="[O:1]=[C:2]1[N:3]([H:7])[C:4]([H:8])([H:9])[C:5]([H:10])=[C:6]1[H:11]>>[O:1]([C:2]1=[C:6]=[C:5]([H:10])[C:4]([H:8])([H:9])[N:3]1[H:7])[H:11]"
O        2.32955186      -0.49302561       0.06817063
C        1.07479841      -0.33579841       0.15539144
N        0.01434202      -1.08781353      -0.12049053
C       -1.16838284      -0.24473531      -0.10946599
C       -0.56657388       1.13111338       0.07545001
C        0.76875078       1.09154206       0.19058650
H        0.04071804      -2.08721315      -0.21003454
H       -1.85213191      -0.51533695       0.70170693
H       -1.71632813      -0.32987345      -1.05353139
H       -1.20407152       2.00603252       0.12080998
H        2.27932716       0.86510846       0.18140696
11
Frame=9 idx=004396 GeodesicLength=0.3459396444579332 rxn_smarts="[O:1]=[C:2]1[N:3]([H:7])[C:4]([H:8])([H:9])[C:5]([H:10])=[C:6]1[H:11]>>[O:1]([C:2]1=[C:6]=[C:5]([H:10])[C:4]([H:8])([H:9])[N:3]1[H:7])[H:11]"
O        2.32846287      -0.49640552       0.06837312
C        1.07435073      -0.34071984       0.16402700
N        0.01241659      -1.08814551      -0.12339776
C       -1.16902329      -0.24525780      -0.10997352
C       -0.56564349       1.12911107       0.07442544
C        0.76934783       1.08956489       0.19201214
H        0.04084664      -2.08758394      -0.21142555
H       -1.85287703      -0.51471360       0.70153424
H       -1.71813723      -0.32872063      -1.05353903
H       -1.20119279       2.00536639       0.12084792
H        2.28144916       0.87750452       0.17711600
11
Frame=10 idx=004396 GeodesicLength=0.3843652714356645 rxn_smarts="[O:1]=[C:2]1[N:3]([H:7])[C:4]([H:8])([H:9])[C:5]([H:10])=[C:6]1[H:11]>>[O:1]([C:2]1=[C:6]=[C:5]([H:10])[C:4]([H:8])([H:9])[N:3]1[H:7])[H:11]"
O        2.32738953      -0.49983792       0.06795614
C        1.07393533      -0.34564382       0.17192968
N        0.01047599      -1.08850751      -0.12627415
C       -1.16967349      -0.24579634      -0.11039407
C       -0.56467038       1.12710529       0.07319528
C        0.76999098       1.08754840       0.19322166
H        0.04090253      -2.08798784      -0.21271151
H       -1.85348081      -0.51397939       0.70161453
H       -1.72012850      -0.32770272      -1.05334624
H       -1.19824984       2.00471098       0.12059589
H        2.28350866       0.89009087       0.17421278
11
Frame=11 idx=004396 GeodesicLength=0.4227855920554417 rxn_smarts="[O:1]=[C:2]1[N:3]([H:7])[C:4]([H:8])([H:9])[C:5]([H:10])=[C:6]1[H:11]>>[O:1]([C:2]1=[C:6]=[C:5]([H:10])[C:4]([H:8])([H:9])[N:3]1[H:7])[H:11]"
O        2.32630069      -0.50338556       0.06767502
C        1.07351993      -0.35060431       0.17953016
N        0.00853542      -1.08888977      -0.12908986
C       -1.17031638      -0.24633963      -0.11079178
C       -0.56365855       1.12508300       0.07197810
C        0.77066263       1.08547261       0.19452661
H        0.04091739      -2.08839996      -0.21404309
H       -1.85407284      -0.51322391       0.70173034
H       -1.72212201      -0.32668768      -1.05312169
H       -1.19524960       2.00404982       0.12028170
H        2.28548333       0.90292537       0.17132448
11
Frame=12 idx=004396 GeodesicLength=0.4612148256038721 rxn_smarts="[O:1]=[C:2]1[N:3]([H:7])[C:4]([H:8])([H:9])[C:5]([H:10])=[C:6]1[H:11]>>[O:1]([C:2]1=[C:6]=[C:5]([H:10])[C:4]([H:8])([H:9])[N:3]1[H:7])[H:11]"
O        2.32518372      -0.50706189       0.06762730
C        1.07310115      -0.35561827       0.18692791
N        0.00659569      -1.08929405      -0.13183078
C       -1.17094858      -0.24688468      -0.11117411
C       -0.56260371       1.12304124       0.07079578
C        0.77136169       1.08332852       0.19599187
H        0.04089983      -2.08881682      -0.21546696
H       -1.85467166      -0.51245158       0.70185285
H       -1.72408721      -0.32565948      -1.05289051
H       -1.19218590       2.00338204       0.11993174
H        2.28735497       0.91603498       0.16823491
11
Frame=13 idx=004396 GeodesicLength=0.499649340484932 rxn_smarts="[O:1]=[C:2]1[N:3]([H:7])[C:4]([H:8])([H:9])[C:5]([H:10])=[C:6]1[H:11]>>[O:1]([C:2]1=[C:6]=[C:5]([H:10])[C:4]([H:8])([H:9])[N:3]1[H:7])[H:11]"
O        2.32404089      -0.51089242       0.06795847
C        1.07266826      -0.36067974       0.19412315
N        0.00465641      -1.08971385      -0.13453132
C       -1.17156421      -0.24743123      -0.11154770
C       -0.56150602       1.12097892       0.06966727
C        0.77208646       1.08112617       0.19755967
H        0.04084647      -2.08923454      -0.21699070
H       -1.85526122      -0.51168250       0.70196809
H       -1.72601970      -0.32459953      -1.05265093
H       -1.18905750       2.00270145       0.11960482
H        2.28911017       0.92942727       0.16483918
11
Frame=14 idx=004396 GeodesicLength=0.5380874451218053 rxn_smarts="[O:1]=[C:2]1[N:3]([H:7])[C:4]([H:8])([H:9])[C:5]([H:10])=[C:6]1[H:11]>>[O:1]([C:2]1=[C:6]=[C:5]([H:10])[C:4]([H:8])([H:9])[N:3]1[H:7])[H:11]"
O        2.32288348      -0.51486400       0.06849912
C        1.07222518      -0.36580133       0.20119647
N        0.00271922      -1.09015757      -0.13714945
C       -1.17216752      -0.24797592      -0.11192703
C       -0.56036600       1.11889639       0.06859034
C        0.77284779       1.07885735       0.19926190
H        0.04075798      -2.08966412      -0.21855453
H       -1.85588665      -0.51090208       0.70204317
H       -1.72789056      -0.32350871      -1.05244835
H       -1.18586874       2.00200831       0.11931551
H        2.29074581       0.94311169       0.16117287
11
Frame=15 idx=004396 GeodesicLength=0.5765282491976489 rxn_smarts="[O:1]=[C:2]1[N:3]([H:7])[C:4]([H:8])([H:9])[C:5]([H:10])=[C:6]1[H:11]>>[O:1]([C:2]1=[C:6]=[C:5]([H:10])[C:4]([H:8])([H:9])[N:3]1[H:7])[H:11]"
O        2.32171034      -0.51900140       0.06943909
C        1.07175940      -0.37098177       0.20814938
N        0.00078456      -1.09061812      -0.13973018
C       -1.17275553      -0.24851973      -0.11230238
C       -0.55918305       1.11679266       0.06757941
C        0.77364564       1.07652858       0.20101469
H        0.04063994      -2.09009587      -0.22023508
H       -1.85651339      -0.51012684       0.70210041
H       -1.72972113      -0.32237400      -1.05225181
H       -1.18261592       2.00130167       0.11908491
H        2.29224914       0.95709481       0.15715157
11
Frame=16 idx=004396 GeodesicLength=0.614971490047368 rxn_smarts="[O:1]=[C:2]1[N:3]([H:7])[C:4]([H:8])([H:9])[C:5]([H:10])=[C:6]1[H:11]>>[O:1]([C:2]1=[C:6]=[C:5]([H:10])[C:4]([H:8])([H:9])[N:3]1[H:7])[H:11]"
O        2.32052791      -0.52328189       0.07054306
C        1.07128266      -0.37622165       0.21492449
N       -0.00115573      -1.09110279      -0.14228475
C       -1.17333699      -0.24906670      -0.11265572
C       -0.55795198       1.11466992       0.06656425
C        0.77449455       1.07414274       0.20270420
H        0.04047990      -2.09054123      -0.22199988
H       -1.85711292      -0.50932763       0.70220537
H       -1.73157088      -0.32123723      -1.05201487
H       -1.17929189       2.00058519       0.11884674
H        2.29363537       0.97138127       0.15316710
