14
Frame=0 idx=007894 GeodesicLength=0.0 rxn_smarts="[C:1](/[C:2](=[N:3]\[O:4][H:11])[C@@:5]1([H:12])[C:6]([H:13])([H:14])[O:7]1)([H:8])([H:9])[H:10]>>[C:1]([C-:2]([N:3]([O:4][H:11])[H:13])[C@@:5]1([H:12])[C:6]([H:14])=[O+:7]1)([H:8])([H:9])[H:10]"
C       -1.13015359      -1.14656795      -0.00086630
C       -0.18746384      -0.04510218      -0.30793209
N       -0.26870977       1.21801656       0.08859537
O       -1.34336179       1.49058977       0.93036335
C        1.08413878      -0.10149803      -1.02766261
C        1.75817587       0.00791654       0.30252397
O        2.13635729      -0.96589410      -0.67255755
H       -1.90824974      -1.16973462      -0.76825210
H       -0.59905372      -2.09802352      -0.03741280
H       -1.60952163      -1.01179842       0.96643578
H       -1.56569566       2.40409191       0.73653668
H        1.31425782       0.65180389      -1.77052282
H        1.04766235       1.28399122       0.42155177
H        1.27161760      -0.51779112       1.13919939
14
Frame=1 idx=007894 GeodesicLength=0.0755031347505342 rxn_smarts="[C:1](/[C:2](=[N:3]\[O:4][H:11])[C@@:5]1([H:12])[C:6]([H:13])([H:14])[O:7]1)([H:8])([H:9])[H:10]>>[C:1]([C-:2]([N:3]([O:4][H:11])[H:13])[C@@:5]1([H:12])[C:6]([H:14])=[O+:7]1)([H:8])([H:9])[H:10]"
C       -1.13009856      -1.14267192      -0.00556209
C       -0.19135152      -0.03766635      -0.31289997
N       -0.27430273       1.22249294       0.09165785
O       -1.35438030       1.48570763       0.92898193
C        1.08508705      -0.10444370      -1.02099345
C        1.77372104       0.00623786       0.30198985
O        2.12249213      -0.98545693      -0.66625877
H       -1.92190777      -1.15076979      -0.75909357
H       -0.59967518      -2.09338082      -0.06092708
H       -1.59454207      -1.02145323       0.97093160
H       -1.58746258       2.39585838       0.73204870
H        1.31874331       0.63719698      -1.77456334
H        1.05984136       1.29694899       0.42540795
H        1.29383583      -0.50860004       1.14928039
14
Frame=2 idx=007894 GeodesicLength=0.151005608997067 rxn_smarts="[C:1](/[C:2](=[N:3]\[O:4][H:11])[C@@:5]1([H:12])[C:6]([H:13])([H:14])[O:7]1)([H:8])([H:9])[H:10]>>[C:1]([C-:2]([N:3]([O:4][H:11])[H:13])[C@@:5]1([H:12])[C:6]([H:14])=[O+:7]1)([H:8])([H:9])[H:10]"
C       -1.13016776      -1.13867604      -0.01047489
C       -0.19537669      -0.03012841      -0.31815701
N       -0.28011619       1.22693252       0.09469721
O       -1.36537736       1.48069277       0.92775142
C        1.08599945      -0.10738053      -1.01412710
C        1.78946353       0.00443312       0.30133263
O        2.10832645      -1.00468810      -0.65944242
H       -1.93530985      -1.13216522      -0.74975083
H       -0.60066056      -2.08842507      -0.08434182
H       -1.57965912      -1.03098381       0.97472502
H       -1.60908218       2.38741394       0.72787940
H        1.32306427       0.62211081      -1.77860032
H        1.07222899       1.31010824       0.42919392
H        1.31666701      -0.49924422       1.15931477
14
Frame=3 idx=007894 GeodesicLength=0.22651341377038234 rxn_smarts="[C:1](/[C:2](=[N:3]\[O:4][H:11])[C@@:5]1([H:12])[C:6]([H:13])([H:14])[O:7]1)([H:8])([H:9])[H:10]>>[C:1]([C-:2]([N:3]([O:4][H:11])[H:13])[C@@:5]1([H:12])[C:6]([H:14])=[O+:7]1)([H:8])([H:9])[H:10]"
C       -1.13036529      -1.13457984      -0.01561116
C       -0.19954364      -0.02248662      -0.32370997
N       -0.28616290       1.23133296       0.09770039
O       -1.37635995       1.47554124       0.92667009
C        1.08687212      -0.11031070      -1.00704516
C        1.80540808       0.00250653       0.30055388
O        2.09385555      -1.02358149      -0.65208298
H       -1.94846459      -1.11391460      -0.74025258
H       -0.60200416      -2.08316733      -0.10767625
H       -1.56487483      -1.04039305       0.97782511
H       -1.63055071       2.37877078       0.72405124
H        1.32721451       0.60651179      -1.78262385
H        1.08483151       1.32348364       0.43290384
H        1.34014431      -0.48971330       1.16929739
14
Frame=4 idx=007894 GeodesicLength=0.3020350489860218 rxn_smarts="[C:1](/[C:2](=[N:3]\[O:4][H:11])[C@@:5]1([H:12])[C:6]([H:13])([H:14])[O:7]1)([H:8])([H:9])[H:10]>>[C:1]([C-:2]([N:3]([O:4][H:11])[H:13])[C@@:5]1([H:12])[C:6]([H:14])=[O+:7]1)([H:8])([H:9])[H:10]"
C       -1.13069669      -1.13037707      -0.02097860
C       -0.20385324      -0.01473681      -0.32956273
N       -0.29245148       1.23569404       0.10065793
O       -1.38732584       1.47024989       0.92574643
C        1.08770233      -0.11323280      -0.99972888
C        1.82156472       0.00046088       0.29965049
O        2.07907168      -1.04213172      -0.64414685
H       -1.96138223      -1.09600287      -0.73062322
H       -0.60370705      -2.07760970      -0.13095819
H       -1.55018720      -1.04968544       0.98023505
H       -1.65188393       2.36992023       0.72057432
H        1.33118000       0.59035361      -1.78661758
H        1.09766388       1.33709240       0.43652969
H        1.36430505      -0.47999463       1.17922213
14
Frame=5 idx=007894 GeodesicLength=0.3775749476262458 rxn_smarts="[C:1](/[C:2](=[N:3]\[O:4][H:11])[C@@:5]1([H:12])[C:6]([H:13])([H:14])[O:7]1)([H:8])([H:9])[H:10]>>[C:1]([C-:2]([N:3]([O:4][H:11])[H:13])[C@@:5]1([H:12])[C:6]([H:14])=[O+:7]1)([H:8])([H:9])[H:10]"
C       -1.13116672      -1.12606584      -0.02658420
C       -0.20830827      -0.00687604      -0.33571900
N       -0.29899279       1.24001413       0.10356011
O       -1.39828177       1.46481459       0.92497983
C        1.08848242      -0.11614476      -0.99215981
C        1.83794139      -0.00170167       0.29862124
O        2.06396899      -1.06032900      -0.63560476
H       -1.97406664      -1.07842860      -0.72089373
H       -0.60576307      -2.07175886      -0.15420357
H       -1.53560543      -1.05886224       0.98195386
H       -1.67308025       2.36087388       0.71747031
H        1.33494618       0.57359505      -1.79056783
H        1.11073604       1.35094896       0.44006993
H        1.38918990      -0.47007959       1.18907762
14
Frame=6 idx=007894 GeodesicLength=0.4531414678257421 rxn_smarts="[C:1](/[C:2](=[N:3]\[O:4][H:11])[C@@:5]1([H:12])[C:6]([H:13])([H:14])[O:7]1)([H:8])([H:9])[H:10]>>[C:1]([C-:2]([N:3]([O:4][H:11])[H:13])[C@@:5]1([H:12])[C:6]([H:14])=[O+:7]1)([H:8])([H:9])[H:10]"
C       -1.13178195      -1.12164098      -0.03243528
C       -0.21290985       0.00109948      -0.34217931
N       -0.30579471       1.24429279       0.10640040
O       -1.40922481       1.45923151       0.92438074
C        1.08920586      -0.11904372      -0.98431818
C        1.85455140      -0.00398249       0.29745572
O        2.04854298      -1.07816568      -0.62641498
H       -1.98652852      -1.06117580      -0.71108786
H       -0.60817424      -2.06561337      -0.17743944
H       -1.52113788      -1.06792614       0.98298186
H       -1.69416258       2.35162019       0.71474338
H        1.33849959       0.55619341      -1.79445319
H        1.12406645       1.36506807       0.44351839
H        1.41484827      -0.45995727       1.19884775
14
Frame=7 idx=007894 GeodesicLength=0.5287363288850653 rxn_smarts="[C:1](/[C:2](=[N:3]\[O:4][H:11])[C@@:5]1([H:12])[C:6]([H:13])([H:14])[O:7]1)([H:8])([H:9])[H:10]>>[C:1]([C-:2]([N:3]([O:4][H:11])[H:13])[C@@:5]1([H:12])[C:6]([H:14])=[O+:7]1)([H:8])([H:9])[H:10]"
C       -1.13254937      -1.11709853      -0.03854038
C       -0.21766004       0.00919289      -0.34894282
N       -0.31286658       1.24852926       0.10917234
O       -1.42015886       1.45349577       0.92395416
C        1.08986117      -0.12192479      -0.97618541
C        1.87140500      -0.00638361       0.29614286
O        2.03278990      -1.09563017      -0.61653564
H       -1.99877317      -1.04423697      -0.70123766
H       -0.61093685      -2.05917750      -0.20068598
H       -1.50679617      -1.07688043       0.98331603
H       -1.71513904       2.34216167       0.71240849
H        1.34182341       0.53810428      -1.79825081
H        1.13767261       1.37946331       0.44687042
H        1.44132800      -0.44961519       1.20851440
14
Frame=8 idx=007894 GeodesicLength=0.6043707164168614 rxn_smarts="[C:1](/[C:2](=[N:3]\[O:4][H:11])[C@@:5]1([H:12])[C:6]([H:13])([H:14])[O:7]1)([H:8])([H:9])[H:10]>>[C:1]([C-:2]([N:3]([O:4][H:11])[H:13])[C@@:5]1([H:12])[C:6]([H:14])=[O+:7]1)([H:8])([H:9])[H:10]"
C       -1.13347658      -1.11242998      -0.04490575
C       -0.22255660       0.01741001      -0.35600228
N       -0.32021525       1.25272625       0.11187283
O       -1.43107910       1.44760442       0.92371260
C        1.09044144      -0.12478369      -0.96773836
C        1.88851940      -0.00891093       0.29467023
O        2.01670032      -1.11270757      -0.60592112
H       -2.01080766      -1.02759406      -0.69137068
H       -0.61405149      -2.05244379      -0.22396546
H       -1.49259676      -1.08572447       0.98295128
H       -1.73604578       2.33247636       0.71045815
H        1.34489506       0.51928276      -1.80193574
H        1.15158175       1.39414582       0.45012521
H        1.46869125      -0.43905113       1.21804910
14
Frame=9 idx=007894 GeodesicLength=0.6800730309617538 rxn_smarts="[C:1](/[C:2](=[N:3]\[O:4][H:11])[C@@:5]1([H:12])[C:6]([H:13])([H:14])[O:7]1)([H:8])([H:9])[H:10]>>[C:1]([C-:2]([N:3]([O:4][H:11])[H:13])[C@@:5]1([H:12])[C:6]([H:14])=[O+:7]1)([H:8])([H:9])[H:10]"
C       -1.13457294      -1.10764856      -0.05155275
C       -0.22761003       0.02575009      -0.36336062
N       -0.32786869       1.25687844       0.11448223
O       -1.44199814       1.44153992       0.92366112
C        1.09091832      -0.12759813      -0.95894899
C        1.90590362      -0.01157788       0.29301795
O        2.00027189      -1.12941629      -0.59452751
H       -2.02263714      -1.01125720      -0.68153716
H       -0.61749915      -2.04543394      -0.24729579
H       -1.47858183      -1.09445773       0.98188192
H       -1.75685890       2.32259164       0.70896271
H        1.34772940       0.49968173      -1.80547202
H        1.16581617       1.40914193       0.45325703
H        1.49698742      -0.42819401       1.22743188
14
Frame=10 idx=007894 GeodesicLength=0.7558197118315759 rxn_smarts="[C:1](/[C:2](=[N:3]\[O:4][H:11])[C@@:5]1([H:12])[C:6]([H:13])([H:14])[O:7]1)([H:8])([H:9])[H:10]>>[C:1]([C-:2]([N:3]([O:4][H:11])[H:13])[C@@:5]1([H:12])[C:6]([H:14])=[O+:7]1)([H:8])([H:9])[H:10]"
C       -1.13584394      -1.10273106      -0.05847938
C       -0.23280506       0.03422239      -0.37099803
N       -0.33581440       1.26099361       0.11701674
O       -1.45290611       1.43530825       0.92381251
C        1.09129955      -0.13037140      -0.94979759
C        1.92357991      -0.01438401       0.29117313
O        1.98348245      -1.14570917      -0.58230864
H       -2.03426105      -0.99519125      -0.67176168
H       -0.62128610      -2.03811856      -0.27069354
H       -1.46475444      -1.10308365       0.98009904
H       -1.77764589       2.31245849       0.70786017
H        1.35026176       0.47924870      -1.80883317
H        1.18040484       1.42445183       0.45628628
H        1.52628849      -0.41709418       1.23662415
14
Frame=11 idx=007894 GeodesicLength=0.831609730777085 rxn_smarts="[C:1](/[C:2](=[N:3]\[O:4][H:11])[C@@:5]1([H:12])[C:6]([H:13])([H:14])[O:7]1)([H:8])([H:9])[H:10]>>[C:1]([C-:2]([N:3]([O:4][H:11])[H:13])[C@@:5]1([H:12])[C:6]([H:14])=[O+:7]1)([H:8])([H:9])[H:10]"
C       -1.13729535      -1.09767473      -0.06569435
C       -0.23813693       0.04282910      -0.37890058
N       -0.34406088       1.26507136       0.11947451
O       -1.46380858       1.42890288       0.92417150
C        1.09157268      -0.13309175      -0.94025883
C        1.94156554      -0.01733363       0.28912005
O        1.96631530      -1.16157485      -0.56923034
H       -2.04567602      -0.97938189      -0.66209197
H       -0.62540086      -2.03049411      -0.29416912
H       -1.45114325      -1.11160354       0.97759476
H       -1.79842187       2.30206774       0.70715692
H        1.35246269       0.45793168      -1.81198448
H        1.19537054       1.44008980       0.45921631
H        1.55665699      -0.40573806       1.24559561
14
Frame=12 idx=007894 GeodesicLength=0.9074459849371019 rxn_smarts="[C:1](/[C:2](=[N:3]\[O:4][H:11])[C@@:5]1([H:12])[C:6]([H:13])([H:14])[O:7]1)([H:8])([H:9])[H:10]>>[C:1]([C-:2]([N:3]([O:4][H:11])[H:13])[C@@:5]1([H:12])[C:6]([H:14])=[O+:7]1)([H:8])([H:9])[H:10]"
C       -1.13893657      -1.09247301      -0.07320752
C       -0.24360044       0.05157425      -0.38705087
N       -0.35261594       1.26911456       0.12185592
O       -1.47470611       1.42231806       0.92474785
C        1.09172598      -0.13574712      -0.93030661
C        1.95987901      -0.02043695       0.28683300
O        1.94875417      -1.17699935      -0.55524153
H       -2.05688323      -0.96381495      -0.65257326
H       -0.62983270      -2.02255167      -0.31773462
H       -1.43778268      -1.12001859       0.97435606
H       -1.81921486       2.29139750       0.70685198
H        1.35430186       0.43568232      -1.81488262
H        1.21074546       1.45606836       0.46204614
H        1.58816606      -0.39411341       1.25430607
14
Frame=13 idx=007894 GeodesicLength=0.983327903991817 rxn_smarts="[C:1](/[C:2](=[N:3]\[O:4][H:11])[C@@:5]1([H:12])[C:6]([H:13])([H:14])[O:7]1)([H:8])([H:9])[H:10]>>[C:1]([C-:2]([N:3]([O:4][H:11])[H:13])[C@@:5]1([H:12])[C:6]([H:14])=[O+:7]1)([H:8])([H:9])[H:10]"
C       -1.14077351      -1.08712364      -0.08102591
C       -0.24919009       0.06046078      -0.39542794
N       -0.36148840       1.27312539       0.12416485
O       -1.48561179       1.41554743       0.92554086
C        1.09174503      -0.13832351      -0.91991391
C        1.97853754      -0.02370856       0.28428722
O        1.93078524      -1.19195873      -0.54030218
H       -2.06787752      -0.94848366      -0.64325880
H       -0.63455895      -2.01428575      -0.34138774
H       -1.42471519      -1.12832729       0.97037564
H       -1.84004307       2.28044571       0.70694286
H        1.35574431       0.41246118      -1.81749326
H        1.22656007       1.47239322       0.46478671
H        1.62088632      -0.38222257       1.26271159
14
Frame=14 idx=007894 GeodesicLength=1.059259587078225 rxn_smarts="[C:1](/[C:2](=[N:3]\[O:4][H:11])[C@@:5]1([H:12])[C:6]([H:13])([H:14])[O:7]1)([H:8])([H:9])[H:10]>>[C:1]([C-:2]([N:3]([O:4][H:11])[H:13])[C@@:5]1([H:12])[C:6]([H:14])=[O+:7]1)([H:8])([H:9])[H:10]"
C       -1.14281510      -1.08161761      -0.08916089
C       -0.25489647       0.06949520      -0.40400529
N       -0.37068622       1.27711065       0.12640701
O       -1.49652841       1.40858618       0.92656105
C        1.09161939      -0.14080142      -0.90905313
C        1.99756154      -0.02716653       0.28144885
O        1.91239063      -1.20642697      -0.52434774
H       -2.07865916      -0.93336655      -0.63420230
H       -0.63956061      -2.00568207      -0.36513682
H       -1.41198502      -1.13652993       0.96563902
H       -1.86094569       2.26917850       0.70741855
H        1.35674581       0.38820805      -1.81976328
H        1.24285494       1.48907294       0.46744310
H        1.65490435      -0.37006044       1.27075187
14
Frame=15 idx=007894 GeodesicLength=1.1352436799983414 rxn_smarts="[C:1](/[C:2](=[N:3]\[O:4][H:11])[C@@:5]1([H:12])[C:6]([H:13])([H:14])[O:7]1)([H:8])([H:9])[H:10]>>[C:1]([C-:2]([N:3]([O:4][H:11])[H:13])[C@@:5]1([H:12])[C:6]([H:14])=[O+:7]1)([H:8])([H:9])[H:10]"
C       -1.14506764      -1.07595008      -0.09762128
C       -0.26070991       0.07868350      -0.41275350
N       -0.38021814       1.28107726       0.12859090
O       -1.50746705       1.40142889       0.92781239
C        1.09133666      -0.14316001      -0.89769539
C        2.01697061      -0.03083285       0.27828191
O        1.89355447      -1.22037068      -0.50731602
H       -2.08922556      -0.91844742      -0.62546161
H       -0.64480980      -1.99672813      -0.38898303
H       -1.39964354      -1.14462451       0.96013573
H       -1.88195774       2.25757419       0.70826571
H        1.35726039       0.36287050      -1.82164480
H        1.25967089       1.50611137       0.47002904
H        1.69030635      -0.35763203       1.27835995
14
Frame=16 idx=007894 GeodesicLength=1.211280088320022 rxn_smarts="[C:1](/[C:2](=[N:3]\[O:4][H:11])[C@@:5]1([H:12])[C:6]([H:13])([H:14])[O:7]1)([H:8])([H:9])[H:10]>>[C:1]([C-:2]([N:3]([O:4][H:11])[H:13])[C@@:5]1([H:12])[C:6]([H:14])=[O+:7]1)([H:8])([H:9])[H:10]"
C       -1.14753806      -1.07011543      -0.10641533
C       -0.26662122       0.08803192      -0.42163781
N       -0.39009405       1.28503264       0.13073007
O       -1.51844854       1.39407266       0.92929069
C        1.09088272      -0.14537377      -0.88581463
C        2.03678191      -0.03474132       0.27474279
O        1.87426364      -1.23374652      -0.48914119
H       -2.09957003      -0.90371811      -0.61710424
H       -0.65026748      -1.98741656      -0.41290872
H       -1.38775145      -1.15260636       0.95385659
H       -1.90311157       2.24562046       0.70946781
H        1.35723847       0.33640932      -1.82308599
H        1.27705114       1.52350307       0.47256619
H        1.72718454      -0.34495202       1.28545376
