15
Frame=0 idx=009216 GeodesicLength=0.0 rxn_smarts="[C:1]([C:2]#[C:3][C:4]([C@@:5]1([H:13])[C:6]([H:14])([H:15])[O:7]1)([H:11])[H:12])([H:8])([H:9])[H:10]>>[C:1](=[C:2]=[C:3]=[C:4]([H:11])[H:12])([H:8])[H:10].[C:5]([C:6]([H:9])([H:14])[H:15])(=[O:7])[H:13]"
C        1.63525404      -0.94580548      -0.95488905
C        1.80428127       0.33073272      -0.43011960
C        1.09002104       1.11943643       0.17259804
C       -0.11474645       1.57790388       0.76099912
C       -1.22529065       0.50328509       0.18522752
C       -0.76901589      -0.96132454       0.10949271
O       -2.21531912       0.38038858       1.02888667
H        2.08413609      -1.79544529      -0.44817407
H        0.25531478      -1.15774078      -0.56229479
H        1.51559480      -1.06789789      -2.02832872
H       -0.45407993       2.56561910       0.45615905
H       -0.13133007       1.48707237       1.84590014
H       -1.44728722       0.89555101      -0.82468305
H       -1.50326064      -1.57807504      -0.40597393
H       -0.52427211      -1.35370023       1.09520002
15
Frame=1 idx=009216 GeodesicLength=0.1301686288499916 rxn_smarts="[C:1]([C:2]#[C:3][C:4]([C@@:5]1([H:13])[C:6]([H:14])([H:15])[O:7]1)([H:11])[H:12])([H:8])([H:9])[H:10]>>[C:1](=[C:2]=[C:3]=[C:4]([H:11])[H:12])([H:8])[H:10].[C:5]([C:6]([H:9])([H:14])[H:15])(=[O:7])[H:13]"
C        1.64459877      -0.94344727      -0.96092396
C        1.80575482       0.32938771      -0.42599745
C        1.09620194       1.12669159       0.17328686
C       -0.10508834       1.58994185       0.76053750
C       -1.23556827       0.50044280       0.17812180
C       -0.79169362      -0.96473137       0.12056896
O       -2.21712159       0.37000734       1.02898891
H        2.09545795      -1.79887420      -0.46605364
H        0.25699973      -1.17730869      -0.56121407
H        1.54817253      -1.05194090      -2.03836841
H       -0.43083269       2.58449992       0.46302109
H       -0.13564454       1.49030656       1.84426439
H       -1.46459050       0.88628065      -0.83206312
H       -1.52373190      -1.58774497      -0.39101906
H       -0.54291429      -1.35351102       1.10685020
15
Frame=2 idx=009216 GeodesicLength=0.2602153160704078 rxn_smarts="[C:1]([C:2]#[C:3][C:4]([C@@:5]1([H:13])[C:6]([H:14])([H:15])[O:7]1)([H:11])[H:12])([H:8])([H:9])[H:10]>>[C:1](=[C:2]=[C:3]=[C:4]([H:11])[H:12])([H:8])[H:10].[C:5]([C:6]([H:9])([H:14])[H:15])(=[O:7])[H:13]"
C        1.65391369      -0.94092489      -0.96754036
C        1.80702735       0.32788227      -0.42190898
C        1.10249051       1.13373600       0.17420981
C       -0.09527004       1.60205708       0.76012889
C       -1.24618869       0.49724103       0.17080577
C       -0.81493656      -0.96827984       0.13219410
O       -2.21954920       0.36043950       1.02862840
H        2.10703461      -1.80201976      -0.48490453
H        0.25903822      -1.19758566      -0.55995537
H        1.58172059      -1.03516166      -2.04844430
H       -0.40661296       2.60357872       0.47042288
H       -0.14031712       1.49353257       1.84240676
H       -1.48193454       0.87625938      -0.83980263
H       -1.54463728      -1.59773562      -0.37534016
H       -0.56177855      -1.35301912       1.11909973
15
Frame=3 idx=009216 GeodesicLength=0.3901719381582641 rxn_smarts="[C:1]([C:2]#[C:3][C:4]([C@@:5]1([H:13])[C:6]([H:14])([H:15])[O:7]1)([H:11])[H:12])([H:8])([H:9])[H:10]>>[C:1](=[C:2]=[C:3]=[C:4]([H:11])[H:12])([H:8])[H:10].[C:5]([C:6]([H:9])([H:14])[H:15])(=[O:7])[H:13]"
C        1.66319520      -0.93823045      -0.97477233
C        1.80807004       0.32621777      -0.41791006
C        1.10887501       1.14057387       0.17532511
C       -0.08527814       1.61425605       0.75977026
C       -1.25716570       0.49365771       0.16326590
C       -0.83878552      -0.97196353       0.14438684
O       -2.22261488       0.35169264       1.02782147
H        2.11884630      -1.80483438      -0.50469852
H        0.26146815      -1.21859974      -0.55854515
H        1.61633789      -1.01756782      -2.05851164
H       -0.38136787       2.62285572       0.47845509
H       -0.14533124       1.49673805       1.84029642
H       -1.49934310       0.86544727      -0.84791633
H       -1.56600748      -1.60803844      -0.35892283
H       -0.58089866      -1.35220474       1.13195577
15
Frame=4 idx=009216 GeodesicLength=0.52006514195291 rxn_smarts="[C:1]([C:2]#[C:3][C:4]([C@@:5]1([H:13])[C:6]([H:14])([H:15])[O:7]1)([H:11])[H:12])([H:8])([H:9])[H:10]>>[C:1](=[C:2]=[C:3]=[C:4]([H:11])[H:12])([H:8])[H:10].[C:5]([C:6]([H:9])([H:14])[H:15])(=[O:7])[H:13]"
C        1.67243918      -0.93535264      -0.98265980
C        1.80885779       0.32439235      -0.41405184
C        1.11534283       1.14720867       0.17658762
C       -0.07509968       1.62654558       0.75945538
C       -1.26851337       0.48966726       0.15548271
C       -0.86328163      -0.97577612       0.15716808
O       -2.22633101       0.34377582       1.02658090
H        2.13087030      -1.80727490      -0.52541647
H        0.26433219      -1.24037932      -0.55701398
H        1.65212815      -0.99915225      -2.06851677
H       -0.35503399       2.64232499       0.48721806
H       -0.15067463       1.49991656       1.83789666
H       -1.51684503       0.85379344      -0.85642211
H       -1.58788000      -1.61864569      -0.34173850
H       -0.60031110      -1.35104374       1.14543008
15
Frame=5 idx=009216 GeodesicLength=0.649925259655866 rxn_smarts="[C:1]([C:2]#[C:3][C:4]([C@@:5]1([H:13])[C:6]([H:14])([H:15])[O:7]1)([H:11])[H:12])([H:8])([H:9])[H:10]>>[C:1](=[C:2]=[C:3]=[C:4]([H:11])[H:12])([H:8])[H:10].[C:5]([C:6]([H:9])([H:14])[H:15])(=[O:7])[H:13]"
C        1.68165128      -0.93227824      -0.99125147
C        1.80934164       0.32242505      -0.41042671
C        1.12187627       1.15364892       0.17793860
C       -0.06471808       1.63893270       0.75918148
C       -1.28025020       0.48524563       0.14744469
C       -0.88847389      -0.97970463       0.17055535
O       -2.23070791       0.33669602       1.02492218
H        2.14307598      -1.80928132      -0.54700328
H        0.26766950      -1.26294797      -0.55541248
H        1.68922418      -0.97995663      -2.07838728
H       -0.32755325       2.66197611       0.49683169
H       -0.15632058       1.50304323       1.83517659
H       -1.53447367       0.84125677      -0.86532614
H       -1.61029641      -1.62954705      -0.32376520
H       -0.62004489      -1.34950860       1.15952197
15
Frame=6 idx=009216 GeodesicLength=0.7797769724530853 rxn_smarts="[C:1]([C:2]#[C:3][C:4]([C@@:5]1([H:13])[C:6]([H:14])([H:15])[O:7]1)([H:11])[H:12])([H:8])([H:9])[H:10]>>[C:1](=[C:2]=[C:3]=[C:4]([H:11])[H:12])([H:8])[H:10].[C:5]([C:6]([H:9])([H:14])[H:15])(=[O:7])[H:13]"
C        1.69082522      -0.92899135      -1.00059588
C        1.80949923       0.32030682      -0.40707866
C        1.12846232       1.15989303       0.17933983
C       -0.05412384       1.65142821       0.75893656
C       -1.29239303       0.48035829       0.13913106
C       -0.91440667      -0.98374143       0.18458014
O       -2.23575775       0.33046157       1.02284997
H        2.15543496      -1.81082313      -0.56945367
H        0.27153427      -1.28633471      -0.55379361
H        1.72771791      -0.95994194      -2.08805054
H       -0.29884035       2.68179239       0.50740070
H       -0.16226959       1.50612836       1.83208904
H       -1.55225500       0.82776966      -0.87465190
H       -1.63329492      -1.64073894      -0.30495755
H       -0.64013276      -1.34756684       1.17425451
15
Frame=7 idx=009216 GeodesicLength=0.9096310439470815 rxn_smarts="[C:1]([C:2]#[C:3][C:4]([C@@:5]1([H:13])[C:6]([H:14])([H:15])[O:7]1)([H:11])[H:12])([H:8])([H:9])[H:10]>>[C:1](=[C:2]=[C:3]=[C:4]([H:11])[H:12])([H:8])[H:10].[C:5]([C:6]([H:9])([H:14])[H:15])(=[O:7])[H:13]"
C        1.69996434      -0.92547359      -1.01075165
C        1.80929476       0.31804463      -0.40407853
C        1.13508578       1.16594632       0.18074403
C       -0.04330358       1.66404190       0.75871295
C       -1.30495945       0.47497245       0.13052419
C       -0.94112333      -0.98787290       0.19926971
O       -2.24149611       0.32508277       1.02036904
H        2.16792438      -1.81185264      -0.59273487
H        0.27598426      -1.31056989      -0.55222321
H        1.76771062      -0.93911604      -2.09742637
H       -0.26881659       2.70175214       0.51904242
H       -0.16851419       1.50916373       1.82859571
H       -1.57022392       0.81327049      -0.88441035
H       -1.65691572      -1.65220941      -0.28527083
H       -0.66061126      -1.34517995       1.18963776
15
Frame=8 idx=009216 GeodesicLength=1.0395138084789524 rxn_smarts="[C:1]([C:2]#[C:3][C:4]([C@@:5]1([H:13])[C:6]([H:14])([H:15])[O:7]1)([H:11])[H:12])([H:8])([H:9])[H:10]>>[C:1](=[C:2]=[C:3]=[C:4]([H:11])[H:12])([H:8])[H:10].[C:5]([C:6]([H:9])([H:14])[H:15])(=[O:7])[H:13]"
C        1.70907366      -0.92170026      -1.02178419
C        1.80868342       0.31564570      -0.40150067
C        1.14173100       1.17180648       0.18210892
C       -0.03224458       1.67678661       0.75849655
C       -1.31797143       0.46904605       0.12161098
C       -0.96867340      -0.99207808       0.21466175
O       -2.24793339       0.32056234       1.01747784
H        2.18050486      -1.81232789      -0.61681318
H        0.28107747      -1.33567960      -0.55080135
H        1.80929856      -0.91747857      -2.10640197
H       -0.23738639       2.72182637       0.53188481
H       -0.17505627       1.51216043       1.82464573
H       -1.58841071       0.79768684      -0.89461149
H       -1.68119533      -1.66394741      -0.26465286
H       -0.68149747      -1.34230901       1.20567915
15
Frame=9 idx=009216 GeodesicLength=1.1699244300925988 rxn_smarts="[C:1]([C:2]#[C:3][C:4]([C@@:5]1([H:13])[C:6]([H:14])([H:15])[O:7]1)([H:11])[H:12])([H:8])([H:9])[H:10]>>[C:1](=[C:2]=[C:3]=[C:4]([H:11])[H:12])([H:8])[H:10].[C:5]([C:6]([H:9])([H:14])[H:15])(=[O:7])[H:13]"
C        1.71821544      -0.91763223      -1.03378677
C        1.80758310       0.31309433      -0.39942821
C        1.14834212       1.17745117       0.18335368
C       -0.02093757       1.68971137       0.75826585
C       -1.33149603       0.46252033       0.11234252
C       -0.99722292      -0.99631247       0.23087053
O       -2.25507282       0.31698711       1.01409933
H        2.19318750      -1.81219655      -0.64165901
H        0.28693234      -1.36171945      -0.54990080
H        1.85267831      -0.89496087      -2.11479566
H       -0.20435848       2.74187587       0.54623505
H       -0.18190475       1.51513874       1.82014094
H       -1.60688071       0.78082571      -0.90531278
H       -1.70629183      -1.67596931      -0.24287911
H       -0.70277371      -1.33881375       1.22245445
15
Frame=10 idx=009216 GeodesicLength=1.3003854696957433 rxn_smarts="[C:1]([C:2]#[C:3][C:4]([C@@:5]1([H:13])[C:6]([H:14])([H:15])[O:7]1)([H:11])[H:12])([H:8])([H:9])[H:10]>>[C:1](=[C:2]=[C:3]=[C:4]([H:11])[H:12])([H:8])[H:10].[C:5]([C:6]([H:9])([H:14])[H:15])(=[O:7])[H:13]"
C        1.72737128      -0.91324404      -1.04680126
C        1.80598869       0.31042743      -0.39793294
C        1.15493971       1.18290053       0.18447520
C       -0.00936698       1.70280415       0.75801364
C       -1.34550754       0.45536138       0.10272144
C       -1.02672306      -1.00056930       0.24786879
O       -2.26294281       0.31430758       1.01027887
H        2.20594052      -1.81142636      -0.66726231
H        0.29358671      -1.38869199      -0.54939907
H        1.89779307      -0.87162351      -2.12254402
H       -0.16970737       2.76191023       0.56208817
H       -0.18906667       1.51810321       1.81506529
H       -1.62562996       0.76269015      -0.91649285
H       -1.73215139      -1.68823353      -0.22001583
H       -0.72452420      -1.33471591       1.23993687
15
Frame=11 idx=009216 GeodesicLength=1.4308539881582885 rxn_smarts="[C:1]([C:2]#[C:3][C:4]([C@@:5]1([H:13])[C:6]([H:14])([H:15])[O:7]1)([H:11])[H:12])([H:8])([H:9])[H:10]>>[C:1](=[C:2]=[C:3]=[C:4]([H:11])[H:12])([H:8])[H:10].[C:5]([C:6]([H:9])([H:14])[H:15])(=[O:7])[H:13]"
C        1.73656734      -0.90849045      -1.06089439
C        1.80385046       0.30767232      -0.39710939
C        1.16151490       1.18815377       0.18544094
C        0.00248683       1.71608652       0.75773108
C       -1.36001914       0.44752181       0.09271952
C       -1.05722370      -1.00482676       0.26569132
O       -2.27155676       0.31254027       1.00599107
H        2.21876752      -1.80996245      -0.69359729
H        0.30114291      -1.41662404      -0.54939412
H        1.94463850      -0.84748630      -2.12951091
H       -0.13333264       2.78184358       0.57959660
H       -0.19655064       1.52106210       1.80935833
H       -1.64466912       0.74318940      -0.92817550
H       -1.75882868      -1.70072285      -0.19599093
H       -0.74678778      -1.32995690       1.25814367
15
Frame=12 idx=009216 GeodesicLength=1.561298824869549 rxn_smarts="[C:1]([C:2]#[C:3][C:4]([C@@:5]1([H:13])[C:6]([H:14])([H:15])[O:7]1)([H:11])[H:12])([H:8])([H:9])[H:10]>>[C:1](=[C:2]=[C:3]=[C:4]([H:11])[H:12])([H:8])[H:10].[C:5]([C:6]([H:9])([H:14])[H:15])(=[O:7])[H:13]"
C        1.74584304      -0.90331699      -1.07613196
C        1.80113260       0.30485317      -0.39702866
C        1.16805890       1.19320684       0.18623685
C        0.01463791       1.72958558       0.75740186
C       -1.37504020       0.43894233       0.08229461
C       -1.08877723      -1.00905390       0.28438709
O       -2.28093900       0.31171376       1.00117700
H        2.23169297      -1.80775297      -0.72066742
H        0.30972221      -1.44554423      -0.54999871
H        1.99312209      -0.82255271      -2.13555918
H       -0.09509364       2.80156232       0.59894047
H       -0.20439096       1.52404313       1.80294856
H       -1.66399630       0.72219792      -0.94040362
H       -1.78635949      -1.71342701      -0.17071380
H       -0.76961290      -1.32445723       1.27711693
15
Frame=13 idx=009216 GeodesicLength=1.6916966454959974 rxn_smarts="[C:1]([C:2]#[C:3][C:4]([C@@:5]1([H:13])[C:6]([H:14])([H:15])[O:7]1)([H:11])[H:12])([H:8])([H:9])[H:10]>>[C:1](=[C:2]=[C:3]=[C:4]([H:11])[H:12])([H:8])[H:10].[C:5]([C:6]([H:9])([H:14])[H:15])(=[O:7])[H:13]"
C        1.75526835      -0.89766014      -1.09258811
C        1.79774418       0.30204583      -0.39788541
C        1.17454642       1.19807326       0.18680363
C        0.02711412       1.74332687       0.75702716
C       -1.39058842       0.42956800       0.07142868
C       -1.12144699      -1.01319814       0.30399003
O       -2.29110315       0.31185422       0.99578616
H        2.24475751      -1.80469246      -0.74837306
H        0.31945185      -1.47548652      -0.55135853
H        2.04318485      -0.79696649      -2.14051518
H       -0.05488846       2.82093362       0.62035591
H       -0.21258564       1.52702940       1.79577604
H       -1.68362119       0.69961628      -0.95318476
H       -1.81479818      -1.72630859      -0.14411163
H       -0.79303525      -1.31813515       1.29684907
15
Frame=14 idx=009216 GeodesicLength=1.8220179111157628 rxn_smarts="[C:1]([C:2]#[C:3][C:4]([C@@:5]1([H:13])[C:6]([H:14])([H:15])[O:7]1)([H:11])[H:12])([H:8])([H:9])[H:10]>>[C:1](=[C:2]=[C:3]=[C:4]([H:11])[H:12])([H:8])[H:10].[C:5]([C:6]([H:9])([H:14])[H:15])(=[O:7])[H:13]"
C        1.76489180      -0.89146245      -1.11031109
C        1.79368355       0.29922554      -0.39964511
C        1.18099326       1.20271281       0.18719829
C        0.03993108       1.75735334       0.75657926
C       -1.40665909       0.41931635       0.06006686
C       -1.15529268      -1.01721835       0.32458157
O       -2.30207598       0.31299745       0.98972596
H        2.25801934      -1.80077426      -0.77681114
H        0.33048795      -1.50649512      -0.55362763
H        2.09462435      -0.77060020      -2.14427025
H       -0.01255945       2.83977635       0.64397464
H       -0.22122391       1.53012852       1.78773660
H       -1.70350695       0.67526387      -0.96657770
H       -1.84419604      -1.73934414      -0.11603474
H       -0.81711720      -1.31087971       1.31741448
15
Frame=15 idx=009216 GeodesicLength=1.9522129334432479 rxn_smarts="[C:1]([C:2]#[C:3][C:4]([C@@:5]1([H:13])[C:6]([H:14])([H:15])[O:7]1)([H:11])[H:12])([H:8])([H:9])[H:10]>>[C:1](=[C:2]=[C:3]=[C:4]([H:11])[H:12])([H:8])[H:10].[C:5]([C:6]([H:9])([H:14])[H:15])(=[O:7])[H:13]"
C        1.77480090      -0.88465935      -1.12933884
C        1.78889503       0.29643651      -0.40240982
C        1.18739252       1.20711380       0.18742323
C        0.05311753       1.77170735       0.75604540
C       -1.42325166       0.40810818       0.04816997
C       -1.19038059      -1.02104994       0.34622271
O       -2.31387940       0.31519261       0.98289363
H        2.27158155      -1.79592598      -0.80597079
H        0.34300157      -1.53861798      -0.55696427
H        2.14721139      -0.74348704      -2.14670992
H        0.03202657       2.85786654       0.67003125
H       -0.23036062       1.53339680       1.77873158
H       -1.72361792       0.64897617      -0.98061892
H       -1.87460432      -1.75248988      -0.08635987
H       -0.84193254      -1.30256778       1.33885466
15
Frame=16 idx=009216 GeodesicLength=2.0822681843083535 rxn_smarts="[C:1]([C:2]#[C:3][C:4]([C@@:5]1([H:13])[C:6]([H:14])([H:15])[O:7]1)([H:11])[H:12])([H:8])([H:9])[H:10]>>[C:1](=[C:2]=[C:3]=[C:4]([H:11])[H:12])([H:8])[H:10].[C:5]([C:6]([H:9])([H:14])[H:15])(=[O:7])[H:13]"
C        1.78508597      -0.87719330      -1.14970466
C        1.78333824       0.29369138      -0.40622900
C        1.19375130       1.21123307       0.18751908
C        0.06671197       1.78643598       0.75540485
C       -1.44036332       0.39584761       0.03568867
C       -1.22680557      -1.02462046       0.36900278
O       -2.32653677       0.31850521       0.97516547
H        2.28556952      -1.79009633      -0.83591540
H        0.35718019      -1.57192811      -0.56153328
H        2.20072642      -0.71553896      -2.14775734
H        0.07902147       2.87491727       0.69874694
H       -0.24008814       1.53695055       1.76863011
H       -1.74390257       0.62054439      -0.99536224
H       -1.90611591      -1.76569785      -0.05490466
H       -0.86757281      -1.29305045       1.36124869
