8
Frame=0 idx=002729 GeodesicLength=0.0 rxn_smarts="[O:1]=[C:2]([C:3]#[C:4][C:5]#[C:6][H:8])[H:7]>>[O:1]=[C:2]([C:3](=[C:4])[C:5]#[C:6][H:8])[H:7]"
O       -1.62697450      -0.98903412      -0.79721626
C       -1.63574985      -0.04391382      -0.06015787
C       -0.45483760       0.60973749       0.46504945
C        0.45638758       1.29503630       1.01592974
C        1.25845812       0.30838823       0.26031860
C        1.96978893      -0.46638688      -0.33168855
H       -2.56358275       0.43448309       0.30424327
H        2.59651007      -1.14831028      -0.85647836
8
Frame=1 idx=002729 GeodesicLength=0.05137564680324622 rxn_smarts="[O:1]=[C:2]([C:3]#[C:4][C:5]#[C:6][H:8])[H:7]>>[O:1]=[C:2]([C:3](=[C:4])[C:5]#[C:6][H:8])[H:7]"
O       -1.65953296      -0.98522894      -0.79370879
C       -1.65141581      -0.04550506      -0.04997589
C       -0.45553193       0.62273719       0.42347449
C        0.44559378       1.28561341       1.01371849
C        1.26213497       0.28348210       0.26689522
C        1.99081924      -0.47749250      -0.32104142
H       -2.57020847       0.44462239       0.32096647
H        2.63814119      -1.12822858      -0.86032856
8
Frame=2 idx=002729 GeodesicLength=0.1028978479689632 rxn_smarts="[O:1]=[C:2]([C:3]#[C:4][C:5]#[C:6][H:8])[H:7]>>[O:1]=[C:2]([C:3](=[C:4])[C:5]#[C:6][H:8])[H:7]"
O       -1.69404583      -0.98329968      -0.78668236
C       -1.66708488      -0.04239417      -0.04507635
C       -0.45582456       0.62823023       0.38821866
C        0.43401164       1.27655547       1.00822913
C        1.26490396       0.25578779       0.27437827
C        2.01298478      -0.48552906      -0.31340991
H       -2.57588891       0.45720073       0.33697307
H        2.68094380      -1.10655131      -0.86263052
8
Frame=3 idx=002729 GeodesicLength=0.15451191643157508 rxn_smarts="[O:1]=[C:2]([C:3]#[C:4][C:5]#[C:6][H:8])[H:7]>>[O:1]=[C:2]([C:3](=[C:4])[C:5]#[C:6][H:8])[H:7]"
O       -1.73029025      -0.98107594      -0.77882167
C       -1.68325135      -0.03791441      -0.04128843
C       -0.45614611       0.62780874       0.35834179
C        0.42249251       1.26751025       1.00033881
C        1.26706035       0.22778770       0.27924437
C        2.03550828      -0.49281255      -0.30722393
H       -2.58116156       0.47202966       0.35199890
H        2.72578812      -1.08333346      -0.86258985
8
Frame=4 idx=002729 GeodesicLength=0.20617847136296003 rxn_smarts="[O:1]=[C:2]([C:3]#[C:4][C:5]#[C:6][H:8])[H:7]>>[O:1]=[C:2]([C:3](=[C:4])[C:5]#[C:6][H:8])[H:7]"
O       -1.76823733      -0.97815171      -0.77056054
C       -1.69994857      -0.03230281      -0.03831665
C       -0.45656074       0.62390080       0.33075199
C        0.41114155       1.25797187       0.99064559
C        1.26866234       0.19911307       0.28177033
C        2.05835028      -0.50012098      -0.30160293
H       -2.58600133       0.48789072       0.36755275
H        2.77259381      -1.05830095      -0.86024055
8
Frame=5 idx=002729 GeodesicLength=0.25790525050862156 rxn_smarts="[O:1]=[C:2]([C:3]#[C:4][C:5]#[C:6][H:8])[H:7]>>[O:1]=[C:2]([C:3](=[C:4])[C:5]#[C:6][H:8])[H:7]"
O       -1.80801839      -0.97241094      -0.76454407
C       -1.71717945      -0.02590262      -0.03584218
C       -0.45733864       0.61743209       0.30460457
C        0.40002570       1.24851538       0.97842467
C        1.26978475       0.17074528       0.28056810
C        2.08128686      -0.50732964      -0.29708908
H       -2.59026799       0.50219383       0.38693555
H        2.82170715      -1.03324339      -0.85305756
8
Frame=6 idx=002729 GeodesicLength=0.3097302070477984 rxn_smarts="[O:1]=[C:2]([C:3]#[C:4][C:5]#[C:6][H:8])[H:7]>>[O:1]=[C:2]([C:3](=[C:4])[C:5]#[C:6][H:8])[H:7]"
O       -1.84980821      -0.96615103      -0.75748942
C       -1.73506316      -0.01934375      -0.03274743
C       -0.45832284       0.60812786       0.27966366
C        0.38936417       1.23805651       0.96455085
C        1.27039742       0.14058109       0.27758735
C        2.10446077      -0.51529296      -0.29286212
H       -2.59405231       0.51867366       0.40546156
H        2.87302416      -1.00465138      -0.84416446
8
Frame=7 idx=002729 GeodesicLength=0.3614757119440735 rxn_smarts="[O:1]=[C:2]([C:3]#[C:4][C:5]#[C:6][H:8])[H:7]>>[O:1]=[C:2]([C:3](=[C:4])[C:5]#[C:6][H:8])[H:7]"
O       -1.89278619      -0.95762511      -0.75192282
C       -1.75328205      -0.01291340      -0.02898607
C       -0.45991263       0.59669078       0.25629389
C        0.37886070       1.22682671       0.94983556
C        1.27093124       0.11157545       0.27016971
C        2.12782958      -0.52150912      -0.29143847
H       -2.59731718       0.53440583       0.42584939
H        2.92567653      -0.97745114      -0.82980119
8
Frame=8 idx=002729 GeodesicLength=0.41317800810459404 rxn_smarts="[O:1]=[C:2]([C:3]#[C:4][C:5]#[C:6][H:8])[H:7]>>[O:1]=[C:2]([C:3](=[C:4])[C:5]#[C:6][H:8])[H:7]"
O       -1.93696647      -0.94839990      -0.74549712
C       -1.77191087      -0.00679467      -0.02410359
C       -0.46208988       0.58283327       0.23487823
C        0.36858818       1.21372461       0.93535879
C        1.27149055       0.08293666       0.25862542
C        2.15143538      -0.52681930      -0.29237042
H       -2.60030758       0.55194965       0.44483364
H        2.97976069      -0.94943033      -0.81172496
8
Frame=9 idx=002729 GeodesicLength=0.464848008116263 rxn_smarts="[O:1]=[C:2]([C:3]#[C:4][C:5]#[C:6][H:8])[H:7]>>[O:1]=[C:2]([C:3](=[C:4])[C:5]#[C:6][H:8])[H:7]"
O       -1.98255409      -0.93771524      -0.73921375
C       -1.79080507      -0.00077573      -0.01853371
C       -0.46462851       0.56668990       0.21427103
C        0.35882436       1.20010616       0.91903129
C        1.27193124       0.05312133       0.24481344
C        2.17550304      -0.53236579      -0.29348982
H       -2.60254018       0.57006954       0.46421919
H        3.03426921      -0.91913016      -0.79109766
8
Frame=10 idx=002729 GeodesicLength=0.5165660786226939 rxn_smarts="[O:1]=[C:2]([C:3]#[C:4][C:5]#[C:6][H:8])[H:7]>>[O:1]=[C:2]([C:3](=[C:4])[C:5]#[C:6][H:8])[H:7]"
O       -2.02939250      -0.92603124      -0.73221591
C       -1.81011033       0.00514709      -0.01210522
C       -0.46783333       0.54833855       0.19515787
C        0.34927898       1.18447569       0.90290054
C        1.27241055       0.02338845       0.22661572
C        2.20006401      -0.53551369      -0.29821185
H       -2.60435789       0.58932279       0.48311051
H        3.08994052      -0.88912764      -0.76525166
8
Frame=11 idx=002729 GeodesicLength=0.5683977387561607 rxn_smarts="[O:1]=[C:2]([C:3]#[C:4][C:5]#[C:6][H:8])[H:7]>>[O:1]=[C:2]([C:3](=[C:4])[C:5]#[C:6][H:8])[H:7]"
O       -2.07807396      -0.91371530      -0.72337211
C       -1.82988711       0.01068066      -0.00409646
C       -0.47162800       0.52702234       0.17761206
C        0.34048708       1.16621698       0.88646693
C        1.27297490      -0.00716534       0.20333744
C        2.22497786      -0.54091272      -0.30314217
H       -2.60564054       0.61183625       0.49959385
H        3.14678977      -0.85396287      -0.73639955
8
Frame=12 idx=002729 GeodesicLength=0.6201156886710366 rxn_smarts="[O:1]=[C:2]([C:3]#[C:4][C:5]#[C:6][H:8])[H:7]>>[O:1]=[C:2]([C:3](=[C:4])[C:5]#[C:6][H:8])[H:7]"
O       -2.12718678      -0.89871215      -0.71631276
C       -1.84975031       0.01604901       0.00441930
C       -0.47637905       0.50465924       0.16099833
C        0.33156873       1.14703465       0.86990848
C        1.27377528      -0.03506389       0.17326835
C        2.25049213      -0.53837061      -0.31646178
H       -2.60614553       0.63104045       0.52023912
H        3.20362554      -0.82663671      -0.69605905
8
Frame=13 idx=002729 GeodesicLength=0.671774584692707 rxn_smarts="[O:1]=[C:2]([C:3]#[C:4][C:5]#[C:6][H:8])[H:7]>>[O:1]=[C:2]([C:3](=[C:4])[C:5]#[C:6][H:8])[H:7]"
O       -2.17654630      -0.88391045      -0.70693480
C       -1.86932106       0.02129932       0.01359089
C       -0.48120720       0.47946773       0.14615032
C        0.32340807       1.12553225       0.85366383
C        1.27507232      -0.06334451       0.13922806
C        2.27694201      -0.54143584      -0.32367067
H       -2.60568723       0.65387651       0.53666345
H        3.25733938      -0.79148500      -0.65869107
8
Frame=14 idx=002729 GeodesicLength=0.723113586269407 rxn_smarts="[O:1]=[C:2]([C:3]#[C:4][C:5]#[C:6][H:8])[H:7]>>[O:1]=[C:2]([C:3](=[C:4])[C:5]#[C:6][H:8])[H:7]"
O       -2.22509389      -0.86781637      -0.69804806
C       -1.88836743       0.02614386       0.02316291
C       -0.48648503       0.45279105       0.13290455
C        0.31532013       1.10344755       0.83759623
C        1.27705534      -0.08850526       0.09935282
C        2.30394424      -0.54076114      -0.33313448
H       -2.60427145       0.67509681       0.55410188
H        3.30789811      -0.76039651      -0.61593584
8
Frame=15 idx=002729 GeodesicLength=0.7742372722011859 rxn_smarts="[O:1]=[C:2]([C:3]#[C:4][C:5]#[C:6][H:8])[H:7]>>[O:1]=[C:2]([C:3](=[C:4])[C:5]#[C:6][H:8])[H:7]"
O       -2.27278505      -0.85007598      -0.69002121
C       -1.90689667       0.02994592       0.03395922
C       -0.49245068       0.42500303       0.12140842
C        0.30729796       1.08037997       0.82226520
C        1.27987403      -0.10700407       0.04878606
C        2.33126075      -0.53500634      -0.34748462
H       -2.60200204       0.69350560       0.57401743
H        3.35570169      -0.73674813      -0.56293051
8
Frame=16 idx=002729 GeodesicLength=0.8249633314330376 rxn_smarts="[O:1]=[C:2]([C:3]#[C:4][C:5]#[C:6][H:8])[H:7]>>[O:1]=[C:2]([C:3](=[C:4])[C:5]#[C:6][H:8])[H:7]"
O       -2.31890700      -0.83125465      -0.68247611
C       -1.92429846       0.03342656       0.04472784
C       -0.49812052       0.39528772       0.11177030
C        0.29982640       1.05692791       0.80696940
C        1.28375579      -0.11970642      -0.00971060
C        2.35816517      -0.53703290      -0.35136995
H       -2.59826181       0.71114470       0.59354158
H        3.39784043      -0.70879290      -0.51345247
