13
Frame=0 idx=004565 GeodesicLength=0.0 rxn_smarts="[C:1]([C@@:2]1([H:10])[C:3]([H:11])([H:12])[N:4]1[C:5](=[O:6])[H:13])([H:7])([H:8])[H:9]>>[C:1](=[C:2]([N+:4]([C-:3]([H:11])[H:12])=[C:5]([O:6][H:7])[H:13])[H:10])([H:8])[H:9]"
C       -1.45432072      -0.59959388       0.51638761
C       -0.39673070      -0.77762917      -0.35271280
C        0.44147309       0.43614192      -1.58879413
N        0.76056255       0.03291287      -0.26926264
C        1.14723847       0.66321496       0.78568799
O        0.77500427       0.26738308       1.97383615
H       -0.03128813      -0.32843404       1.84346473
H       -2.28506870      -1.28638706       0.44087854
H       -1.68829291       0.39232752       0.88853348
H       -0.21521016      -1.72785167      -0.83973960
H        0.94752276      -0.12259238      -2.36478880
H        0.24353916       1.49153588      -1.73556162
H        1.75557100       1.55897191       0.70207110
13
Frame=1 idx=004565 GeodesicLength=0.12318327401627834 rxn_smarts="[C:1]([C@@:2]1([H:10])[C:3]([H:11])([H:12])[N:4]1[C:5](=[O:6])[H:13])([H:7])([H:8])[H:9]>>[C:1](=[C:2]([N+:4]([C-:3]([H:11])[H:12])=[C:5]([O:6][H:7])[H:13])[H:10])([H:8])[H:9]"
C       -1.45342686      -0.59167669       0.51476550
C       -0.39420550      -0.77452885      -0.35437953
C        0.42956980       0.43941278      -1.59018216
N        0.75768991       0.04701255      -0.27395078
C        1.17029202       0.65073695       0.78893525
O        0.81221867       0.23022343       1.97162823
H       -0.04755636      -0.34299417       1.84523373
H       -2.28793139      -1.27357234       0.43171584
H       -1.69478506       0.41051762       0.85402090
H       -0.18690744      -1.74181596      -0.79550344
H        0.92610230      -0.12751701      -2.36626678
H        0.23890077       1.49535426      -1.74125664
H        1.73003914       1.57884742       0.71523987
13
Frame=2 idx=004565 GeodesicLength=0.24637020474176674 rxn_smarts="[C:1]([C@@:2]1([H:10])[C:3]([H:11])([H:12])[N:4]1[C:5](=[O:6])[H:13])([H:7])([H:8])[H:9]>>[C:1](=[C:2]([N+:4]([C-:3]([H:11])[H:12])=[C:5]([O:6][H:7])[H:13])[H:10])([H:8])[H:9]"
C       -1.45247935      -0.58347404       0.51313800
C       -0.39152694      -0.77150418      -0.35595239
C        0.41782423       0.44259940      -1.59163058
N        0.75441415       0.06171678      -0.27841886
C        1.19322598       0.63886801       0.79113976
O        0.85024016       0.19229181       1.96751962
H       -0.06420282      -0.35570956       1.84709569
H       -2.28958158      -1.26198990       0.42406457
H       -1.70188369       0.42793253       0.81843992
H       -0.15956736      -1.75309016      -0.75108850
H        0.90540435      -0.13262182      -2.36717629
H        0.23403370       1.49884643      -1.74773502
H        1.70409918       1.59613470       0.73060407
13
Frame=3 idx=004565 GeodesicLength=0.36956019180448013 rxn_smarts="[C:1]([C@@:2]1([H:10])[C:3]([H:11])([H:12])[N:4]1[C:5](=[O:6])[H:13])([H:7])([H:8])[H:9]>>[C:1](=[C:2]([N+:4]([C-:3]([H:11])[H:12])=[C:5]([O:6][H:7])[H:13])[H:10])([H:8])[H:9]"
C       -1.45150538      -0.57510140       0.51154838
C       -0.38869628      -0.76854547      -0.35736864
C        0.40617988       0.44575548      -1.59305015
N        0.75070400       0.07703270      -0.28259363
C        1.21591428       0.62772899       0.79235671
O        0.88873251       0.15410291       1.96150916
H       -0.08123978      -0.36657993       1.84912947
H       -2.29006953      -1.25179064       0.41788923
H       -1.70984366       0.44434998       0.78166555
H       -0.13318922      -1.76175891      -0.70668997
H        0.88543518      -0.13777059      -2.36746499
H        0.22884179       1.50206568      -1.75485172
H        1.67873621       1.61051120       0.74792059
13
Frame=4 idx=004565 GeodesicLength=0.4927752624736629 rxn_smarts="[C:1]([C@@:2]1([H:10])[C:3]([H:11])([H:12])[N:4]1[C:5](=[O:6])[H:13])([H:7])([H:8])[H:9]>>[C:1](=[C:2]([N+:4]([C-:3]([H:11])[H:12])=[C:5]([O:6][H:7])[H:13])[H:10])([H:8])[H:9]"
C       -1.45056125      -0.56663341       0.51002439
C       -0.38573273      -0.76563799      -0.35857797
C        0.39462079       0.44892379      -1.59436353
N        0.74653996       0.09295044      -0.28640211
C        1.23827770       0.61738079       0.79266896
O        0.92743431       0.11612863       1.95368748
H       -0.09868535      -0.37578763       1.85139260
H       -2.28949567      -1.24304918       0.41313312
H       -1.71886655       0.45956260       0.74362566
H       -0.10779599      -1.76793700      -0.66248035
H        0.86622323      -0.14286078      -2.36709693
H        0.22327116       1.50505989      -1.76247794
H        1.65477038       1.62189984       0.76686661
13
Frame=5 idx=004565 GeodesicLength=0.6159604033724396 rxn_smarts="[C:1]([C@@:2]1([H:10])[C:3]([H:11])([H:12])[N:4]1[C:5](=[O:6])[H:13])([H:7])([H:8])[H:9]>>[C:1](=[C:2]([N+:4]([C-:3]([H:11])[H:12])=[C:5]([O:6][H:7])[H:13])[H:10])([H:8])[H:9]"
C       -1.44966709      -0.55803303       0.50858234
C       -0.38264957      -0.76273999      -0.35953162
C        0.38319435       0.45207200      -1.59546865
N        0.74193859       0.10939148      -0.28977545
C        1.26027005       0.60781494       0.79213020
O        0.96628375       0.07866770       1.94411651
H       -0.11648907      -0.38371647       1.85386368
H       -2.28795508      -1.23559920       0.40970780
H       -1.72898000       0.47345340       0.70436164
H       -0.08348280      -1.77173025      -0.61866338
H        0.84786065      -0.14788451      -2.36599099
H        0.21731195       1.50777867      -1.77047555
H        1.63236429       1.63052528       0.78714346
13
Frame=6 idx=004565 GeodesicLength=0.7391549382919134 rxn_smarts="[C:1]([C@@:2]1([H:10])[C:3]([H:11])([H:12])[N:4]1[C:5](=[O:6])[H:13])([H:7])([H:8])[H:9]>>[C:1](=[C:2]([N+:4]([C-:3]([H:11])[H:12])=[C:5]([O:6][H:7])[H:13])[H:10])([H:8])[H:9]"
C       -1.44891361      -0.54932494       0.50720103
C       -0.37947664      -0.75982751      -0.36018863
C        0.37190530       0.45524274      -1.59631756
N        0.73687553       0.12636564      -0.29264414
C        1.28183333       0.59907160       0.79084404
O        1.00527421       0.04196792       1.93294889
H       -0.13481056      -0.39058931       1.85659582
H       -2.28556721      -1.22946823       0.40754357
H       -1.74032779       0.48583879       0.66380228
H       -0.06024969      -1.77328765      -0.57531660
H        0.83036136      -0.15277568      -2.36412755
H        0.21093072       1.51027103      -1.77876955
H        1.61216507       1.63651559       0.80842839
13
Frame=7 idx=004565 GeodesicLength=0.8623366521694216 rxn_smarts="[C:1]([C@@:2]1([H:10])[C:3]([H:11])([H:12])[N:4]1[C:5](=[O:6])[H:13])([H:7])([H:8])[H:9]>>[C:1](=[C:2]([N+:4]([C-:3]([H:11])[H:12])=[C:5]([O:6][H:7])[H:13])[H:10])([H:8])[H:9]"
C       -1.44833434      -0.54042467       0.50587225
C       -0.37622941      -0.75685418      -0.36050845
C        0.36082219       0.45840133      -1.59685746
N        0.73137744       0.14381401      -0.29496229
C        1.30296556       0.59113185       0.78886085
O        1.04464209       0.00601250       1.92020924
H       -0.15373297      -0.39668549       1.85959490
H       -2.28243207      -1.22445001       0.40657312
H       -1.75287053       0.49664530       0.62197979
H       -0.03817586      -1.77275124      -0.53255170
H        0.81379184      -0.15757133      -2.36146899
H        0.20416427       1.51249173      -1.78729352
H        1.59401181       1.64024020       0.83055226
13
Frame=8 idx=004565 GeodesicLength=0.9855138522382805 rxn_smarts="[C:1]([C@@:2]1([H:10])[C:3]([H:11])([H:12])[N:4]1[C:5](=[O:6])[H:13])([H:7])([H:8])[H:9]>>[C:1](=[C:2]([N+:4]([C-:3]([H:11])[H:12])=[C:5]([O:6][H:7])[H:13])[H:10])([H:8])[H:9]"
C       -1.44796743      -0.53124646       0.50458497
C       -0.37292264      -0.75377715      -0.36045235
C        0.35001106       0.46152327      -1.59706135
N        0.72547687       0.16169491      -0.29669967
C        1.32368719       0.58399252       0.78622464
O        1.08471862      -0.02931630       1.90586140
H       -0.17339239      -0.40217646       1.86289735
H       -2.27864933      -1.22035523       0.40675003
H       -1.76656209       0.50580186       0.57889990
H       -0.01732559      -1.77027842      -0.49043103
H        0.79819614      -0.16230883      -2.35800189
H        0.19706673       1.51441160      -1.79601207
H        1.57766286       1.64203469       0.85344009
13
Frame=9 idx=004565 GeodesicLength=1.1086406420355128 rxn_smarts="[C:1]([C@@:2]1([H:10])[C:3]([H:11])([H:12])[N:4]1[C:5](=[O:6])[H:13])([H:7])([H:8])[H:9]>>[C:1](=[C:2]([N+:4]([C-:3]([H:11])[H:12])=[C:5]([O:6][H:7])[H:13])[H:10])([H:8])[H:9]"
C       -1.44782976      -0.52167945       0.50332031
C       -0.36955791      -0.75055559      -0.35997291
C        0.33954035       0.46456594      -1.59688944
N        0.71922095       0.17993767      -0.29783400
C        1.34401889       0.57765082       0.78294825
O        1.12590601      -0.06419727       1.88977113
H       -0.19392741      -0.40714106       1.86652227
H       -2.27428166      -1.21693511       0.40802539
H       -1.78130272       0.51326089       0.53459544
H        0.00224841      -1.76602412      -0.44901542
H        0.78361461      -0.16703854      -2.35370636
H        0.18969089       1.51597581      -1.80486995
H        1.56265933       1.64218001       0.87710530
13
Frame=10 idx=004565 GeodesicLength=1.23176353352942 rxn_smarts="[C:1]([C@@:2]1([H:10])[C:3]([H:11])([H:12])[N:4]1[C:5](=[O:6])[H:13])([H:7])([H:8])[H:9]>>[C:1](=[C:2]([N+:4]([C-:3]([H:11])[H:12])=[C:5]([O:6][H:7])[H:13])[H:10])([H:8])[H:9]"
C       -1.44796330      -0.51164468       0.50205438
C       -0.36614089      -0.74714977      -0.35903041
C        0.32945804       0.46752362      -1.59633764
N        0.71264656       0.19853185      -0.29835518
C        1.36399025       0.57214201       0.77906428
O        1.16861077      -0.09879449       1.87175549
H       -0.21556082      -0.41159455       1.87053256
H       -2.26941325      -1.21404442       0.41037636
H       -1.79703915       0.51893209       0.48903025
H        0.02052010      -1.76015278      -0.40827892
H        0.77004541      -0.17179525      -2.34858767
H        0.18208917       1.51717856      -1.81385228
H        1.54875710       1.64086779       0.90162877
13
Frame=11 idx=004565 GeodesicLength=1.3548679279111513 rxn_smarts="[C:1]([C@@:2]1([H:10])[C:3]([H:11])([H:12])[N:4]1[C:5](=[O:6])[H:13])([H:7])([H:8])[H:9]>>[C:1](=[C:2]([N+:4]([C-:3]([H:11])[H:12])=[C:5]([O:6][H:7])[H:13])[H:10])([H:8])[H:9]"
C       -1.44838580      -0.50103903       0.50075323
C       -0.36266204      -0.74352047      -0.35757528
C        0.31981208       0.47036699      -1.59538528
N        0.70579986       0.21744003      -0.29825947
C        1.38361939       0.56750371       0.77458004
O        1.21329811      -0.13329382       1.85151312
H       -0.23851640      -0.41548175       1.87497026
H       -2.26409097      -1.21147098       0.41376688
H       -1.81365408       0.52274128       0.44220718
H        0.03747562      -1.75280972      -0.36819013
H        0.75748506      -0.17663005      -2.34263804
H        0.17431035       1.51797811      -1.82292142
H        1.53550881       1.63821570       0.92717891
13
Frame=12 idx=004565 GeodesicLength=1.4779518823227598 rxn_smarts="[C:1]([C@@:2]1([H:10])[C:3]([H:11])([H:12])[N:4]1[C:5](=[O:6])[H:13])([H:7])([H:8])[H:9]>>[C:1](=[C:2]([N+:4]([C-:3]([H:11])[H:12])=[C:5]([O:6][H:7])[H:13])[H:10])([H:8])[H:9]"
C       -1.44913809      -0.48978341       0.49936994
C       -0.35910830      -0.73964202      -0.35554726
C        0.31063888       0.47308091      -1.59401742
N        0.69872591       0.23664022      -0.29754448
C        1.40293761       0.56378943       0.76950615
O        1.26047203      -0.16786522       1.82865999
H       -0.26307632      -0.41865520       1.87989581
H       -2.25838212      -1.20904087       0.41814396
H       -1.83104951       0.52458980       0.39412350
H        0.05312940      -1.74414155      -0.32866294
H        0.74592221      -0.18158030      -2.33585154
H        0.16639117       1.51835508      -1.83204842
H        1.52253715       1.63425314       0.95397270
13
Frame=13 idx=004565 GeodesicLength=1.6010143514317317 rxn_smarts="[C:1]([C@@:2]1([H:10])[C:3]([H:11])([H:12])[N:4]1[C:5](=[O:6])[H:13])([H:7])([H:8])[H:9]>>[C:1](=[C:2]([N+:4]([C-:3]([H:11])[H:12])=[C:5]([O:6][H:7])[H:13])[H:10])([H:8])[H:9]"
C       -1.45024632      -0.47779122       0.49784138
C       -0.35545541      -0.73548076      -0.35287928
C        0.30196162       0.47563639      -1.59221823
N        0.69146190       0.25612353      -0.29621021
C        1.42194765       0.56107781       0.76385929
O        1.31069951      -0.20264066       1.80268085
H       -0.28956542      -0.42094932       1.88536805
H       -2.25233659      -1.20655972       0.42342943
H       -1.84907381       0.52437754       0.34478051
H        0.06750818      -1.73425881      -0.28955867
H        0.73532396      -0.18670263      -2.32821036
H        0.15835862       1.51826071      -1.84120822
H        1.50941609       1.62890713       0.98232546
13
Frame=14 idx=004565 GeodesicLength=1.7240514197674799 rxn_smarts="[C:1]([C@@:2]1([H:10])[C:3]([H:11])([H:12])[N:4]1[C:5](=[O:6])[H:13])([H:7])([H:8])[H:9]>>[C:1](=[C:2]([N+:4]([C-:3]([H:11])[H:12])=[C:5]([O:6][H:7])[H:13])[H:10])([H:8])[H:9]"
C       -1.45176187      -0.46499699       0.49608870
C       -0.35167219      -0.73101343      -0.34948490
C        0.29379615       0.47800807      -1.58996783
N        0.68403537       0.27590222      -0.29425229
C        1.44066205       0.55946076       0.75765837
O        1.36462927      -0.23772510       1.77289912
H       -0.31838870      -0.42208335       1.89145534
H       -2.24602158      -1.20386988       0.42952352
H       -1.86759438       0.52198753       0.29418095
H        0.08066569      -1.72325744      -0.25067812
H        0.72566445      -0.19205596      -2.31968098
H        0.15023310       1.51765534      -1.85038031
H        1.49575265       1.62198824       1.01263842
13
Frame=15 idx=004565 GeodesicLength=1.8470686577773447 rxn_smarts="[C:1]([C@@:2]1([H:10])[C:3]([H:11])([H:12])[N:4]1[C:5](=[O:6])[H:13])([H:7])([H:8])[H:9]>>[C:1](=[C:2]([N+:4]([C-:3]([H:11])[H:12])=[C:5]([O:6][H:7])[H:13])[H:10])([H:8])[H:9]"
C       -1.45376179      -0.45135743       0.49401383
C       -0.34771579      -0.72622024      -0.34524871
C        0.28615023       0.48016934      -1.58724324
N        0.67645744       0.29601829      -0.29165501
C        1.45908835       0.55904547       0.75092988
O        1.42302419      -0.27316553       1.73843990
H       -0.35005524      -0.42168607       1.89823584
H       -2.23952754      -1.20083864       0.43628232
H       -1.88648038       0.51729176       0.24234031
H        0.09268719      -1.71120090      -0.21173571
H        0.71693336      -0.19770675      -2.31020746
H        0.14202165       1.51649514      -1.85956144
H        1.48117833       1.61315555       1.04540950
13
Frame=16 idx=004565 GeodesicLength=1.9700736785900461 rxn_smarts="[C:1]([C@@:2]1([H:10])[C:3]([H:11])([H:12])[N:4]1[C:5](=[O:6])[H:13])([H:7])([H:8])[H:9]>>[C:1](=[C:2]([N+:4]([C-:3]([H:11])[H:12])=[C:5]([O:6][H:7])[H:13])[H:10])([H:8])[H:9]"
C       -1.45633783      -0.43684013       0.49149303
C       -0.34352955      -0.72107334      -0.34001894
C        0.27902097       0.48207518      -1.58400826
N        0.66871077       0.31655303      -0.28838439
C        1.47721453       0.55996085       0.74371563
O        1.48680793      -0.30891040       1.69812682
H       -0.38519197      -0.41929467       1.90579136
H       -2.23295324      -1.19734404       0.44350564
H       -1.90557874       0.51015926       0.18926733
H        0.10368170      -1.69808926      -0.17233576
H        0.70913175      -0.20374939      -2.29968890
H        0.13371938       1.51470075      -1.86876127
H        1.46530430       1.60185215       1.08129772
