10
Frame=0 idx=002387 GeodesicLength=0.0 rxn_smarts="[N:1]([c:2]1[n:3][n:4]([H:9])[n:5][c:6]1[H:10])([H:7])[H:8]>>[N+:1]([C:2]1=[C:6]=[N:5][N:4]([H:9])[N-:3]1)([H:7])([H:8])[H:10]"
N        1.61647404       0.04928283      -0.01403854
C        0.18958610      -0.13308346      -0.04908072
N       -0.65086483      -1.09563203      -0.35591723
N       -1.78802887      -0.45929636      -0.12088166
N       -1.70816113       0.80434031       0.30194822
C       -0.39168214       1.05686469       0.36152092
H        2.09041184       0.02706553      -0.91052499
H        2.11930814      -0.50436261       0.67105700
H       -2.67284374      -0.91873828      -0.25591208
H        1.19580058       1.17355938       0.37182908
10
Frame=1 idx=002387 GeodesicLength=0.04854778622814759 rxn_smarts="[N:1]([c:2]1[n:3][n:4]([H:9])[n:5][c:6]1[H:10])([H:7])[H:8]>>[N+:1]([C:2]1=[C:6]=[N:5][N:4]([H:9])[N-:3]1)([H:7])([H:8])[H:10]"
N        1.61711373       0.04823092      -0.01068235
C        0.19074576      -0.12017318      -0.08840572
N       -0.64843707      -1.09684350      -0.34974521
N       -1.78586957      -0.46555103      -0.10314870
N       -1.70690008       0.80286453       0.30257683
C       -0.39184962       1.06694387       0.33427601
H        2.10791172       0.04234208      -0.89824410
H        2.09664511      -0.53711267       0.66465938
H       -2.67046443      -0.92444983      -0.24103780
H        1.19110445       1.18374879       0.38975166
10
Frame=2 idx=002387 GeodesicLength=0.09696665563832417 rxn_smarts="[N:1]([c:2]1[n:3][n:4]([H:9])[n:5][c:6]1[H:10])([H:7])[H:8]>>[N+:1]([C:2]1=[C:6]=[N:5][N:4]([H:9])[N-:3]1)([H:7])([H:8])[H:10]"
N        1.61684546       0.04631003      -0.00675665
C        0.19200980      -0.10843294      -0.12473421
N       -0.64517805      -1.09662619      -0.34610495
N       -1.78294235      -0.46965115      -0.09073738
N       -1.70508907       0.80214495       0.30162234
C       -0.39194200       1.07658421       0.30773341
H        2.12387148       0.05713100      -0.88498273
H        2.07432855      -0.56907792       0.65696871
H       -2.66700923      -0.93168488      -0.22091172
H        1.18510543       1.19330288       0.40790318
10
Frame=3 idx=002387 GeodesicLength=0.1452761825831912 rxn_smarts="[N:1]([c:2]1[n:3][n:4]([H:9])[n:5][c:6]1[H:10])([H:7])[H:8]>>[N+:1]([C:2]1=[C:6]=[N:5][N:4]([H:9])[N-:3]1)([H:7])([H:8])[H:10]"
N        1.61612064       0.04394984      -0.00305654
C        0.19343808      -0.09895638      -0.15505278
N       -0.64137101      -1.09687813      -0.33965664
N       -1.77977325      -0.47237191      -0.08165706
N       -1.70311677       0.80246304       0.29798581
C       -0.39187625       1.08485795       0.28471752
H        2.13643555       0.07134400      -0.87298118
H        2.05507013      -0.59901708       0.64679249
H       -2.66312465      -0.93811175      -0.20258693
H        1.17819753       1.20272041       0.42549530
10
Frame=4 idx=002387 GeodesicLength=0.19353820856941883 rxn_smarts="[N:1]([c:2]1[n:3][n:4]([H:9])[n:5][c:6]1[H:10])([H:7])[H:8]>>[N+:1]([C:2]1=[C:6]=[N:5][N:4]([H:9])[N-:3]1)([H:7])([H:8])[H:10]"
N        1.61520101       0.04118669       0.00061679
C        0.19503078      -0.09124600      -0.18077656
N       -0.63730720      -1.09713327      -0.33205353
N       -1.77658081      -0.47408664      -0.07509847
N       -1.70125487       0.80384443       0.29117554
C       -0.39163090       1.09201557       0.26462204
H        2.14663710       0.08527777      -0.86174982
H        2.03829896      -0.62760437       0.63462585
H       -2.65901871      -0.94425837      -0.18435331
H        1.17062464       1.21200418       0.44299147
10
Frame=5 idx=002387 GeodesicLength=0.2417463018290649 rxn_smarts="[N:1]([c:2]1[n:3][n:4]([H:9])[n:5][c:6]1[H:10])([H:7])[H:8]>>[N+:1]([C:2]1=[C:6]=[N:5][N:4]([H:9])[N-:3]1)([H:7])([H:8])[H:10]"
N        1.61419655       0.03808189       0.00431939
C        0.19676831      -0.08493010      -0.20307284
N       -0.63313444      -1.09741397      -0.32364468
N       -1.77345505      -0.47518007      -0.07010039
N       -1.69946755       0.80563520       0.28304956
C       -0.39122610       1.09838515       0.24640227
H        2.15517694       0.09865994      -0.85097684
H        2.02348010      -0.65486824       0.62112911
H       -2.65484523      -0.94983808      -0.16698704
H        1.16250647       1.22146826       0.45988147
10
Frame=6 idx=002387 GeodesicLength=0.2898840438103162 rxn_smarts="[N:1]([c:2]1[n:3][n:4]([H:9])[n:5][c:6]1[H:10])([H:7])[H:8]>>[N+:1]([C:2]1=[C:6]=[N:5][N:4]([H:9])[N-:3]1)([H:7])([H:8])[H:10]"
N        1.61312163       0.03462927       0.00816114
C        0.19861884      -0.07966556      -0.22293577
N       -0.62893200      -1.09746466      -0.31525787
N       -1.77038694      -0.47587396      -0.06614352
N       -1.69773632       0.80765289       0.27401961
C       -0.39070707       1.10414758       0.22948718
H        2.16262332       0.11147472      -0.84026482
H        2.01008922      -0.68107760       0.60665708
H       -2.65060219      -0.95501451      -0.14990916
H        1.15391152       1.23119182       0.47618613
10
Frame=7 idx=002387 GeodesicLength=0.33793342010746247 rxn_smarts="[N:1]([c:2]1[n:3][n:4]([H:9])[n:5][c:6]1[H:10])([H:7])[H:8]>>[N+:1]([C:2]1=[C:6]=[N:5][N:4]([H:9])[N-:3]1)([H:7])([H:8])[H:10]"
N        1.61202000       0.03089550       0.01205414
C        0.20051975      -0.07538424      -0.24065968
N       -0.62473234      -1.09752870      -0.30627480
N       -1.76742158      -0.47637504      -0.06263646
N       -1.69600172       0.80955353       0.26521992
C       -0.39011054       1.10934847       0.21367508
H        2.16907656       0.12350655      -0.82975520
H        1.99812823      -0.70607790       0.59148259
H       -2.64646456      -0.95940975      -0.13454209
H        1.14498620       1.24147159       0.49143649
10
Frame=8 idx=002387 GeodesicLength=0.3861808058847089 rxn_smarts="[N:1]([c:2]1[n:3][n:4]([H:9])[n:5][c:6]1[H:10])([H:7])[H:8]>>[N+:1]([C:2]1=[C:6]=[N:5][N:4]([H:9])[N-:3]1)([H:7])([H:8])[H:10]"
N        1.61100217       0.02681398       0.01591792
C        0.20263049      -0.07202640      -0.25622267
N       -0.62055160      -1.09749540      -0.29720666
N       -1.76449861      -0.47666974      -0.05981262
N       -1.69413234       0.81122115       0.25700283
C       -0.38934105       1.11396712       0.19909697
H        2.17461266       0.13476006      -0.81954844
H        1.98696838      -0.72994610       0.57609533
H       -2.64238386      -0.96316873      -0.12058614
H        1.13569376       1.25254406       0.50526349
10
Frame=9 idx=002387 GeodesicLength=0.43432849791664696 rxn_smarts="[N:1]([c:2]1[n:3][n:4]([H:9])[n:5][c:6]1[H:10])([H:7])[H:8]>>[N+:1]([C:2]1=[C:6]=[N:5][N:4]([H:9])[N-:3]1)([H:7])([H:8])[H:10]"
N        1.61000422       0.02247768       0.01979862
C        0.20473668      -0.06938335      -0.27028785
N       -0.61638381      -1.09758737      -0.28731783
N       -1.76167256      -0.47696747      -0.05685944
N       -1.69220656       0.81260033       0.24969837
C       -0.38854267       1.11815937       0.18535140
H        2.17945165       0.14523790      -0.80954356
H        1.97694751      -0.75281821       0.56028481
H       -2.63855025      -0.96611678      -0.10896554
H        1.12621579       1.26439790       0.51784102
10
Frame=10 idx=002387 GeodesicLength=0.4822865219596944 rxn_smarts="[N:1]([c:2]1[n:3][n:4]([H:9])[n:5][c:6]1[H:10])([H:7])[H:8]>>[N+:1]([C:2]1=[C:6]=[N:5][N:4]([H:9])[N-:3]1)([H:7])([H:8])[H:10]"
N        1.60900393       0.01782023       0.02388891
C        0.20691258      -0.06720505      -0.28329799
N       -0.61227887      -1.09759557      -0.27766435
N       -1.75894076      -0.47709390      -0.05449392
N       -1.69026820       0.81389827       0.24245501
C       -0.38765338       1.12204823       0.17218724
H        2.18389498       0.15529300      -0.79928681
H        1.96762538      -0.77513774       0.54396162
H       -2.63477824      -0.96880680      -0.09750384
H        1.11648257       1.27677933       0.52975413
10
Frame=11 idx=002387 GeodesicLength=0.530322725553164 rxn_smarts="[N:1]([c:2]1[n:3][n:4]([H:9])[n:5][c:6]1[H:10])([H:7])[H:8]>>[N+:1]([C:2]1=[C:6]=[N:5][N:4]([H:9])[N-:3]1)([H:7])([H:8])[H:10]"
N        1.60796635       0.01280557       0.02809210
C        0.20914192      -0.06550856      -0.29553106
N       -0.60825255      -1.09737953      -0.26819427
N       -1.75624793      -0.47716425      -0.05222414
N       -1.68833521       0.81523213       0.23499372
C       -0.38669490       1.12561742       0.15946642
H        2.18802198       0.16497621      -0.78875469
H        1.95896843      -0.79694055       0.52705413
H       -2.63104677      -0.97127464      -0.08625838
H        1.10647867       1.28963621       0.54135616
10
Frame=12 idx=002387 GeodesicLength=0.5782021255275693 rxn_smarts="[N:1]([c:2]1[n:3][n:4]([H:9])[n:5][c:6]1[H:10])([H:7])[H:8]>>[N+:1]([C:2]1=[C:6]=[N:5][N:4]([H:9])[N-:3]1)([H:7])([H:8])[H:10]"
N        1.60701091       0.00752063       0.03232658
C        0.21145460      -0.06429263      -0.30664724
N       -0.60424575      -1.09726601      -0.25818434
N       -1.75359781      -0.47723963      -0.04986435
N       -1.68628775       0.81627766       0.22846327
C       -0.38563671       1.12886216       0.14741442
H        2.19168459       0.17408751      -0.77830976
H        1.95087061      -0.81805342       0.50984470
H       -2.62751463      -0.97317905      -0.07680895
H        1.09626195       1.30328278       0.55176568
10
Frame=13 idx=002387 GeodesicLength=0.6260902395288006 rxn_smarts="[N:1]([c:2]1[n:3][n:4]([H:9])[n:5][c:6]1[H:10])([H:7])[H:8]>>[N+:1]([C:2]1=[C:6]=[N:5][N:4]([H:9])[N-:3]1)([H:7])([H:8])[H:10]"
N        1.60611110       0.00196324       0.03647388
C        0.21373261      -0.06367396      -0.31666931
N       -0.60026574      -1.09730830      -0.24711193
N       -1.75095241      -0.47752061      -0.04644970
N       -1.68415650       0.81708061       0.22289674
C       -0.38452705       1.13175474       0.13593894
H        2.19479294       0.18262067      -0.76813942
H        1.94364264      -0.83840660       0.49226002
H       -2.62436520      -0.97433076      -0.07028727
H        1.08598762       1.31782095       0.56108805
10
Frame=14 idx=002387 GeodesicLength=0.6739425956584225 rxn_smarts="[N:1]([c:2]1[n:3][n:4]([H:9])[n:5][c:6]1[H:10])([H:7])[H:8]>>[N+:1]([C:2]1=[C:6]=[N:5][N:4]([H:9])[N-:3]1)([H:7])([H:8])[H:10]"
N        1.60525604      -0.00392637       0.04067302
C        0.21603381      -0.06348057      -0.32588769
N       -0.59633298      -1.09734659      -0.23563271
N       -1.74832586      -0.47784431      -0.04260189
N       -1.68196943       0.81778738       0.21771314
C       -0.38333994       1.13437809       0.12490968
H        2.19756544       0.19078818      -0.75789736
H        1.93699138      -0.85830003       0.47418222
H       -2.62141096      -0.97511483      -0.06514908
H        1.07553250       1.33305905       0.56969067
10
Frame=15 idx=002387 GeodesicLength=0.72177691071965 rxn_smarts="[N:1]([c:2]1[n:3][n:4]([H:9])[n:5][c:6]1[H:10])([H:7])[H:8]>>[N+:1]([C:2]1=[C:6]=[N:5][N:4]([H:9])[N-:3]1)([H:7])([H:8])[H:10]"
N        1.60442454      -0.01019264       0.04497890
C        0.21838011      -0.06363389      -0.33448832
N       -0.59245696      -1.09730783      -0.22407036
N       -1.74572203      -0.47813460      -0.03864185
N       -1.67973533       0.81846500       0.21262747
C       -0.38206586       1.13676864       0.11422528
H        2.20011784       0.19871392      -0.74738560
H        1.93078059      -0.87788962       0.45555263
H       -2.61855883      -0.97570393      -0.06059048
H        1.06483593       1.34891495       0.57779233
10
Frame=16 idx=002387 GeodesicLength=0.769599423958487 rxn_smarts="[N:1]([c:2]1[n:3][n:4]([H:9])[n:5][c:6]1[H:10])([H:7])[H:8]>>[N+:1]([C:2]1=[C:6]=[N:5][N:4]([H:9])[N-:3]1)([H:7])([H:8])[H:10]"
N        1.60361618      -0.01685841       0.04940010
C        0.22077177      -0.06411055      -0.34253031
N       -0.58863761      -1.09718935      -0.21243979
N       -1.74313973      -0.47838689      -0.03456612
N       -1.67746279       0.81913864       0.20753325
C       -0.38070020       1.13893886       0.10385356
H        2.20247982       0.20645302      -0.73654490
H        1.92497566      -0.89723589       0.43630904
H       -2.61578277      -0.97612660      -0.05647599
H        1.05387967       1.36537716       0.58546116
