13
Frame=0 idx=009769 GeodesicLength=0.0 rxn_smarts="[O:1]([C:2]([C:3]#[C:4][C:5]([C:6](=[O:7])[H:13])([H:11])[H:12])([H:9])[H:10])[H:8]>>[O:1]([C+:2]([C:3](=[C-:4][C:5]([C:6](=[O:7])[H:13])([H:11])[H:12])[H:10])[H:9])[H:8]"
O        1.72066793       1.34915405      -0.92210216
C        1.85256871       0.65727602       0.19607769
C        1.07512752      -0.44495315       0.50173701
C        0.11668544      -1.28553001       0.28689628
C       -1.31314793      -0.89799632       0.44437546
C       -1.74986555       0.22460686      -0.46023955
O       -1.03446683       0.93230737      -1.12606729
H        0.81807929       1.16987736      -1.26111662
H        2.67017420       0.98365298       0.82843153
H        2.24994973      -0.78144744       0.30248811
H       -1.54881998      -0.56091456       1.46407391
H       -2.01134126      -1.72165435       0.25169189
H       -2.84561130       0.37562118      -0.50624629
13
Frame=1 idx=009769 GeodesicLength=0.06951255251439598 rxn_smarts="[O:1]([C:2]([C:3]#[C:4][C:5]([C:6](=[O:7])[H:13])([H:11])[H:12])([H:9])[H:10])[H:8]>>[O:1]([C+:2]([C:3](=[C-:4][C:5]([C:6](=[O:7])[H:13])([H:11])[H:12])[H:10])[H:9])[H:8]"
O        1.72788563       1.36117514      -0.90322061
C        1.87374397       0.63626208       0.19369403
C        1.08594534      -0.46339014       0.48966659
C        0.10682395      -1.27977275       0.27700924
C       -1.31612626      -0.87837853       0.45858949
C       -1.76715068       0.20771690      -0.48200737
O       -1.06672856       0.98173364      -1.08665329
H        0.81560833       1.20958839      -1.22969916
H        2.68324140       0.95718160       0.83952245
H        2.26643059      -0.80100463       0.26273409
H       -1.52893651      -0.50318209       1.46959554
H       -2.01549393      -1.71057569       0.31329697
H       -2.86524327       0.28264607      -0.60252796
13
Frame=2 idx=009769 GeodesicLength=0.13723758075405212 rxn_smarts="[O:1]([C:2]([C:3]#[C:4][C:5]([C:6](=[O:7])[H:13])([H:11])[H:12])([H:9])[H:10])[H:8]>>[O:1]([C+:2]([C:3](=[C-:4][C:5]([C:6](=[O:7])[H:13])([H:11])[H:12])[H:10])[H:9])[H:8]"
O        1.73203494       1.37144824      -0.88541246
C        1.89261100       0.61539706       0.18973269
C        1.09581593      -0.48185785       0.47832048
C        0.09649922      -1.27417318       0.27100289
C       -1.31939708      -0.85857207       0.47292924
C       -1.78080263       0.19308007      -0.50050823
O       -1.10271726       1.02997207      -1.04320527
H        0.81072552       1.24657549      -1.19736146
H        2.69424046       0.93159900       0.84796882
H        2.28152713      -0.81913777       0.22215571
H       -1.51125413      -0.44810194       1.47395579
H       -2.01952420      -1.69627666       0.37078357
H       -2.86975891       0.19004755      -0.70036177
13
Frame=3 idx=009769 GeodesicLength=0.20501972730472545 rxn_smarts="[O:1]([C:2]([C:3]#[C:4][C:5]([C:6](=[O:7])[H:13])([H:11])[H:12])([H:9])[H:10])[H:8]>>[O:1]([C+:2]([C:3](=[C-:4][C:5]([C:6](=[O:7])[H:13])([H:11])[H:12])[H:10])[H:9])[H:8]"
O        1.73308633       1.38200014      -0.86651585
C        1.90956181       0.59477184       0.18515261
C        1.10487511      -0.50076441       0.46690592
C        0.08589789      -1.26918872       0.26751020
C       -1.32279921      -0.83850882       0.48703346
C       -1.79189164       0.18055436      -0.51661214
O       -1.14244658       1.07196311      -1.00448321
H        0.80371606       1.28213817      -1.16303771
H        2.70344971       0.90602902       0.85550816
H        2.29558901      -0.83594858       0.18026564
H       -1.49443608      -0.39480476       1.47709775
H       -2.02394046      -1.67904484       0.42512949
H       -2.86066196       0.10080350      -0.79395432
13
Frame=4 idx=009769 GeodesicLength=0.27309576947442477 rxn_smarts="[O:1]([C:2]([C:3]#[C:4][C:5]([C:6](=[O:7])[H:13])([H:11])[H:12])([H:9])[H:10])[H:8]>>[O:1]([C+:2]([C:3](=[C-:4][C:5]([C:6](=[O:7])[H:13])([H:11])[H:12])[H:10])[H:9])[H:8]"
O        1.73134076       1.39306789      -0.84588108
C        1.92484087       0.57420017       0.17999685
C        1.11299062      -0.52002732       0.45511119
C        0.07481583      -1.26445163       0.26613812
C       -1.32631694      -0.81771798       0.50124701
C       -1.80150012       0.16988801      -0.53040689
O       -1.18577382       1.10873406      -0.97033287
H        0.79474006       1.31690420      -1.12588709
H        2.71168321       0.87937100       0.86186893
H        2.30808442      -0.85165307       0.13613339
H       -1.47795515      -0.34230179       1.47940609
H       -2.02876427      -1.65878416       0.47750662
H       -2.83818547       0.01277061      -0.88490026
13
Frame=5 idx=009769 GeodesicLength=0.34123441124691434 rxn_smarts="[O:1]([C:2]([C:3]#[C:4][C:5]([C:6](=[O:7])[H:13])([H:11])[H:12])([H:9])[H:10])[H:8]>>[O:1]([C+:2]([C:3](=[C-:4][C:5]([C:6](=[O:7])[H:13])([H:11])[H:12])[H:10])[H:9])[H:8]"
O        1.72793697       1.40272706      -0.82606130
C        1.93817435       0.55409082       0.17381785
C        1.12003030      -0.53925706       0.44343635
C        0.06346499      -1.25996283       0.26657767
C       -1.33012005      -0.79710401       0.51529246
C       -1.81047378       0.16152207      -0.54099810
O       -1.23192838       1.14192200      -0.93850528
H        0.78473751       1.34944257      -1.08836520
H        2.71784562       0.85365392       0.86692555
H        2.31942235      -0.86578363       0.09238614
H       -1.46237858      -0.29294765       1.48143078
H       -2.03394950      -1.63697948       0.52606900
H       -2.80276180      -0.07132377      -0.97200592
13
Frame=6 idx=009769 GeodesicLength=0.4093806056790265 rxn_smarts="[O:1]([C:2]([C:3]#[C:4][C:5]([C:6](=[O:7])[H:13])([H:11])[H:12])([H:9])[H:10])[H:8]>>[O:1]([C+:2]([C:3](=[C-:4][C:5]([C:6](=[O:7])[H:13])([H:11])[H:12])[H:10])[H:9])[H:8]"
O        1.72331472       1.41147553      -0.80606369
C        1.94992574       0.53433098       0.16718346
C        1.12626938      -0.55870536       0.43137086
C        0.05216885      -1.25590277       0.26825058
C       -1.33383840      -0.77671605       0.52853857
C       -1.81899994       0.15322289      -0.55098766
O       -1.28034709       1.16954879      -0.91246537
H        0.77397612       1.38121132      -1.04873472
H        2.72207322       0.82831958       0.87163054
H        2.32993364      -0.87840821       0.04862492
H       -1.44706832      -0.24496698       1.48185498
H       -2.03905219      -1.61404167       0.57193042
H       -2.75835574      -0.14936804      -1.05113289
13
Frame=7 idx=009769 GeodesicLength=0.47793759871424435 rxn_smarts="[O:1]([C:2]([C:3]#[C:4][C:5]([C:6](=[O:7])[H:13])([H:11])[H:12])([H:9])[H:10])[H:8]>>[O:1]([C+:2]([C:3](=[C-:4][C:5]([C:6](=[O:7])[H:13])([H:11])[H:12])[H:10])[H:9])[H:8]"
O        1.71742324       1.41946947      -0.78577373
C        1.96035425       0.51485214       0.16004621
C        1.13179671      -0.57833198       0.41908849
C        0.04090445      -1.25214502       0.27136990
C       -1.33753671      -0.75634302       0.54116320
C       -1.82730956       0.14489639      -0.56056789
O       -1.33126674       1.19303619      -0.89070789
H        0.76248693       1.41202094      -1.00691498
H        2.72524270       0.80290477       0.87547032
H        2.33951795      -0.88972581       0.00450344
H       -1.43210689      -0.19789312       1.48080354
H       -2.04412948      -1.59001629       0.61556840
H       -2.70537685      -0.22272465      -1.12404901
13
Frame=8 idx=009769 GeodesicLength=0.5473747191098954 rxn_smarts="[O:1]([C:2]([C:3]#[C:4][C:5]([C:6](=[O:7])[H:13])([H:11])[H:12])([H:9])[H:10])[H:8]>>[O:1]([C+:2]([C:3](=[C-:4][C:5]([C:6](=[O:7])[H:13])([H:11])[H:12])[H:10])[H:9])[H:8]"
O        1.70976326       1.42896796      -0.76118931
C        1.97026399       0.49514568       0.15319806
C        1.13708212      -0.59871494       0.40581218
C        0.02978857      -1.24869205       0.27611413
C       -1.34076704      -0.73484037       0.55289019
C       -1.83524715       0.13417772      -0.57259886
O       -1.38484136       1.20983817      -0.87854596
H        0.74964017       1.44459269      -0.95759145
H        2.72966392       0.77434030       0.87862990
H        2.34761650      -0.89995305      -0.04368373
H       -1.41642906      -0.14768097       1.47625369
H       -2.04881485      -1.56342327       0.65975891
H       -2.64771909      -0.29375788      -1.18904775
13
Frame=9 idx=009769 GeodesicLength=0.6168201341647127 rxn_smarts="[O:1]([C:2]([C:3]#[C:4][C:5]([C:6](=[O:7])[H:13])([H:11])[H:12])([H:9])[H:10])[H:8]>>[O:1]([C+:2]([C:3](=[C-:4][C:5]([C:6](=[O:7])[H:13])([H:11])[H:12])[H:10])[H:9])[H:8]"
O        1.70129722       1.43584441      -0.73902356
C        1.97854718       0.47604604       0.14535609
C        1.14164775      -0.61888751       0.39314164
C        0.01906556      -1.24547428       0.28235340
C       -1.34399407      -0.71408612       0.56378130
C       -1.84263316       0.12421108      -0.58328558
O       -1.44041480       1.22497951      -0.86617788
H        0.73689968       1.47371289      -0.90927591
H        2.73202012       0.74779821       0.88048902
H        2.35528870      -0.90859468      -0.08948475
H       -1.40178486      -0.10056585       1.47083330
H       -2.05331666      -1.53696399       0.69997278
H       -2.58262266      -0.35801971      -1.24867985
13
Frame=10 idx=009769 GeodesicLength=0.6871252892479023 rxn_smarts="[O:1]([C:2]([C:3]#[C:4][C:5]([C:6](=[O:7])[H:13])([H:11])[H:12])([H:9])[H:10])[H:8]>>[O:1]([C+:2]([C:3](=[C-:4][C:5]([C:6](=[O:7])[H:13])([H:11])[H:12])[H:10])[H:9])[H:8]"
O        1.69081439       1.44427936      -0.71178621
C        1.98644486       0.45665955       0.13774973
C        1.14622939      -0.63994957       0.37955977
C        0.00875889      -1.24247531       0.29066261
C       -1.34653731      -0.69190300       0.57357303
C       -1.84914730       0.11144356      -0.59683220
O       -1.49823553       1.23361392      -0.86320693
H        0.72279209       1.50425990      -0.85195847
H        2.73641605       0.71768447       0.88107408
H        2.36119697      -0.91580971      -0.14009418
H       -1.38626320      -0.04969392       1.46117154
H       -2.05726322      -1.50745475       0.74098208
H       -2.51520608      -0.42065449      -1.30089486
13
Frame=11 idx=009769 GeodesicLength=0.757637328957143 rxn_smarts="[O:1]([C:2]([C:3]#[C:4][C:5]([C:6](=[O:7])[H:13])([H:11])[H:12])([H:9])[H:10])[H:8]>>[O:1]([C+:2]([C:3](=[C-:4][C:5]([C:6](=[O:7])[H:13])([H:11])[H:12])[H:10])[H:9])[H:8]"
O        1.67935031       1.45099144      -0.68529412
C        1.99303631       0.43779116       0.12955438
C        1.15041349      -0.66107132       0.36637835
C       -0.00092201      -1.23969460       0.30060354
C       -1.34878009      -0.67007906       0.58236739
C       -1.85465292       0.09864431      -0.61005993
O       -1.55788981       1.23974679      -0.86136782
H        0.70888900       1.53150905      -0.79442549
H        2.73968795       0.68864200       0.88049841
H        2.36652836      -0.92131748      -0.18955003
H       -1.37124604      -0.00052546       1.44981198
H       -2.06085323      -1.47759000       0.77902234
H       -2.44356132      -0.47704684      -1.34753900
13
Frame=12 idx=009769 GeodesicLength=0.8286096792307408 rxn_smarts="[O:1]([C:2]([C:3]#[C:4][C:5]([C:6](=[O:7])[H:13])([H:11])[H:12])([H:9])[H:10])[H:8]>>[O:1]([C+:2]([C:3](=[C-:4][C:5]([C:6](=[O:7])[H:13])([H:11])[H:12])[H:10])[H:9])[H:8]"
O        1.66661966       1.45704906      -0.65753889
C        1.99861438       0.41922309       0.12105794
C        1.15437011      -0.68252503       0.35318308
C       -0.00995851      -1.23704584       0.31244748
C       -1.35054738      -0.64803789       0.59018015
C       -1.85897668       0.08500531      -0.62384899
O       -1.61943705       1.24213926      -0.86262748
H        0.69486937       1.55651388      -0.73433977
H        2.74295360       0.65921092       0.87866046
H        2.37080002      -0.92507539      -0.23977666
H       -1.35621853       0.04864004       1.43595318
H       -2.06403386      -1.44649391       0.81539390
H       -2.36905514      -0.52860351      -1.38874441
13
Frame=13 idx=009769 GeodesicLength=0.8999738851116015 rxn_smarts="[O:1]([C:2]([C:3]#[C:4][C:5]([C:6](=[O:7])[H:13])([H:11])[H:12])([H:9])[H:10])[H:8]>>[O:1]([C+:2]([C:3](=[C-:4][C:5]([C:6](=[O:7])[H:13])([H:11])[H:12])[H:10])[H:9])[H:8]"
O        1.65310633       1.46179705      -0.62986377
C        2.00306598       0.40111561       0.11220697
C        1.15799525      -0.70411098       0.34016703
C       -0.01830571      -1.23444165       0.32589901
C       -1.35191632      -0.62620463       0.59710264
C       -1.86212997       0.07118989      -0.63745667
O       -1.68303173       1.24149069      -0.86491258
H        0.68127303       1.57831243      -0.67432259
H        2.74545268       0.63039402       0.87588559
H        2.37439378      -0.92716346      -0.28927053
H       -1.34140480       0.09662364       1.42028542
H       -2.06684021      -1.41489895       0.84946704
H       -2.29165828      -0.57410368      -1.42518758
13
Frame=14 idx=009769 GeodesicLength=0.9720010538524215 rxn_smarts="[O:1]([C:2]([C:3]#[C:4][C:5]([C:6](=[O:7])[H:13])([H:11])[H:12])([H:9])[H:10])[H:8]>>[O:1]([C+:2]([C:3](=[C-:4][C:5]([C:6](=[O:7])[H:13])([H:11])[H:12])[H:10])[H:9])[H:8]"
O        1.63861944       1.46593179      -0.60072048
C        2.00659104       0.38328173       0.10314198
C        1.16136008      -0.72601811       0.32701598
C       -0.02595690      -1.23175268       0.34123911
C       -1.35274612      -0.60409419       0.60315166
C       -1.86395047       0.05664790      -0.65147075
O       -1.74878956       1.23674338      -0.86967113
H        0.66782535       1.59774388      -0.61230230
H        2.74807396       0.60105132       0.87193992
H        2.37676937      -0.92747891      -0.33952676
H       -1.32639194       0.14471730       1.40211040
H       -2.06923073      -1.38201422       0.88217568
H       -2.21217353      -0.61475919      -1.45708330
13
Frame=15 idx=009769 GeodesicLength=1.0447304930233872 rxn_smarts="[O:1]([C:2]([C:3]#[C:4][C:5]([C:6](=[O:7])[H:13])([H:11])[H:12])([H:9])[H:10])[H:8]>>[O:1]([C+:2]([C:3](=[C-:4][C:5]([C:6](=[O:7])[H:13])([H:11])[H:12])[H:10])[H:9])[H:8]"
O        1.62360494       1.46901869      -0.57110831
C        2.00914909       0.36579137       0.09378502
C        1.16429910      -0.74802483       0.31395635
C       -0.03293965      -1.22881204       0.35837683
C       -1.35318366      -0.58199739       0.60850427
C       -1.86459565       0.04185950      -0.66530810
O       -1.81706492       1.22814960      -0.87536451
H        0.65492562       1.61435252      -0.55017592
H        2.75047290       0.57176040       0.86689547
H        2.37801120      -0.92621010      -0.38954167
H       -1.31150438       0.19213394       1.38202607
H       -2.07128350      -1.34842830       0.91316404
H       -2.12989109      -0.64959339      -1.48520953
13
Frame=16 idx=009769 GeodesicLength=1.1176673625419566 rxn_smarts="[O:1]([C:2]([C:3]#[C:4][C:5]([C:6](=[O:7])[H:13])([H:11])[H:12])([H:9])[H:10])[H:8]>>[O:1]([C+:2]([C:3](=[C-:4][C:5]([C:6](=[O:7])[H:13])([H:11])[H:12])[H:10])[H:9])[H:8]"
O        1.60919936       1.46971766      -0.54442903
C        2.01076818       0.34880890       0.08413183
C        1.16668636      -0.76974752       0.30133397
C       -0.03923543      -1.22554762       0.37601565
C       -1.35339776      -0.56083817       0.61320343
C       -1.86447193       0.02790771      -0.67786196
O       -1.88831365       1.21655156      -0.87879047
H        0.64367493       1.62752167      -0.49243594
H        2.75085087       0.54461659       0.86197894
H        2.37970222      -0.92415916      -0.43580720
H       -1.29713638       0.23673222       1.36130184
H       -2.07292002      -1.31583102       0.94135660
H       -2.04540675      -0.67573283      -1.50999763
