11
Frame=0 idx=005434 GeodesicLength=0.0 rxn_smarts="[C:1]([N:2]([C:3](=[O:4])[C:5](=[O:6])[H:11])[H:10])([H:7])([H:8])[H:9]>>[C:1]([O:4]/[C:3](=[N:2]/[H:10])[C:5](=[O:6])[H:11])([H:7])([H:8])[H:9]"
C       -1.43746424       1.21514398       0.08636605
N        0.64545171       0.73742908      -0.03490412
C        0.30879884      -0.49781283       0.01983876
O       -0.91163584      -0.77781660       0.14155872
C        1.30385123      -1.64450164      -0.06509896
O        2.48035658      -1.47454936      -0.20368282
H       -2.20389172       0.79332096       0.71886818
H       -1.01657584       2.13731239       0.45107465
H       -1.64450632       1.18939359      -0.97265876
H        1.62532017       0.97047415      -0.15084891
H        0.85029542      -2.64839372       0.00948723
11
Frame=1 idx=005434 GeodesicLength=0.03328043990396849 rxn_smarts="[C:1]([N:2]([C:3](=[O:4])[C:5](=[O:6])[H:11])[H:10])([H:7])([H:8])[H:9]>>[C:1]([O:4]/[C:3](=[N:2]/[H:10])[C:5](=[O:6])[H:11])([H:7])([H:8])[H:9]"
C       -1.42674535       1.20854826       0.08391743
N        0.64095739       0.73724890      -0.03342472
C        0.30996518      -0.49872216       0.05658773
O       -0.91267302      -0.77961718       0.16316723
C        1.30182221      -1.64276994      -0.08190723
O        2.47909102      -1.46699963      -0.20747465
H       -2.21766553       0.79519227       0.69226441
H       -1.02253709       2.13000167       0.47134531
H       -1.62433244       1.20163829      -0.97796479
H        1.61939683       0.96276682      -0.17680604
H        0.85272078      -2.64728731       0.01029532
11
Frame=2 idx=005434 GeodesicLength=0.06677200778065893 rxn_smarts="[C:1]([N:2]([C:3](=[O:4])[C:5](=[O:6])[H:11])[H:10])([H:7])([H:8])[H:9]>>[C:1]([O:4]/[C:3](=[N:2]/[H:10])[C:5](=[O:6])[H:11])([H:7])([H:8])[H:9]"
C       -1.41602471       1.20186971       0.08199846
N        0.63653722       0.73680898      -0.03190770
C        0.31092021      -0.49949785       0.08629367
O       -0.91358965      -0.78130859       0.18022736
C        1.30037736      -1.64044309      -0.08861392
O        2.47651423      -1.45975380      -0.21844377
H       -2.23033520       0.79522628       0.66427386
H       -1.02869176       2.12080929       0.49432371
H       -1.60398458       1.21726707      -0.98231168
H        1.61281501       0.95466630      -0.20204945
H        0.85546188      -2.64564430       0.01620946
11
Frame=3 idx=005434 GeodesicLength=0.10016031914239035 rxn_smarts="[C:1]([N:2]([C:3](=[O:4])[C:5](=[O:6])[H:11])[H:10])([H:7])([H:8])[H:9]>>[C:1]([O:4]/[C:3](=[N:2]/[H:10])[C:5](=[O:6])[H:11])([H:7])([H:8])[H:9]"
C       -1.40553810       1.19534874       0.08115099
N        0.63181474       0.73621635      -0.03426852
C        0.31139820      -0.50019690       0.10834636
O       -0.91459613      -0.78295431       0.19380558
C        1.29929770      -1.63819483      -0.09243049
O        2.47451625      -1.45266762      -0.22473743
H       -2.24082193       0.79449442       0.63808520
H       -1.03428644       2.11030397       0.51877449
H       -1.58601959       1.23539345      -0.98458478
H        1.60589831       0.94624301      -0.22763713
H        0.85833699      -2.64398628       0.02349572
11
Frame=4 idx=005434 GeodesicLength=0.13353256147434886 rxn_smarts="[C:1]([N:2]([C:3](=[O:4])[C:5](=[O:6])[H:11])[H:10])([H:7])([H:8])[H:9]>>[C:1]([O:4]/[C:3](=[N:2]/[H:10])[C:5](=[O:6])[H:11])([H:7])([H:8])[H:9]"
C       -1.39525717       1.18887012       0.08049305
N        0.62709646       0.73561674      -0.03738082
C        0.31181174      -0.50072990       0.12735789
O       -0.91546552      -0.78444982       0.20707959
C        1.29832071      -1.63594118      -0.09488046
O        2.47260117      -1.44569290      -0.22995966
H       -2.25004518       0.79368666       0.61232900
H       -1.03999510       2.09908180       0.54293765
H       -1.56884783       1.25422082      -0.98594233
H        1.59864982       0.93759018      -0.25278059
H        0.86113090      -2.64225252       0.03074668
11
Frame=5 idx=005434 GeodesicLength=0.1669085286372745 rxn_smarts="[C:1]([N:2]([C:3](=[O:4])[C:5](=[O:6])[H:11])[H:10])([H:7])([H:8])[H:9]>>[C:1]([O:4]/[C:3](=[N:2]/[H:10])[C:5](=[O:6])[H:11])([H:7])([H:8])[H:9]"
C       -1.38517321       1.18241334       0.07972412
N        0.62242103       0.73502229      -0.04038838
C        0.31224875      -0.50110639       0.14465129
O       -0.91616770      -0.78575138       0.22058939
C        1.29731827      -1.63367553      -0.09671742
O        2.47044411      -1.43883656      -0.23617253
H       -2.25832348       0.79289147       0.58633392
H       -1.04609456       2.08718683       0.56657529
H       -1.55183898       1.27347805      -0.98672746
H        1.59118809       0.92880541      -0.27672127
H        0.86397768      -2.64042753       0.03885306
11
Frame=6 idx=005434 GeodesicLength=0.2003195685762 rxn_smarts="[C:1]([N:2]([C:3](=[O:4])[C:5](=[O:6])[H:11])[H:10])([H:7])([H:8])[H:9]>>[C:1]([O:4]/[C:3](=[N:2]/[H:10])[C:5](=[O:6])[H:11])([H:7])([H:8])[H:9]"
C       -1.37526594       1.17595250       0.07874756
N        0.61786490       0.73449046      -0.04299270
C        0.31277010      -0.50131999       0.16085296
O       -0.91670523      -0.78684590       0.23463712
C        1.29617170      -1.63142029      -0.09837533
O        2.46795322      -1.43210343      -0.24371770
H       -2.26579413       0.79210357       0.55991806
H       -1.05268618       2.07467651       0.58959872
H       -1.53475715       1.29300681      -0.98708474
H        1.58355260       0.91995014      -0.29943676
H        0.86689611      -2.63849038       0.04785281
11
Frame=7 idx=005434 GeodesicLength=0.23377387671665517 rxn_smarts="[C:1]([N:2]([C:3](=[O:4])[C:5](=[O:6])[H:11])[H:10])([H:7])([H:8])[H:9]>>[C:1]([O:4]/[C:3](=[N:2]/[H:10])[C:5](=[O:6])[H:11])([H:7])([H:8])[H:9]"
C       -1.36551248       1.16948520       0.07750226
N        0.61348541       0.73405725      -0.04485319
C        0.31341582      -0.50138024       0.17640538
O       -0.91707242      -0.78771369       0.24934733
C        1.29482659      -1.62919205      -0.09999221
O        2.46500040      -1.42552000      -0.25309586
H       -2.27256959       0.79127011       0.53278237
H       -1.05991894       2.06153669       0.61206804
H       -1.51732420       1.31283113      -0.98707417
H        1.57571730       0.91106002      -0.32105012
H        0.86995211      -2.63643443       0.05796016
11
Frame=8 idx=005434 GeodesicLength=0.26732678022891515 rxn_smarts="[C:1]([N:2]([C:3](=[O:4])[C:5](=[O:6])[H:11])[H:10])([H:7])([H:8])[H:9]>>[C:1]([O:4]/[C:3](=[N:2]/[H:10])[C:5](=[O:6])[H:11])([H:7])([H:8])[H:9]"
C       -1.35585625       1.16301377       0.07603278
N        0.60932945       0.73374177      -0.04569234
C        0.31418856      -0.50130599       0.19151811
O       -0.91727544      -0.78834346       0.26455312
C        1.29325386      -1.62698783      -0.10157212
O        2.46151522      -1.41907535      -0.26422117
H       -2.27865691       0.79027112       0.50468024
H       -1.06787586       2.04764901       0.63421155
H       -1.49931104       1.33318306      -0.98659683
H        1.56747493       0.90208051      -0.34221316
H        0.87321349      -2.63422661       0.06929982
11
Frame=9 idx=005434 GeodesicLength=0.30091063659831624 rxn_smarts="[C:1]([N:2]([C:3](=[O:4])[C:5](=[O:6])[H:11])[H:10])([H:7])([H:8])[H:9]>>[C:1]([O:4]/[C:3](=[N:2]/[H:10])[C:5](=[O:6])[H:11])([H:7])([H:8])[H:9]"
C       -1.34634884       1.15652988       0.07434919
N        0.60525755       0.73350742      -0.04664585
C        0.31508523      -0.50105205       0.20595018
O       -0.91729362      -0.78870954       0.28042828
C        1.29150582      -1.62479329      -0.10315026
O        2.45774262      -1.41280165      -0.27564328
H       -2.28376334       0.78923822       0.47654906
H       -1.07628867       2.03328379       0.65543874
H       -1.48149858       1.35358033      -0.98558211
H        1.55919320       0.89310461      -0.36229607
H        0.87640863      -2.63188773       0.08060212
11
Frame=10 idx=005434 GeodesicLength=0.33452523380794286 rxn_smarts="[C:1]([N:2]([C:3](=[O:4])[C:5](=[O:6])[H:11])[H:10])([H:7])([H:8])[H:9]>>[C:1]([O:4]/[C:3](=[N:2]/[H:10])[C:5](=[O:6])[H:11])([H:7])([H:8])[H:9]"
C       -1.33695535       1.15004777       0.07247364
N        0.60133679       0.73337896      -0.04735446
C        0.31612267      -0.50063388       0.21992190
O       -0.91713591      -0.78880510       0.29687768
C        1.28958110      -1.62261724      -0.10469950
O        2.45365194      -1.40670107      -0.28749362
H       -2.28798670       0.78806627       0.44812738
H       -1.08524722       2.01839527       0.67593285
H       -1.46366275       1.37420703      -0.98398531
H        1.55071282       0.88409169      -0.38182449
H        0.87958261      -2.62942969       0.09202394
11
Frame=11 idx=005434 GeodesicLength=0.36819926643973655 rxn_smarts="[C:1]([N:2]([C:3](=[O:4])[C:5](=[O:6])[H:11])[H:10])([H:7])([H:8])[H:9]>>[C:1]([O:4]/[C:3](=[N:2]/[H:10])[C:5](=[O:6])[H:11])([H:7])([H:8])[H:9]"
C       -1.32764873       1.14357073       0.07036889
N        0.59759818       0.73337864      -0.04763280
C        0.31730302      -0.50005985       0.23356824
O       -0.91680801      -0.78862064       0.31382719
C        1.28742595      -1.62048112      -0.10626117
O        2.44908985      -1.40080009      -0.30035288
H       -2.29137494       0.78667952       0.41917693
H       -1.09486347       2.00291788       0.69580023
H       -1.44561172       1.39517700      -0.98180304
H        1.54203455       0.87506700      -0.40073462
H        0.88285533      -2.62682907       0.10404303
11
Frame=12 idx=005434 GeodesicLength=0.4019650599040151 rxn_smarts="[C:1]([N:2]([C:3](=[O:4])[C:5](=[O:6])[H:11])[H:10])([H:7])([H:8])[H:9]>>[C:1]([O:4]/[C:3](=[N:2]/[H:10])[C:5](=[O:6])[H:11])([H:7])([H:8])[H:9]"
C       -1.31840209       1.13710252       0.06802738
N        0.59406060       0.73350994      -0.04747160
C        0.31861744      -0.49933546       0.24692496
O       -0.91632872      -0.78814691       0.33115139
C        1.28501120      -1.61839642      -0.10784741
O        2.44395647      -1.39511998      -0.31443600
H       -2.29393223       0.78502528       0.38958394
H       -1.10517413       1.98677092       0.71513392
H       -1.42728873       1.41660250      -0.97897800
H        1.53315980       0.86603503      -0.41903488
H        0.88632040      -2.62404741       0.11694631
11
Frame=13 idx=005434 GeodesicLength=0.43580413870388457 rxn_smarts="[C:1]([N:2]([C:3](=[O:4])[C:5](=[O:6])[H:11])[H:10])([H:7])([H:8])[H:9]>>[C:1]([O:4]/[C:3](=[N:2]/[H:10])[C:5](=[O:6])[H:11])([H:7])([H:8])[H:9]"
C       -1.30920277       1.13064023       0.06543933
N        0.59072836       0.73378447      -0.04690450
C        0.32008301      -0.49845148       0.26007070
O       -0.91567746      -0.78735963       0.34895016
C        1.28231308      -1.61636345      -0.10949225
O        2.43822507      -1.38968426      -0.32964029
H       -2.29560533       0.78308440       0.35945660
H       -1.11618875       1.97006205       0.73373463
H       -1.40877473       1.43833586      -0.97549481
H        1.52415865       0.85703582      -0.43660967
H        0.88994088      -2.62108401       0.13049009
11
Frame=14 idx=005434 GeodesicLength=0.46970015927115677 rxn_smarts="[C:1]([N:2]([C:3](=[O:4])[C:5](=[O:6])[H:11])[H:10])([H:7])([H:8])[H:9]>>[C:1]([O:4]/[C:3](=[N:2]/[H:10])[C:5](=[O:6])[H:11])([H:7])([H:8])[H:9]"
C       -1.30004540       1.12419527       0.06263912
N        0.58757210       0.73418334      -0.04617184
C        0.32169165      -0.49739875       0.27295135
O       -0.91485814      -0.78624704       0.36711735
C        1.27935949      -1.61437390      -0.11115541
O        2.43197580      -1.38449662      -0.34548298
H       -2.29633838       0.78085630       0.32903315
H       -1.12781556       1.95285053       0.75151288
H       -1.39027226       1.46030891      -0.97127719
H        1.51508130       0.84806145      -0.45352861
H        0.89364939      -2.61793948       0.14436219
11
Frame=15 idx=005434 GeodesicLength=0.5036878721654173 rxn_smarts="[C:1]([N:2]([C:3](=[O:4])[C:5](=[O:6])[H:11])[H:10])([H:7])([H:8])[H:9]>>[C:1]([O:4]/[C:3](=[N:2]/[H:10])[C:5](=[O:6])[H:11])([H:7])([H:8])[H:9]"
C       -1.29089680       1.11776779       0.05960907
N        0.58462806       0.73473031      -0.04510965
C        0.32344730      -0.49618081       0.28566492
O       -0.91387240      -0.78479782       0.38563775
C        1.27610301      -1.61243841      -0.11285053
O        2.42505702      -1.37958444      -0.36236043
H       -2.29614193       0.77828439       0.29813521
H       -1.14014509       1.93510841       0.76849672
H       -1.37164929       1.48255674      -0.96630156
H        1.50592803       0.83913631      -0.46975015
H        0.89754209      -2.61458247       0.15882865
11
Frame=16 idx=005434 GeodesicLength=0.5377276687683368 rxn_smarts="[C:1]([N:2]([C:3](=[O:4])[C:5](=[O:6])[H:11])[H:10])([H:7])([H:8])[H:9]>>[C:1]([O:4]/[C:3](=[N:2]/[H:10])[C:5](=[O:6])[H:11])([H:7])([H:8])[H:9]"
C       -1.28176426       1.11138445       0.05643365
N        0.58184200       0.73539187      -0.04411597
C        0.32534500      -0.49477645       0.29811055
O       -0.91271722      -0.78301017       0.40437153
C        1.27264975      -1.61052671      -0.11445677
O        2.41775959      -1.37491428      -0.37917707
H       -2.29496228       0.77540859       0.26720436
H       -1.15297820       1.91695548       0.78458714
H       -1.35325406       1.50496210      -0.96046748
H        1.49668234       0.83019287      -0.48562682
H        0.90139734      -2.61106775       0.17313688
