16
Frame=0 idx=005568 GeodesicLength=0.0 rxn_smarts="[C:1]([C:2]([C:3]1([H:12])[C:4]([H:13])([H:14])[O:5][C:6]1([H:15])[H:16])([H:10])[H:11])([H:7])([H:8])[H:9]>>[C:1]([C:2]([C:3](=[C:6]([H:15])[H:16])[H:12])([H:10])[H:11])([H:7])([H:8])[H:9].[C:4](=[O:5])([H:13])[H:14]"
C        2.14087864       0.56390240       0.09057178
C        0.89594891      -0.01117348      -0.58023955
C       -0.18644273      -0.37900922       0.39663111
C       -1.79916377      -0.79732686      -0.46397205
O       -2.51026491       0.28505999      -0.66286735
C       -1.13016761       0.55614272       0.81275330
H        2.56572238      -0.14528429       0.80451497
H        1.90360533       1.48037331       0.63593848
H        2.91139145       0.80119237      -0.64508835
H        1.17016232      -0.89794703      -1.16003105
H        0.49080520       0.70841109      -1.29835273
H       -0.02383347      -1.24626846       1.02669496
H       -2.16542322      -1.53640942       0.27041554
H       -1.37530517      -1.32016695      -1.34486275
H       -1.76954682       0.36306562       1.66439713
H       -1.11836654       1.57543820       0.45349656
16
Frame=1 idx=005568 GeodesicLength=0.06570800999854501 rxn_smarts="[C:1]([C:2]([C:3]1([H:12])[C:4]([H:13])([H:14])[O:5][C:6]1([H:15])[H:16])([H:10])[H:11])([H:7])([H:8])[H:9]>>[C:1]([C:2]([C:3](=[C:6]([H:15])[H:16])[H:12])([H:10])[H:11])([H:7])([H:8])[H:9].[C:4](=[O:5])([H:13])[H:14]"
C        2.14396674       0.56098510       0.09238365
C        0.89494416      -0.00260130      -0.58025768
C       -0.18757196      -0.37298263       0.39568984
C       -1.80605065      -0.81547624      -0.47067802
O       -2.50584660       0.27261337      -0.67676938
C       -1.13299202       0.56355843       0.81173154
H        2.56963519      -0.15837463       0.79559564
H        1.91177105       1.47137425       0.64995312
H        2.91199137       0.80536287      -0.64353296
H        1.16285034      -0.88600632      -1.16807089
H        0.49337647       0.72453905      -1.29276949
H       -0.01275529      -1.23117034       1.03541849
H       -2.18566646      -1.54524352       0.26595899
H       -1.38202567      -1.34732058      -1.34526716
H       -1.76021679       0.37600113       1.67405907
H       -1.11540989       1.58474135       0.45655525
16
Frame=2 idx=005568 GeodesicLength=0.13142366190600738 rxn_smarts="[C:1]([C:2]([C:3]1([H:12])[C:4]([H:13])([H:14])[O:5][C:6]1([H:15])[H:16])([H:10])[H:11])([H:7])([H:8])[H:9]>>[C:1]([C:2]([C:3](=[C:6]([H:15])[H:16])[H:12])([H:10])[H:11])([H:7])([H:8])[H:9].[C:4](=[O:5])([H:13])[H:14]"
C        2.14695038       0.55807365       0.09412099
C        0.89383970       0.00606169      -0.58020648
C       -0.18877934      -0.36694945       0.39482598
C       -1.81284710      -0.83399793      -0.47743481
O       -2.50076851       0.25993610      -0.69093681
C       -1.13585936       0.57104788       0.81082768
H        2.57334560      -0.17135277       0.78645704
H        1.91986961       1.46219932       0.66382492
H        2.91251303       0.80954794      -0.64194432
H        1.15536898      -0.87384009      -1.17607712
H        0.49590150       0.74077464      -1.28698786
H       -0.00176799      -1.21583056       1.04404562
H       -2.20661631      -1.55415692       0.26095703
H       -1.38857023      -1.37496880      -1.34546232
H       -1.75044835       0.38926762       1.68391112
H       -1.11213160       1.59418769       0.46007934
16
Frame=3 idx=005568 GeodesicLength=0.19714793081687196 rxn_smarts="[C:1]([C:2]([C:3]1([H:12])[C:4]([H:13])([H:14])[O:5][C:6]1([H:15])[H:16])([H:10])[H:11])([H:7])([H:8])[H:9]>>[C:1]([C:2]([C:3](=[C:6]([H:15])[H:16])[H:12])([H:10])[H:11])([H:7])([H:8])[H:9].[C:4](=[O:5])([H:13])[H:14]"
C        2.14981458       0.55519768       0.09577859
C        0.89264410       0.01477832      -0.58008230
C       -0.19006266      -0.36093314       0.39404430
C       -1.81957017      -0.85287029      -0.48425433
O       -2.49503798       0.24704653      -0.70530805
C       -1.13874862       0.57859851       0.81007289
H        2.57681255      -0.18411126       0.77719196
H        1.92785476       1.45293964       0.67744236
H        2.91297088       0.81370144      -0.64032674
H        1.14775706      -0.86150589      -1.18400042
H        0.49838149       0.75704251      -1.28103599
H        0.00910594      -1.20030397       1.05254630
H       -2.22829641      -1.56315320       0.25532834
H       -1.39496387      -1.40303421      -1.34549461
H       -1.74018393       0.40284733       1.69397843
H       -1.10847773       1.60375999       0.46411929
16
Frame=4 idx=005568 GeodesicLength=0.2628100189093122 rxn_smarts="[C:1]([C:2]([C:3]1([H:12])[C:4]([H:13])([H:14])[O:5][C:6]1([H:15])[H:16])([H:10])[H:11])([H:7])([H:8])[H:9]>>[C:1]([C:2]([C:3](=[C:6]([H:15])[H:16])[H:12])([H:10])[H:11])([H:7])([H:8])[H:9].[C:4](=[O:5])([H:13])[H:14]"
C        2.15253040       0.55237806       0.09735240
C        0.89135381       0.02350620      -0.57987831
C       -0.19142686      -0.35495431       0.39334814
C       -1.82621353      -0.87206410      -0.49114583
O       -2.48867183       0.23395762      -0.71979168
C       -1.14164212       0.58620239       0.80949001
H        2.57998245      -0.19655516       0.76790174
H        1.93567464       1.44368766       0.69068561
H        2.91335831       0.81775909      -0.63868523
H        1.14003762      -0.84907110      -1.19177780
H        0.50080363       0.77326056      -1.27494226
H        0.01984337      -1.18464203       1.06089661
H       -2.25065154      -1.57224737       0.24895655
H       -1.40121841      -1.43140188      -1.34541769
H       -1.72935958       0.41674374       1.70429976
H       -1.10440037       1.61344062       0.46870798
16
Frame=5 idx=005568 GeodesicLength=0.32846565459434 rxn_smarts="[C:1]([C:2]([C:3]1([H:12])[C:4]([H:13])([H:14])[O:5][C:6]1([H:15])[H:16])([H:10])[H:11])([H:7])([H:8])[H:9]>>[C:1]([C:2]([C:3](=[C:6]([H:15])[H:16])[H:12])([H:10])[H:11])([H:7])([H:8])[H:9].[C:4](=[O:5])([H:13])[H:14]"
C        2.15510636       0.54962395       0.09884347
C        0.88997415       0.03224190      -0.57959216
C       -0.19287057      -0.34900538       0.39274968
C       -1.83279834      -0.89159100      -0.49811206
O       -2.48169121       0.22064241      -0.73435786
C       -1.14454013       0.59387280       0.80909015
H        2.58286707      -0.20867263       0.75860256
H        1.94333114       1.43446665       0.70355565
H        2.91368768       0.82172296      -0.63703195
H        1.13221884      -0.83654805      -1.19940090
H        0.50317348       0.78941647      -1.26871437
H        0.03043316      -1.16884764       1.06910453
H       -2.27371946      -1.58146072       0.24179732
H       -1.40735110      -1.46006428      -1.34525506
H       -1.71793770       0.43097481       1.71486841
H       -1.09988338       1.62322775       0.47385259
16
Frame=6 idx=005568 GeodesicLength=0.3940971210772119 rxn_smarts="[C:1]([C:2]([C:3]1([H:12])[C:4]([H:13])([H:14])[O:5][C:6]1([H:15])[H:16])([H:10])[H:11])([H:7])([H:8])[H:9]>>[C:1]([C:2]([C:3](=[C:6]([H:15])[H:16])[H:12])([H:10])[H:11])([H:7])([H:8])[H:9].[C:4](=[O:5])([H:13])[H:14]"
C        2.15753800       0.54693222       0.10025235
C        0.88849664       0.04098305      -0.57921732
C       -0.19439890      -0.34307454       0.39226103
C       -1.83931857      -0.91145704      -0.50515177
O       -2.47411187       0.20706991      -0.74896481
C       -1.14744979       0.60162517       0.80887497
H        2.58546518      -0.22047121       0.74930259
H        1.95082719       1.42528533       0.71605136
H        2.91394932       0.82558128      -0.63537671
H        1.12428641      -0.82394611      -1.20685419
H        0.50548261       0.80550281      -1.26235154
H        0.04086470      -1.15291681       1.07718022
H       -2.29746947      -1.59081597       0.23378445
H       -1.41335717      -1.48899560      -1.34502160
H       -1.70588064       0.44557886       1.72568559
H       -1.09492364       1.63311865       0.47954538
16
Frame=7 idx=005568 GeodesicLength=0.45970491327580326 rxn_smarts="[C:1]([C:2]([C:3]1([H:12])[C:4]([H:13])([H:14])[O:5][C:6]1([H:15])[H:16])([H:10])[H:11])([H:7])([H:8])[H:9]>>[C:1]([C:2]([C:3](=[C:6]([H:15])[H:16])[H:12])([H:10])[H:11])([H:7])([H:8])[H:9].[C:4](=[O:5])([H:13])[H:14]"
C        2.15982319       0.54430304       0.10158044
C        0.88691647       0.04972500      -0.57874848
C       -0.19601636      -0.33715134       0.39189394
C       -1.84577551      -0.93166886      -0.51226430
O       -2.46596031       0.19320971      -0.76356150
C       -1.15037510       0.60947593       0.80885022
H        2.58777561      -0.23195093       0.74001765
H        1.95816391       1.41615971       0.72816845
H        2.91414003       0.82932224      -0.63372903
H        1.11623298      -0.81127925      -1.21412192
H        0.50772676       0.82150762      -1.25585754
H        0.05112602      -1.13684797       1.08513382
H       -2.32187739      -1.60034228       0.22485037
H       -1.41924036      -1.51816614      -1.34474182
H       -1.69314769       0.46059318       1.73674927
H       -1.08951225       1.64311033       0.48578041
16
Frame=8 idx=005568 GeodesicLength=0.5252886410834515 rxn_smarts="[C:1]([C:2]([C:3]1([H:12])[C:4]([H:13])([H:14])[O:5][C:6]1([H:15])[H:16])([H:10])[H:11])([H:7])([H:8])[H:9]>>[C:1]([C:2]([C:3](=[C:6]([H:15])[H:16])[H:12])([H:10])[H:11])([H:7])([H:8])[H:9].[C:4](=[O:5])([H:13])[H:14]"
C        2.16195974       0.54173592       0.10282997
C        0.88522907       0.05846284      -0.57818040
C       -0.19772794      -0.33122434       0.39165988
C       -1.85217089      -0.95223319      -0.51944755
O       -2.45726960       0.17903233      -0.77808911
C       -1.15331902       0.61744368       0.80902196
H        2.58979688      -0.24311332       0.73076392
H        1.96534228       1.40710466       0.73990449
H        2.91425658       0.83293441      -0.63209729
H        1.10805157      -0.79856223      -1.22118813
H        0.50990235       0.83741881      -1.24923711
H        0.06120482      -1.12063908       1.09297544
H       -2.34691255      -1.61007501       0.21492729
H       -1.42500594      -1.54754360      -1.34444425
H       -1.67969780       0.47605815       1.74805209
H       -1.08363956       1.65319997       0.49254880
16
Frame=9 idx=005568 GeodesicLength=0.5908474828385064 rxn_smarts="[C:1]([C:2]([C:3]1([H:12])[C:4]([H:13])([H:14])[O:5][C:6]1([H:15])[H:16])([H:10])[H:11])([H:7])([H:8])[H:9]>>[C:1]([C:2]([C:3](=[C:6]([H:15])[H:16])[H:12])([H:10])[H:11])([H:7])([H:8])[H:9].[C:4](=[O:5])([H:13])[H:14]"
C        2.16394489       0.53923056       0.10400403
C        0.88343044       0.06719031      -0.57750812
C       -0.19953890      -0.32528217       0.39156963
C       -1.85850759      -0.97315595      -0.52669850
O       -2.44808094       0.16451091      -0.79247950
C       -1.15628194       0.62554865       0.80939760
H        2.59152593      -0.25395818       0.72156156
H        1.97236153       1.39813699       0.75125556
H        2.91429624       0.83640486      -0.63048875
H        1.09973703      -0.78581233      -1.22803564
H        0.51200668       0.85322196      -1.24249694
H        0.07108860      -1.10428879       1.10071453
H       -2.37253769      -1.62005558       0.20394672
H       -1.43066182      -1.57709063      -1.34416372
H       -1.66548865       0.49201497       1.75958216
H       -1.07729381       1.66338441       0.49983938
16
Frame=10 idx=005568 GeodesicLength=0.6563802750053046 rxn_smarts="[C:1]([C:2]([C:3]1([H:12])[C:4]([H:13])([H:14])[O:5][C:6]1([H:15])[H:16])([H:10])[H:11])([H:7])([H:8])[H:9]>>[C:1]([C:2]([C:3](=[C:6]([H:15])[H:16])[H:12])([H:10])[H:11])([H:7])([H:8])[H:9].[C:4](=[O:5])([H:13])[H:14]"
C        2.16577624       0.53678582       0.10510627
C        0.88151675       0.07590095      -0.57672665
C       -0.20145501      -0.31931287       0.39163419
C       -1.86478816      -0.99444305      -0.53401312
O       -2.43844152       0.14961876      -0.80665705
C       -1.15926286       0.63381329       0.80998637
H        2.59295958      -0.26448750       0.71243068
H        1.97922165       1.38927254       0.76221946
H        2.91425660       0.83972084      -0.62891023
H        1.09128407      -0.77304765      -1.23464754
H        0.51403777       0.86890308      -1.23564427
H        0.08076442      -1.08779553       1.10836116
H       -2.39870745      -1.63033102       0.19184040
H       -1.43621789      -1.60676651      -1.34393966
H       -1.65048069       0.50850775       1.77132265
H       -1.07046350       1.67366110       0.50763734
16
Frame=11 idx=005568 GeodesicLength=0.7218887451007139 rxn_smarts="[C:1]([C:2]([C:3]1([H:12])[C:4]([H:13])([H:14])[O:5][C:6]1([H:15])[H:16])([H:10])[H:11])([H:7])([H:8])[H:9]>>[C:1]([C:2]([C:3](=[C:6]([H:15])[H:16])[H:12])([H:10])[H:11])([H:7])([H:8])[H:9].[C:4](=[O:5])([H:13])[H:14]"
C        2.16745455       0.53440016       0.10614052
C        0.87948566       0.08458715      -0.57583148
C       -0.20348439      -0.31330516       0.39186456
C       -1.87101602      -1.01610131      -0.54138684
O       -2.42841076       0.13432797      -0.82053635
C       -1.16226227       0.64226312       0.81080125
H        2.59409684      -0.27470588       0.70339178
H        1.98592578       1.38052906       0.77279485
H        2.91414081       0.84286958      -0.62736872
H        1.08268924      -0.76029014      -1.24100761
H        0.51599622       0.88444863      -1.22868754
H        0.09021731      -1.07115990       1.11592521
H       -2.42536384      -1.64095486       0.17854019
H       -1.44168750      -1.63652481      -1.34381910
H       -1.63464238       0.52558518       1.78325486
H       -1.06313924       1.68403122       0.51592443
16
Frame=12 idx=005568 GeodesicLength=0.7873759677500971 rxn_smarts="[C:1]([C:2]([C:3]1([H:12])[C:4]([H:13])([H:14])[O:5][C:6]1([H:15])[H:16])([H:10])[H:11])([H:7])([H:8])[H:9]>>[C:1]([C:2]([C:3](=[C:6]([H:15])[H:16])[H:12])([H:10])[H:11])([H:7])([H:8])[H:9].[C:4](=[O:5])([H:13])[H:14]"
C        2.16898041       0.53206767       0.10711466
C        0.87734055       0.09324385      -0.57482065
C       -0.20562780      -0.30723920       0.39227048
C       -1.87720362      -1.03813618      -0.54880810
O       -2.41807327       0.11861994      -0.83400414
C       -1.16526493       0.65093201       0.81184610
H        2.59494012      -0.28461849       0.69447772
H        1.99247015       1.37191065       0.78298345
H        2.91395008       0.84583381      -0.62586822
H        1.07396015      -0.74755357      -1.24709712
H        0.51788660       0.89984302      -1.22164904
H        0.09944025      -1.05436987       1.12342841
H       -2.45245105      -1.65200400       0.16398966
H       -1.44708832      -1.66629799      -1.34386616
H       -1.61794032       0.54327553       1.79534389
H       -1.05531902       1.69449281       0.52465906
16
Frame=13 idx=005568 GeodesicLength=0.8528329452006679 rxn_smarts="[C:1]([C:2]([C:3]1([H:12])[C:4]([H:13])([H:14])[O:5][C:6]1([H:15])[H:16])([H:10])[H:11])([H:7])([H:8])[H:9]>>[C:1]([C:2]([C:3](=[C:6]([H:15])[H:16])[H:12])([H:10])[H:11])([H:7])([H:8])[H:9].[C:4](=[O:5])([H:13])[H:14]"
C        2.17035031       0.52975530       0.10803529
C        0.87504881       0.10190353      -0.57367913
C       -0.20790722      -0.30107036       0.39286528
C       -1.88332200      -1.06058058      -0.55625966
O       -2.40745367       0.10244514      -0.84704255
C       -1.16829788       0.65986084       0.81312081
H        2.59548161      -0.29431354       0.68560920
H        1.99890990       1.36335363       0.79286390
H        2.91365976       0.84860957      -0.62440012
H        1.06501162      -0.73479420      -1.25293894
H        0.51969994       0.91514635      -1.21447011
H        0.10842016      -1.03736744       1.13087719
H       -2.47989283      -1.66353585       0.14813559
H       -1.45236772      -1.69614331      -1.34406094
H       -1.60032155       0.56167372       1.80753962
H       -1.04701922       1.70505721       0.53380458
16
Frame=14 idx=005568 GeodesicLength=0.9182566172777106 rxn_smarts="[C:1]([C:2]([C:3]1([H:12])[C:4]([H:13])([H:14])[O:5][C:6]1([H:15])[H:16])([H:10])[H:11])([H:7])([H:8])[H:9]>>[C:1]([C:2]([C:3](=[C:6]([H:15])[H:16])[H:12])([H:10])[H:11])([H:7])([H:8])[H:9].[C:4](=[O:5])([H:13])[H:14]"
C        2.17155584       0.52748336       0.10890414
C        0.87263476       0.11052011      -0.57240720
C       -0.21031139      -0.29481321       0.39365397
C       -1.88938063      -1.08342212      -0.56374516
O       -2.39666212       0.08579600      -0.85943904
C       -1.17130043       0.66907602       0.81466305
H        2.59569846      -0.30372827       0.67689691
H        2.00519290       1.35494611       0.80235827
H        2.91328287       0.85116597      -0.62297656
H        1.05590623      -0.72209809      -1.25847537
H        0.52145594       0.93027571      -1.20721199
H        0.11713575      -1.02020429       1.13827323
H       -2.50759293      -1.67562896       0.13091712
H       -1.45760958      -1.72588486      -1.34455353
H       -1.58180896       0.58078843       1.81980820
H       -1.03819672       1.71572811       0.54333397
16
Frame=15 idx=005568 GeodesicLength=0.9836607135901487 rxn_smarts="[C:1]([C:2]([C:3]1([H:12])[C:4]([H:13])([H:14])[O:5][C:6]1([H:15])[H:16])([H:10])[H:11])([H:7])([H:8])[H:9]>>[C:1]([C:2]([C:3](=[C:6]([H:15])[H:16])[H:12])([H:10])[H:11])([H:7])([H:8])[H:9].[C:4](=[O:5])([H:13])[H:14]"
C        2.17262348       0.52522105       0.10973020
C        0.87008796       0.11912574      -0.57100241
C       -0.21286047      -0.28841924       0.39465210
C       -1.89539213      -1.10668177      -0.57123207
O       -2.38577960       0.06865822      -0.87114884
C       -1.17430388       0.67862829       0.81647234
H        2.59562162      -0.31292998       0.66830973
H        2.01138266       1.34662909       0.81152716
H        2.91284356       0.85348409      -0.62159784
H        1.04660195      -0.70941874      -1.26373147
H        0.52315211       0.94528450      -1.19985956
H        0.12558647      -1.00283330       1.14564082
H       -2.53549996      -1.68838154       0.11229351
H       -1.46278140      -1.75554935      -1.34534741
H       -1.56237931       0.60066377       1.83210179
H       -1.02890306       1.72651915       0.55319196
16
Frame=16 idx=005568 GeodesicLength=1.0490684294759323 rxn_smarts="[C:1]([C:2]([C:3]1([H:12])[C:4]([H:13])([H:14])[O:5][C:6]1([H:15])[H:16])([H:10])[H:11])([H:7])([H:8])[H:9]>>[C:1]([C:2]([C:3](=[C:6]([H:15])[H:16])[H:12])([H:10])[H:11])([H:7])([H:8])[H:9].[C:4](=[O:5])([H:13])[H:14]"
C        2.17356574       0.52291429       0.11050821
C        0.86738640       0.12777171      -0.56944860
C       -0.21556202      -0.28183010       0.39589054
C       -1.90130845      -1.13041492      -0.57868964
O       -2.37483174       0.05094972      -0.88210631
C       -1.17732015       0.68858049       0.81855295
H        2.59525689      -0.32206341       0.65972175
H        2.01755889       1.33827609       0.82047726
H        2.91232527       0.85557080      -0.62027445
H        1.03701168      -0.69667928      -1.26874143
H        0.52480049       0.96027011      -1.19235087
H        0.13376259      -0.98517407       1.15303317
H       -2.56352584      -1.70186773       0.09222269
H       -1.46783078      -1.78516292      -1.34643519
H       -1.54208828       0.62139049       1.84434764
H       -1.01920069       1.73746872       0.56329227
