8
Frame=0 idx=005758 GeodesicLength=0.0 rxn_smarts="[o:1]1[c:2]([H:6])[c:3]([H:7])[n:4][c:5]1[H:8]>>[O+:1]1=[C-:2][C:3]([H:6])([H:7])[N:4]=[C:5]1[H:8]"
O        0.63395373       1.16395455       0.16854570
C       -0.72925577       0.98874818       0.37154318
C       -0.84395995      -0.41289906       0.14841240
N        0.39903286      -1.03317164      -0.07001501
C        1.20046368      -0.04120200      -0.02588918
H       -1.19325794       0.39541008      -0.76044280
H       -1.74275944      -0.99426587       0.30319568
H        2.27578281      -0.06657423      -0.13535000
8
Frame=1 idx=005758 GeodesicLength=0.041401450967771876 rxn_smarts="[o:1]1[c:2]([H:6])[c:3]([H:7])[n:4][c:5]1[H:8]>>[O+:1]1=[C-:2][C:3]([H:6])([H:7])[N:4]=[C:5]1[H:8]"
O        0.63475569       1.16385802       0.16818911
C       -0.72507782       0.98527995       0.36776363
C       -0.84419265      -0.41432942       0.13909854
N        0.40073410      -1.03297399      -0.07808665
C        1.20312317      -0.04292662      -0.02640214
H       -1.21178540       0.40668924      -0.76691384
H       -1.73719770      -0.99744660       0.31873123
H        2.27964060      -0.06815058      -0.12237988
8
Frame=2 idx=005758 GeodesicLength=0.08267876104790306 rxn_smarts="[o:1]1[c:2]([H:6])[c:3]([H:7])[n:4][c:5]1[H:8]>>[O+:1]1=[C-:2][C:3]([H:6])([H:7])[N:4]=[C:5]1[H:8]"
O        0.63548679       1.16357023       0.16863800
C       -0.72113214       0.98181533       0.36343569
C       -0.84451821      -0.41576180       0.12953193
N        0.40251813      -1.03291216      -0.08504815
C        1.20583773      -0.04495527      -0.02505151
H       -1.23002407       0.41808203      -0.77351865
H       -1.73123874      -1.00035195       0.33368124
H        2.28307050      -0.06948642      -0.11166855
8
Frame=3 idx=005758 GeodesicLength=0.12399446616778924 rxn_smarts="[o:1]1[c:2]([H:6])[c:3]([H:7])[n:4][c:5]1[H:8]>>[O+:1]1=[C-:2][C:3]([H:6])([H:7])[N:4]=[C:5]1[H:8]"
O        0.63621393       1.16308715       0.17070258
C       -0.71756065       0.97841426       0.35844059
C       -0.84505540      -0.41723582       0.11976016
N        0.40441356      -1.03311413      -0.08982987
C        1.20869922      -0.04739636      -0.02031268
H       -1.24736259       0.42942710      -0.78077828
H       -1.72532272      -1.00292872       0.34747651
H        2.28597466      -0.07025347      -0.10545899
8
Frame=4 idx=005758 GeodesicLength=0.16529807437385008 rxn_smarts="[o:1]1[c:2]([H:6])[c:3]([H:7])[n:4][c:5]1[H:8]>>[O+:1]1=[C-:2][C:3]([H:6])([H:7])[N:4]=[C:5]1[H:8]"
O        0.63690325       1.16243945       0.17364925
C       -0.71420687       0.97502685       0.35292687
C       -0.84568325      -0.41875732       0.10978611
N        0.40638912      -1.03348345      -0.09341605
C        1.21161413      -0.05015738      -0.01342630
H       -1.26437570       0.44084635      -0.78829983
H       -1.71921836      -1.00522901       0.36061331
H        2.28857769      -0.07068550      -0.10183336
8
Frame=5 idx=005758 GeodesicLength=0.20662343698805466 rxn_smarts="[o:1]1[c:2]([H:6])[c:3]([H:7])[n:4][c:5]1[H:8]>>[O+:1]1=[C-:2][C:3]([H:6])([H:7])[N:4]=[C:5]1[H:8]"
O        0.63757786       1.16174763       0.17623563
C       -0.71081900       0.97159342       0.34711814
C       -0.84628782      -0.42033911       0.09962634
N        0.40839333      -1.03384007      -0.09741279
C        1.21450755      -0.05301240      -0.00656607
H       -1.28208276       0.45252650      -0.79537005
H       -1.71249389      -1.00740365       0.37387052
H        2.29120474      -0.07127231      -0.09750172
8
Frame=6 idx=005758 GeodesicLength=0.24802393918084914 rxn_smarts="[o:1]1[c:2]([H:6])[c:3]([H:7])[n:4][c:5]1[H:8]>>[O+:1]1=[C-:2][C:3]([H:6])([H:7])[N:4]=[C:5]1[H:8]"
O        0.63825367       1.16109902       0.17773072
C       -0.70727140       0.96810197       0.34110058
C       -0.84680342      -0.42197070       0.08929690
N        0.41038743      -1.03406785      -0.10274472
C        1.21733371      -0.05583165      -0.00092833
H       -1.30108763       0.46457106      -0.80153479
H       -1.70488449      -1.00956872       0.38766544
H        2.29407212      -0.07233314      -0.09058581
8
Frame=7 idx=005758 GeodesicLength=0.2894275499681695 rxn_smarts="[o:1]1[c:2]([H:6])[c:3]([H:7])[n:4][c:5]1[H:8]>>[O+:1]1=[C-:2][C:3]([H:6])([H:7])[N:4]=[C:5]1[H:8]"
O        0.63892674       1.16050059       0.17797167
C       -0.70356198       0.96455632       0.33483670
C       -0.84727007      -0.42366975       0.07881806
N        0.41235816      -1.03414558      -0.10957553
C        1.22010416      -0.05860285       0.00338018
H       -1.32150986       0.47695500      -0.80660928
H       -1.69625190      -1.01166187       0.40197300
H        2.29720475      -0.07393186      -0.08079479
8
Frame=8 idx=005758 GeodesicLength=0.33093021422599095 rxn_smarts="[o:1]1[c:2]([H:6])[c:3]([H:7])[n:4][c:5]1[H:8]>>[O+:1]1=[C-:2][C:3]([H:6])([H:7])[N:4]=[C:5]1[H:8]"
O        0.63963629       1.16001689       0.17661577
C       -0.69962808       0.96098636       0.32829970
C       -0.84764843      -0.42539621       0.06819878
N        0.41430357      -1.03398852      -0.11835257
C        1.22283478      -0.06128034       0.00589905
H       -1.34366764       0.48968835      -0.81032942
H       -1.68646391      -1.01377266       0.41694976
H        2.30063343      -0.07625386      -0.06728107
8
Frame=9 idx=005758 GeodesicLength=0.3723544886656888 rxn_smarts="[o:1]1[c:2]([H:6])[c:3]([H:7])[n:4][c:5]1[H:8]>>[O+:1]1=[C-:2][C:3]([H:6])([H:7])[N:4]=[C:5]1[H:8]"
O        0.64038384       1.15964104       0.17393526
C       -0.69559226       0.95747802       0.32133416
C       -0.84802926      -0.42712440       0.05748855
N        0.41621686      -1.03364917      -0.12862656
C        1.22558360      -0.06395945       0.00735764
H       -1.36722265       0.50273264      -0.81274468
H       -1.67554386      -1.01592518       0.43226380
H        2.30420373      -0.07919349      -0.05100817
8
Frame=10 idx=005758 GeodesicLength=0.41377093692551303 rxn_smarts="[o:1]1[c:2]([H:6])[c:3]([H:7])[n:4][c:5]1[H:8]>>[O+:1]1=[C-:2][C:3]([H:6])([H:7])[N:4]=[C:5]1[H:8]"
O        0.64124641       1.15932965       0.16962140
C       -0.69124269       0.95392135       0.31401759
C       -0.84826790      -0.42888990       0.04661616
N        0.41822141      -1.03298469      -0.14070502
C        1.22827212      -0.06657073       0.00750137
H       -1.39249810       0.51589758      -0.81358922
H       -1.66340412      -1.01786694       0.44790263
H        2.30767286      -0.08283632      -0.03136491
8
Frame=11 idx=005758 GeodesicLength=0.4552974703873684 rxn_smarts="[o:1]1[c:2]([H:6])[c:3]([H:7])[n:4][c:5]1[H:8]>>[O+:1]1=[C-:2][C:3]([H:6])([H:7])[N:4]=[C:5]1[H:8]"
O        0.64220675       1.15908494       0.16444035
C       -0.68676354       0.95043977       0.30609235
C       -0.84843621      -0.43069082       0.03564209
N        0.42026851      -1.03217456      -0.15356043
C        1.23100338      -0.06919991       0.00738776
H       -1.41880455       0.52926542      -0.81324048
H       -1.65028029      -1.01977984       0.46343489
H        2.31080594      -0.08694499      -0.01019653
8
Frame=12 idx=005758 GeodesicLength=0.4968664950845319 rxn_smarts="[o:1]1[c:2]([H:6])[c:3]([H:7])[n:4][c:5]1[H:8]>>[O+:1]1=[C-:2][C:3]([H:6])([H:7])[N:4]=[C:5]1[H:8]"
O        0.64326156       1.15885866       0.15863381
C       -0.68219000       0.94706172       0.29750828
C       -0.84850802      -0.43250231       0.02460925
N        0.42242174      -1.03123904      -0.16692244
C        1.23377611      -0.07193327       0.00722463
H       -1.44599473       0.54267706      -0.81172335
H       -1.63629716      -1.02152419       0.47864018
H        2.31353049      -0.09139863       0.01202964
8
Frame=13 idx=005758 GeodesicLength=0.5384391956719435 rxn_smarts="[o:1]1[c:2]([H:6])[c:3]([H:7])[n:4][c:5]1[H:8]>>[O+:1]1=[C-:2][C:3]([H:6])([H:7])[N:4]=[C:5]1[H:8]"
O        0.64442151       1.15859261       0.15264204
C       -0.67760943       0.94378514       0.28818936
C       -0.84853818      -0.43434339       0.01354351
N        0.42472490      -1.03025883      -0.18018471
C        1.23661726      -0.07482374       0.00762916
H       -1.47375263       0.55605774      -0.80923390
H       -1.62174988      -1.02302618       0.49319636
H        2.31588644      -0.09598336       0.03421818
8
Frame=14 idx=005758 GeodesicLength=0.5800388356730555 rxn_smarts="[o:1]1[c:2]([H:6])[c:3]([H:7])[n:4][c:5]1[H:8]>>[O+:1]1=[C-:2][C:3]([H:6])([H:7])[N:4]=[C:5]1[H:8]"
O        0.64569195       1.15828223       0.14651560
C       -0.67300697       0.94060688       0.27809807
C       -0.84849720      -0.43623434       0.00244465
N        0.42719523      -1.02925943      -0.19324054
C        1.23949968      -0.07784847       0.00853432
H       -1.50204070       0.56939764      -0.80573050
H       -1.60671336      -1.02426964       0.50704572
H        2.31787137      -0.10067487       0.05633268
8
Frame=15 idx=005758 GeodesicLength=0.6216508862226556 rxn_smarts="[o:1]1[c:2]([H:6])[c:3]([H:7])[n:4][c:5]1[H:8]>>[O+:1]1=[C-:2][C:3]([H:6])([H:7])[N:4]=[C:5]1[H:8]"
O        0.64707812       1.15790952       0.14039360
C       -0.66840058       0.93752186       0.26718978
C       -0.84839016      -0.43818907      -0.00869217
N        0.42985670      -1.02828185      -0.20588861
C        1.24242197      -0.08101033       0.01002993
H       -1.53077682       0.58266890      -0.80122549
H       -1.59133419      -1.02522153       0.52008577
H        2.31954497      -0.10539750       0.07810720
8
Frame=16 idx=005758 GeodesicLength=0.6632740374366466 rxn_smarts="[o:1]1[c:2]([H:6])[c:3]([H:7])[n:4][c:5]1[H:8]>>[O+:1]1=[C-:2][C:3]([H:6])([H:7])[N:4]=[C:5]1[H:8]"
O        0.64857023       1.15745063       0.13446738
C       -0.66381080       0.93452472       0.25541649
C       -0.84820855      -0.44022815      -0.01987784
N        0.43273118      -1.02738113      -0.21788539
C        1.24535931      -0.08432868       0.01233129
H       -1.55983407       0.59585074      -0.79577922
H       -1.57578523      -1.02584395       0.53220434
H        2.32097793      -0.11004418       0.09912295
