13
Frame=0 idx=006419 GeodesicLength=0.0 rxn_smarts="[O:1]=[C:2]([C:3]1([C:6](=[O:7])[H:13])[C:4]([H:9])([H:10])[C:5]1([H:11])[H:12])[H:8]>>[O:1]=[C:2]([C:3]1=[C:6]([H:13])[O:7][C:4]([H:9])([H:10])[C:5]1([H:11])[H:12])[H:8]"
O        1.99743834      -1.40262887      -0.83878122
C        1.53796544      -0.28044875      -0.94179307
C        0.25856315       0.13542866      -0.44407455
C       -0.85955750      -0.33849077       1.33713361
C       -0.68849739      -0.96249039       0.07493543
C       -0.17231761       1.47101941      -0.36289543
O       -1.02315100       1.85692322       0.44133462
H        2.11162370       0.51412958      -1.45763195
H       -1.79687197       0.07061655       1.68296686
H       -0.01717892      -0.30356990       2.01704596
H       -1.58720350      -1.11196025      -0.51717139
H       -0.02885127      -1.83786119       0.08208586
H        0.26803854       2.18933264      -1.07315472
13
Frame=1 idx=006419 GeodesicLength=0.05340402773327804 rxn_smarts="[O:1]=[C:2]([C:3]1([C:6](=[O:7])[H:13])[C:4]([H:9])([H:10])[C:5]1([H:11])[H:12])[H:8]>>[O:1]=[C:2]([C:3]1=[C:6]([H:13])[O:7][C:4]([H:9])([H:10])[C:5]1([H:11])[H:12])[H:8]"
O        2.00819816      -1.39526655      -0.82697283
C        1.53865257      -0.27922803      -0.94223377
C        0.25689291       0.13175789      -0.44215058
C       -0.84769018      -0.32002063       1.32961139
C       -0.69217678      -0.96415641       0.07086039
C       -0.18265638       1.46525159      -0.37612262
O       -1.02487132       1.84549903       0.44289110
H        2.10822475       0.51711380      -1.46021026
H       -1.79093618       0.06808030       1.68375104
H       -0.01114788      -0.30926565       2.01741454
H       -1.59391454      -1.10544004      -0.51827019
H       -0.04438250      -1.84737591       0.08537646
H        0.27580737       2.19305061      -1.06394467
13
Frame=2 idx=006419 GeodesicLength=0.10680178974190824 rxn_smarts="[O:1]=[C:2]([C:3]1([C:6](=[O:7])[H:13])[C:4]([H:9])([H:10])[C:5]1([H:11])[H:12])[H:8]>>[O:1]=[C:2]([C:3]1=[C:6]([H:13])[O:7][C:4]([H:9])([H:10])[C:5]1([H:11])[H:12])[H:8]"
O        2.01881111      -1.38777260      -0.81557457
C        1.53958596      -0.27788162      -0.94237367
C        0.25544312       0.12825552      -0.44003737
C       -0.83593769      -0.30198704       1.32210290
C       -0.69572289      -0.96561800       0.06688710
C       -0.19236531       1.45963391      -0.38886062
O       -1.02647583       1.83422006       0.44412880
H        2.10463381       0.51991951      -1.46338916
H       -1.78453687       0.06545937       1.68434822
H       -0.00602671      -0.31499101       2.01784703
H       -1.60023765      -1.09881637      -0.51950850
H       -0.06012019      -1.85664015       0.08908519
H        0.28294915       2.19621844      -1.05465537
13
Frame=3 idx=006419 GeodesicLength=0.16017549428147268 rxn_smarts="[O:1]=[C:2]([C:3]1([C:6](=[O:7])[H:13])[C:4]([H:9])([H:10])[C:5]1([H:11])[H:12])[H:8]>>[O:1]=[C:2]([C:3]1=[C:6]([H:13])[O:7][C:4]([H:9])([H:10])[C:5]1([H:11])[H:12])[H:8]"
O        2.02919451      -1.38030143      -0.80497623
C        1.54091093      -0.27636030      -0.94202893
C        0.25435037       0.12494578      -0.43756075
C       -0.82436904      -0.28440432       1.31466836
C       -0.69907420      -0.96685074       0.06302959
C       -0.20120114       1.45422999      -0.40081829
O       -1.02796745       1.82310742       0.44515478
H        2.10090139       0.52252584      -1.46716865
H       -1.77781788       0.06275852       1.68469782
H       -0.00194022      -0.32077703       2.01847849
H       -1.60605918      -1.09200393      -0.52097727
H       -0.07603805      -1.86563194       0.09325370
H        0.28910995       2.19876213      -1.04575261
13
Frame=4 idx=006419 GeodesicLength=0.21350161968081333 rxn_smarts="[O:1]=[C:2]([C:3]1([C:6](=[O:7])[H:13])[C:4]([H:9])([H:10])[C:5]1([H:11])[H:12])[H:8]>>[O:1]=[C:2]([C:3]1=[C:6]([H:13])[O:7][C:4]([H:9])([H:10])[C:5]1([H:11])[H:12])[H:8]"
O        2.03923765      -1.37300603      -0.79554686
C        1.54265292      -0.27465665      -0.94118600
C        0.25364682       0.12181120      -0.43467948
C       -0.81298751      -0.26726832       1.30736765
C       -0.70220931      -0.96786732       0.05930297
C       -0.20912264       1.44904423      -0.41192473
O       -1.02934750       1.81217998       0.44603996
H        2.09723452       0.52504430      -1.47115191
H       -1.77083096       0.05999666       1.68480900
H        0.00112203      -0.32660202       2.01935353
H       -1.61135699      -1.08500196      -0.52267595
H       -0.09214312      -1.87436012       0.09789995
H        0.29410410       2.20068604      -1.03760814
13
Frame=5 idx=006419 GeodesicLength=0.26679316450334306 rxn_smarts="[O:1]=[C:2]([C:3]1([C:6](=[O:7])[H:13])[C:4]([H:9])([H:10])[C:5]1([H:11])[H:12])[H:8]>>[O:1]=[C:2]([C:3]1=[C:6]([H:13])[O:7][C:4]([H:9])([H:10])[C:5]1([H:11])[H:12])[H:8]"
O        2.04887873      -1.36601800      -0.78752341
C        1.54479882      -0.27275311      -0.93985962
C        0.25332435       0.11884011      -0.43138338
C       -0.80178669      -0.25058223       1.30018560
C       -0.70511653      -0.96867367       0.05573199
C       -0.21618293       1.44400648      -0.42220190
O       -1.03061665       1.80141522       0.44683235
H        2.09376174       0.52757567      -1.47504073
H       -1.76360456       0.05718978       1.68466775
H        0.00320394      -0.33239037       2.02046803
H       -1.61613405      -1.07782630      -0.52455543
H       -0.10843592      -1.88280869       0.10304172
H        0.29790976       2.20202510      -1.03036298
13
Frame=6 idx=006419 GeodesicLength=0.3200507713389488 rxn_smarts="[O:1]=[C:2]([C:3]1([C:6](=[O:7])[H:13])[C:4]([H:9])([H:10])[C:5]1([H:11])[H:12])[H:8]>>[O:1]=[C:2]([C:3]1=[C:6]([H:13])[O:7][C:4]([H:9])([H:10])[C:5]1([H:11])[H:12])[H:8]"
O        2.05828861      -1.35914544      -0.78039720
C        1.54721569      -0.27072416      -0.93825252
C        0.25326201       0.11596733      -0.42784572
C       -0.79067596      -0.23435173       1.29316714
C       -0.70787586      -0.96932402       0.05224665
C       -0.22252062       1.43911679      -0.43178459
O       -1.03174902       1.79082368       0.44758781
H        2.09049816       0.53014571      -1.47874289
H       -1.75605373       0.05433536       1.68437454
H        0.00450512      -0.33820279       2.02168782
H       -1.62054924      -1.07050380      -0.52658176
H       -0.12504412      -1.89104669       0.10854047
H        0.30069897       2.20290976      -1.02399975
13
Frame=7 idx=006419 GeodesicLength=0.37329205115846137 rxn_smarts="[O:1]=[C:2]([C:3]1([C:6](=[O:7])[H:13])[C:4]([H:9])([H:10])[C:5]1([H:11])[H:12])[H:8]>>[O:1]=[C:2]([C:3]1=[C:6]([H:13])[O:7][C:4]([H:9])([H:10])[C:5]1([H:11])[H:12])[H:8]"
O        2.06766723      -1.35222456      -0.77351163
C        1.54970513      -0.26865458      -0.93665915
C        0.25330067       0.11314812      -0.42428838
C       -0.77954649      -0.21860265       1.28625111
C       -0.71058631      -0.96984855       0.04877536
C       -0.22830351       1.43432160      -0.44082888
O       -1.03272963       1.78036699       0.44834257
H        2.08748153       0.53280306      -1.48210978
H       -1.74803624       0.05142601       1.68403102
H        0.00531493      -0.34404124       2.02282473
H       -1.62480497      -1.06303484      -0.52867205
H       -0.14211035      -1.89910174       0.11422934
H        0.30264803       2.20344237      -1.01838427
13
Frame=8 idx=006419 GeodesicLength=0.426515031047864 rxn_smarts="[O:1]=[C:2]([C:3]1([C:6](=[O:7])[H:13])[C:4]([H:9])([H:10])[C:5]1([H:11])[H:12])[H:8]>>[O:1]=[C:2]([C:3]1=[C:6]([H:13])[O:7][C:4]([H:9])([H:10])[C:5]1([H:11])[H:12])[H:8]"
O        2.07697619      -1.34536072      -0.76723227
C        1.55243312      -0.26643937      -0.93480171
C        0.25354951       0.11040488      -0.42052744
C       -0.76850128      -0.20331405       1.27947584
C       -0.71315380      -0.97025570       0.04536532
C       -0.23350754       1.42961878      -0.44927655
O       -1.03358198       1.77004920       0.44912464
H        2.08448217       0.53541894      -1.48560363
H       -1.73976662       0.04845053       1.68350036
H        0.00542448      -0.34983899       2.02400677
H       -1.62872486      -1.05546691      -0.53089417
H       -0.15951880      -1.90695024       0.12025729
H        0.30388942       2.20368365      -1.01339445
13
Frame=9 idx=006419 GeodesicLength=0.4797199116838234 rxn_smarts="[O:1]=[C:2]([C:3]1([C:6](=[O:7])[H:13])[C:4]([H:9])([H:10])[C:5]1([H:11])[H:12])[H:8]>>[O:1]=[C:2]([C:3]1=[C:6]([H:13])[O:7][C:4]([H:9])([H:10])[C:5]1([H:11])[H:12])[H:8]"
O        2.08638042      -1.33837209      -0.76100624
C        1.55528502      -0.26413925      -0.93285975
C        0.25390738       0.10770465      -0.41671777
C       -0.75747910      -0.18850517       1.27281233
C       -0.71564914      -0.97057358       0.04195467
C       -0.23824921       1.42498735      -0.45723311
O       -1.03429063       1.75984496       0.44997291
H        2.08146687       0.53796873      -1.48925317
H       -1.73116768       0.04539456       1.68285598
H        0.00505483      -0.35561555       2.02510779
H       -1.63245193      -1.04779717      -0.53321302
H       -0.17738158      -1.91460715       0.12648492
H        0.30457474       2.20370970      -1.00890553
13
Frame=10 idx=006419 GeodesicLength=0.5329238362585601 rxn_smarts="[O:1]=[C:2]([C:3]1([C:6](=[O:7])[H:13])[C:4]([H:9])([H:10])[C:5]1([H:11])[H:12])[H:8]>>[O:1]=[C:2]([C:3]1=[C:6]([H:13])[O:7][C:4]([H:9])([H:10])[C:5]1([H:11])[H:12])[H:8]"
O        2.09597776      -1.33112831      -0.75447546
C        1.55814197      -0.26181621      -0.93099806
C        0.25427843       0.10500922      -0.41299283
C       -0.74640316      -0.17418205       1.26623226
C       -0.71813457      -0.97082607       0.03849916
C       -0.24262186       1.42040360      -0.46479528
O       -1.03483028       1.74973643       0.45090578
H        2.07848123       0.54049518      -1.49290992
H       -1.72215171       0.04226275       1.68215566
H        0.00439535      -0.36138538       2.02600047
H       -1.63610997      -1.04002130      -0.53557472
H       -0.19579839      -1.92209698       0.13281887
H        0.30477521       2.20354912      -1.00486592
13
Frame=11 idx=006419 GeodesicLength=0.5861120755755858 rxn_smarts="[O:1]=[C:2]([C:3]1([C:6](=[O:7])[H:13])[C:4]([H:9])([H:10])[C:5]1([H:11])[H:12])[H:8]>>[O:1]=[C:2]([C:3]1=[C:6]([H:13])[O:7][C:4]([H:9])([H:10])[C:5]1([H:11])[H:12])[H:8]"
O        2.10562862      -1.32378363      -0.74811263
C        1.56107622      -0.25943107      -0.92911584
C        0.25471222       0.10231611      -0.40927231
C       -0.73532216      -0.16030881       1.25976362
C       -0.72055594      -0.97103345       0.03504752
C       -0.24665009       1.41584539      -0.47198339
O       -1.03523286       1.73971769       0.45189942
H        2.07559220       0.54306001      -1.49645343
H       -1.71282967       0.03906921       1.68134566
H        0.00338660      -0.36705903       2.02675802
H       -1.63961148      -1.03220205      -0.53797971
H       -0.21470723      -1.92939911       0.13938270
H        0.30451356       2.20320873      -1.00127963
13
Frame=12 idx=006419 GeodesicLength=0.6393014922659347 rxn_smarts="[O:1]=[C:2]([C:3]1([C:6](=[O:7])[H:13])[C:4]([H:9])([H:10])[C:5]1([H:11])[H:12])[H:8]>>[O:1]=[C:2]([C:3]1=[C:6]([H:13])[O:7][C:4]([H:9])([H:10])[C:5]1([H:11])[H:12])[H:8]"
O        2.11541571      -1.31621776      -0.74158945
C        1.56398698      -0.25704475      -0.92736271
C        0.25513055       0.09958950      -0.40567370
C       -0.72416997      -0.14689224       1.25337906
C       -0.72297333      -0.97121255       0.03155990
C       -0.25040836       1.41129068      -0.47887186
O       -1.03546453       1.72977065       0.45298067
H        2.07286106       0.54571590      -1.49973025
H       -1.70312374       0.03581632       1.68048277
H        0.00221466      -0.37266116       2.02726601
H       -1.64307210      -1.02432293      -0.54038073
H       -0.23421352      -1.93652413       0.14608365
H        0.30381660       2.20269246      -0.99814336
13
Frame=13 idx=006419 GeodesicLength=0.6924780345633537 rxn_smarts="[O:1]=[C:2]([C:3]1([C:6](=[O:7])[H:13])[C:4]([H:9])([H:10])[C:5]1([H:11])[H:12])[H:8]>>[O:1]=[C:2]([C:3]1=[C:6]([H:13])[O:7][C:4]([H:9])([H:10])[C:5]1([H:11])[H:12])[H:8]"
O        2.12535880      -1.30847183      -0.73508826
C        1.56705517      -0.25453767      -0.92545128
C        0.25565280       0.09687452      -0.40201535
C       -0.71307269      -0.13391836       1.24710436
C       -0.72528698      -0.97136831       0.02806174
C       -0.25383713       1.40676462      -0.48537152
O       -1.03558608       1.71988717       0.45415494
H        2.06993867       0.54820945      -1.50344778
H       -1.69325823       0.03247000       1.67944024
H        0.00067781      -0.37813931       2.02767274
H       -1.64630624      -1.01642374      -0.54288791
H       -0.25420321      -1.94342837       0.15303700
H        0.30286731       2.20208183      -0.99520892
13
Frame=14 idx=006419 GeodesicLength=0.7456482911254089 rxn_smarts="[O:1]=[C:2]([C:3]1([C:6](=[O:7])[H:13])[C:4]([H:9])([H:10])[C:5]1([H:11])[H:12])[H:8]>>[O:1]=[C:2]([C:3]1=[C:6]([H:13])[O:7][C:4]([H:9])([H:10])[C:5]1([H:11])[H:12])[H:8]"
O        2.13553346      -1.30044425      -0.72835005
C        1.57020846      -0.25195275      -0.92349210
C        0.25622293       0.09414625      -0.39837991
C       -0.70198389      -0.12138986       1.24092315
C       -0.72753821      -0.97151557       0.02452211
C       -0.25699019       1.40225679      -0.49153734
O       -1.03557707       1.71005599       0.45543995
H        2.06685568       0.55055367      -1.50752587
H       -1.68318208       0.02902755       1.67825945
H       -0.00108511      -0.38351825       2.02789887
H       -1.64939574      -1.00848944      -0.54547100
H       -0.27475750      -1.95011395       0.16017085
H        0.30168927       2.20138383      -0.99245810
13
Frame=15 idx=006419 GeodesicLength=0.7988224325350844 rxn_smarts="[O:1]=[C:2]([C:3]1([C:6](=[O:7])[H:13])[C:4]([H:9])([H:10])[C:5]1([H:11])[H:12])[H:8]>>[O:1]=[C:2]([C:3]1=[C:6]([H:13])[O:7][C:4]([H:9])([H:10])[C:5]1([H:11])[H:12])[H:8]"
O        2.14598141      -1.29204244      -0.72114835
C        1.57333943      -0.24936303      -0.92165511
C        0.25676170       0.09136782      -0.39488652
C       -0.69083608      -0.10931075       1.23480651
C       -0.72978837      -0.97167422       0.02090970
C       -0.25993608       1.39774645      -0.49744617
O       -1.03539895       1.70026515       0.45685118
H        2.06374706       0.55284680      -1.51167998
H       -1.67280541       0.02549338       1.67700428
H       -0.00288992      -0.38881794       2.02784188
H       -1.65245907      -1.00050629      -0.54807074
H       -0.29597831      -1.95658800       0.16741652
H        0.30026259       2.20058304      -0.98994318
13
Frame=16 idx=006419 GeodesicLength=0.8520181412997544 rxn_smarts="[O:1]=[C:2]([C:3]1([C:6](=[O:7])[H:13])[C:4]([H:9])([H:10])[C:5]1([H:11])[H:12])[H:8]>>[O:1]=[C:2]([C:3]1=[C:6]([H:13])[O:7][C:4]([H:9])([H:10])[C:5]1([H:11])[H:12])[H:8]"
O        2.15682198      -1.28310362      -0.71314057
C        1.57643764      -0.24677073      -0.91993442
C        0.25725241       0.08853781      -0.39155811
C       -0.67962145      -0.09769568       1.22873367
C       -0.73205106      -0.97184647       0.01718790
C       -0.26268171       1.39324284      -0.50309230
O       -1.03503817       1.69049589       0.45841768
H        2.06044438       0.55494612      -1.51621658
H       -1.66213102       0.02183936       1.67566835
H       -0.00468153      -0.39408220       2.02746472
H       -1.65551721      -0.99244379      -0.55070991
H       -0.31791148      -1.96282622       0.17471929
H        0.29867723       2.19970668      -0.98753971
