14
Frame=0 idx=004974 GeodesicLength=0.0 rxn_smarts="[O:1]([C:2]([C@@:3]1([H:10])[C:4]([H:11])([H:12])[C:5]([H:13])([H:14])[O:6]1)([H:8])[H:9])[H:7]>>[C:5](=[O:6])([H:13])[H:14].[O:1]([C:2]([C:3](=[C:4]([H:11])[H:12])[H:10])([H:8])[H:9])[H:7]"
O       -1.87338489       0.49290204      -0.57019512
C       -1.49475593      -0.64626338       0.11911810
C       -0.02913203      -0.83270013       0.16111566
C        0.88343717      -0.29469818      -0.76478815
C        1.22210012       0.97102936       0.35580836
O        0.08700010       1.30639798       0.94491513
H       -1.33292640       1.18550837      -0.12222083
H       -1.88048829      -0.67250620       1.14601995
H       -1.88733721      -1.54418476      -0.38931301
H        0.35307350      -1.48329826       0.94604195
H        1.80198524      -0.85116527      -0.92031289
H        0.43942760       0.14825119      -1.65023759
H        1.73387826       1.74995430      -0.24210016
H        1.97712274       0.47077297       0.98614855
14
Frame=1 idx=004974 GeodesicLength=0.08126077710721881 rxn_smarts="[O:1]([C:2]([C@@:3]1([H:10])[C:4]([H:11])([H:12])[C:5]([H:13])([H:14])[O:6]1)([H:8])[H:9])[H:7]>>[C:5](=[O:6])([H:13])[H:14].[O:1]([C:2]([C:3](=[C:4]([H:11])[H:12])[H:10])([H:8])[H:9])[H:7]"
O       -1.87440317       0.49533114      -0.57090575
C       -1.49803685      -0.64782937       0.11563950
C       -0.03047137      -0.82977718       0.16783899
C        0.88365206      -0.30271222      -0.76450117
C        1.23529355       0.98370288       0.36638514
O        0.09612883       1.29628313       0.95830526
H       -1.34214616       1.18969485      -0.11875179
H       -1.89021543      -0.67719917       1.14014210
H       -1.88945629      -1.54182058      -0.39900457
H        0.34506568      -1.49771693       0.94141981
H        1.79610195      -0.86747817      -0.92617410
H        0.44001681       0.14040131      -1.65027881
H        1.72537944       1.75559238      -0.25652770
H        2.00309095       0.50352793       0.99641308
14
Frame=2 idx=004974 GeodesicLength=0.16248035545718886 rxn_smarts="[O:1]([C:2]([C@@:3]1([H:10])[C:4]([H:11])([H:12])[C:5]([H:13])([H:14])[O:6]1)([H:8])[H:9])[H:7]>>[C:5](=[O:6])([H:13])[H:14].[O:1]([C:2]([C:3](=[C:4]([H:11])[H:12])[H:10])([H:8])[H:9])[H:7]"
O       -1.87529808       0.49783900      -0.57159812
C       -1.50125245      -0.64934960       0.11211812
C       -0.03180710      -0.82700477       0.17452730
C        0.88383115      -0.31106021      -0.76426303
C        1.24860080       0.99670229       0.37703268
O        0.10567743       1.28575740       0.97183780
H       -1.35144696       1.19391860      -0.11515339
H       -1.89982931      -0.68180981       1.13418736
H       -1.89163748      -1.53931756      -0.40870443
H        0.33667742      -1.51247430       0.93620168
H        1.79000237      -0.88417566      -0.93203997
H        0.44062859       0.13231969      -1.65034720
H        1.71655987       1.76067003      -0.27053831
H        2.02929374       0.53798490       1.00673951
14
Frame=3 idx=004974 GeodesicLength=0.24366378971561614 rxn_smarts="[O:1]([C:2]([C@@:3]1([H:10])[C:4]([H:11])([H:12])[C:5]([H:13])([H:14])[O:6]1)([H:8])[H:9])[H:7]>>[C:5](=[O:6])([H:13])[H:14].[O:1]([C:2]([C:3](=[C:4]([H:11])[H:12])[H:10])([H:8])[H:9])[H:7]"
O       -1.87606131       0.50042689      -0.57226519
C       -1.50439851      -0.65082463       0.10855714
C       -0.03313355      -0.82441173       0.18116118
C        0.88396723      -0.31976142      -0.76409627
C        1.26202245       1.01002573       0.38775459
O        0.11567896       1.27478862       0.98550451
H       -1.36082068       1.19817443      -0.11142304
H       -1.90931263      -0.68633173       1.12816554
H       -1.89389805      -1.53667116      -0.41840248
H        0.32790414      -1.52755221       0.93036723
H        1.78366955      -0.90127926      -0.93795233
H        0.44125425       0.12400800      -1.65045455
H        1.70747526       1.76514368      -0.28409171
H        2.05565289       0.57426480       1.01717539
14
Frame=4 idx=004974 GeodesicLength=0.3248243233403382 rxn_smarts="[O:1]([C:2]([C@@:3]1([H:10])[C:4]([H:11])([H:12])[C:5]([H:13])([H:14])[O:6]1)([H:8])[H:9])[H:7]>>[C:5](=[O:6])([H:13])[H:14].[O:1]([C:2]([C:3](=[C:4]([H:11])[H:12])[H:10])([H:8])[H:9])[H:7]"
O       -1.87668428       0.50309636      -0.57290057
C       -1.50747261      -0.65225615       0.10495878
C       -0.03444678      -0.82202933       0.18771798
C        0.88404973      -0.32883783      -0.76402727
C        1.27556303       1.02366869       0.39855437
O        0.12616849       1.26333722       0.99929893
H       -1.37025912       1.20245616      -0.10755683
H       -1.91864968      -0.69075933       1.12208527
H       -1.89625779      -1.53387801      -0.42808882
H        0.31873995      -1.54292766       0.92390151
H        1.77708214      -0.91881307      -0.94395776
H        0.44188331       0.11547123      -1.65061298
H        1.69818932       1.76896778      -0.29715003
H        2.08209428       0.61250394       1.02777744
14
Frame=5 idx=004974 GeodesicLength=0.4059582871197334 rxn_smarts="[O:1]([C:2]([C@@:3]1([H:10])[C:4]([H:11])([H:12])[C:5]([H:13])([H:14])[O:6]1)([H:8])[H:9])[H:7]>>[C:5](=[O:6])([H:13])[H:14].[O:1]([C:2]([C:3](=[C:4]([H:11])[H:12])[H:10])([H:8])[H:9])[H:7]"
O       -1.87716064       0.50584703      -0.57349286
C       -1.51047121      -0.65364525       0.10132934
C       -0.03574103      -0.81989296       0.19417294
C        0.88406957      -0.33831249      -0.76408574
C        1.28922308       1.03761441       0.40945193
O        0.13718301       1.25136889       1.01320451
H       -1.37974999       1.20675833      -0.10355713
H       -1.92781809      -0.69508488       1.11596285
H       -1.89874093      -1.53093044      -0.43774865
H        0.30919194      -1.55858566       0.91678941
H        1.77021811      -0.93680716      -0.95011757
H        0.44250891       0.10672589      -1.65083320
H        1.68879648       1.77207403      -0.30966076
H        2.10849080       0.65287025       1.03858495
14
Frame=6 idx=004974 GeodesicLength=0.48708344057371444 rxn_smarts="[O:1]([C:2]([C@@:3]1([H:10])[C:4]([H:11])([H:12])[C:5]([H:13])([H:14])[O:6]1)([H:8])[H:9])[H:7]>>[C:5](=[O:6])([H:13])[H:14].[O:1]([C:2]([C:3](=[C:4]([H:11])[H:12])[H:10])([H:8])[H:9])[H:7]"
O       -1.87747722       0.50868431      -0.57403624
C       -1.51339336      -0.65499316       0.09766883
C       -0.03701292      -0.81803759       0.20049953
C        0.88401514      -0.34821269      -0.76430177
C        1.30301398       1.05185571       0.42045167
O        0.14876623       1.23882778       1.02721893
H       -1.38928100       1.21107526      -0.09941406
H       -1.93680513      -0.69930284       1.10980482
H       -1.90137064      -1.52782512      -0.44737492
H        0.29925081      -1.57449673       0.90902508
H        1.76304471      -0.95529247      -0.95648409
H        0.44312039       0.09777408      -1.65112999
H        1.67936093       1.77442121      -0.32159094
H        2.13476806       0.69552224       1.04966313
14
Frame=7 idx=004974 GeodesicLength=0.5681971895961682 rxn_smarts="[O:1]([C:2]([C@@:3]1([H:10])[C:4]([H:11])([H:12])[C:5]([H:13])([H:14])[O:6]1)([H:8])[H:9])[H:7]>>[C:5](=[O:6])([H:13])[H:14].[O:1]([C:2]([C:3](=[C:4]([H:11])[H:12])[H:10])([H:8])[H:9])[H:7]"
O       -1.87762397       0.51161274      -0.57451790
C       -1.51623813      -0.65630075       0.09398193
C       -0.03825798      -0.81650263       0.20666712
C        0.88387420      -0.35856696      -0.76471142
C        1.31694286       1.06637375       0.43156372
O        0.16096726       1.22566057       1.04132860
H       -1.39883566       1.21540243      -0.09512200
H       -1.94559101      -0.70340595       1.10362630
H       -1.90417583      -1.52455292      -0.45695564
H        0.28892096      -1.59064028       0.90060269
H        1.75553171      -0.97430073      -0.96312091
H        0.44370796       0.08862635      -1.65151975
H        1.66998143       1.77594730      -0.33289726
H        2.16079619       0.74064707       1.06107453
14
Frame=8 idx=004974 GeodesicLength=0.649312615553234 rxn_smarts="[O:1]([C:2]([C@@:3]1([H:10])[C:4]([H:11])([H:12])[C:5]([H:13])([H:14])[O:6]1)([H:8])[H:9])[H:7]>>[C:5](=[O:6])([H:13])[H:14].[O:1]([C:2]([C:3](=[C:4]([H:11])[H:12])[H:10])([H:8])[H:9])[H:7]"
O       -1.87758784       0.51463663      -0.57492769
C       -1.51900699      -0.65757131       0.09027008
C       -0.03947769      -0.81533155       0.21264004
C        0.88362546      -0.36940691      -0.76535455
C        1.33102812       1.08113907       0.44280787
O        0.17383990       1.21179758       1.05551811
H       -1.40839395       1.21973311      -0.09067197
H       -1.95415845      -0.70738999       1.09743838
H       -1.90718856      -1.52110678      -0.46647853
H        0.27819700      -1.60699371       0.89152200
H        1.74763357      -0.99386625      -0.97009655
H        0.44425939       0.07929927      -1.65201751
H        1.66077075       1.77657957      -0.34353590
H        2.18645929       0.78848125       1.07288623
14
Frame=9 idx=004974 GeodesicLength=0.7305213361649702 rxn_smarts="[O:1]([C:2]([C@@:3]1([H:10])[C:4]([H:11])([H:12])[C:5]([H:13])([H:14])[O:6]1)([H:8])[H:9])[H:7]>>[C:5](=[O:6])([H:13])[H:14].[O:1]([C:2]([C:3](=[C:4]([H:11])[H:12])[H:10])([H:8])[H:9])[H:7]"
O       -1.87731884       0.51779271      -0.57524116
C       -1.52170345      -0.65879287       0.08653622
C       -0.04067052      -0.81460072       0.21838958
C        0.88327832      -0.38080806      -0.76625738
C        1.34535780       1.09604942       0.45435197
O        0.18745937       1.19710456       1.06981332
H       -1.41788681       1.22407714      -0.08604216
H       -1.96250531      -0.71123704       1.09125747
H       -1.91046919      -1.51744437      -0.47595772
H        0.26706884      -1.62362140       0.88177094
H        1.73930153      -1.01411979      -0.97753397
H        0.44481289       0.06984758      -1.65259591
H        1.65184436       1.77617043      -0.35342236
H        2.21143102       0.83958241       1.08493113
14
Frame=10 idx=004974 GeodesicLength=0.8117340860762567 rxn_smarts="[O:1]([C:2]([C@@:3]1([H:10])[C:4]([H:11])([H:12])[C:5]([H:13])([H:14])[O:6]1)([H:8])[H:9])[H:7]>>[C:5](=[O:6])([H:13])[H:14].[O:1]([C:2]([C:3](=[C:4]([H:11])[H:12])[H:10])([H:8])[H:9])[H:7]"
O       -1.87682437       0.52107268      -0.57543895
C       -1.52431980      -0.65997136       0.08279108
C       -0.04182612      -0.81432982       0.22387272
C        0.88279925      -0.39277683      -0.76748228
C        1.35989733       1.11114047       0.46608684
O        0.20188959       1.18155322       1.08416155
H       -1.42731506       1.22842511      -0.08121900
H       -1.97058648      -0.71494300       1.08510736
H       -1.91402726      -1.51357104      -0.48535603
H        0.25555292      -1.64045017       0.87134875
H        1.73049365      -1.03503565      -0.98547893
H        0.44531793       0.06024261      -1.65331682
H        1.64336176       1.77468483      -0.36253951
H        2.23558666       0.89395896       1.09746323
14
Frame=11 idx=004974 GeodesicLength=0.8929330671367193 rxn_smarts="[O:1]([C:2]([C@@:3]1([H:10])[C:4]([H:11])([H:12])[C:5]([H:13])([H:14])[O:6]1)([H:8])[H:9])[H:7]>>[C:5](=[O:6])([H:13])[H:14].[O:1]([C:2]([C:3](=[C:4]([H:11])[H:12])[H:10])([H:8])[H:9])[H:7]"
O       -1.87607495       0.52449912      -0.57549433
C       -1.52685205      -0.66109749       0.07904550
C       -0.04293448      -0.81456845       0.22905190
C        0.88218028      -0.40535880      -0.76907774
C        1.37467943       1.12637035       0.47804348
O        0.21721952       1.16505529       1.09854782
H       -1.43663392       1.23278437      -0.07617832
H       -1.97837335      -0.71848727       1.07901520
H       -1.91790324      -1.50946142      -0.49465800
H        0.24365687      -1.65748842       0.86024488
H        1.72117209      -1.05667241      -0.99401890
H        0.44577235       0.05049212      -1.65420130
H        1.63545493       1.77204177      -0.37085816
H        2.25863650       0.95189124       1.11053797
14
Frame=12 idx=004974 GeodesicLength=0.9740853065826418 rxn_smarts="[O:1]([C:2]([C@@:3]1([H:10])[C:4]([H:11])([H:12])[C:5]([H:13])([H:14])[O:6]1)([H:8])[H:9])[H:7]>>[C:5](=[O:6])([H:13])[H:14].[O:1]([C:2]([C:3](=[C:4]([H:11])[H:12])[H:10])([H:8])[H:9])[H:7]"
O       -1.87503581       0.52809184      -0.57538152
C       -1.52929423      -0.66216472       0.07531015
C       -0.04399012      -0.81536435       0.23388812
C        0.88140626      -0.41859308      -0.77109173
C        1.38975657       1.14168862       0.49025757
O        0.23354540       1.14750869       1.11294723
H       -1.44579353       1.23715923      -0.07089554
H       -1.98583539      -0.72185435       1.07300414
H       -1.92213123      -1.50509282      -0.50383999
H        0.23137794      -1.67473808       0.84845695
H        1.71127392      -1.07907696      -1.00324388
H        0.44617317       0.04061409      -1.65526411
H        1.62828323       1.76815248      -0.37836169
H        2.28026381       1.01366939       1.12421430
14
Frame=13 idx=004974 GeodesicLength=1.0551607753267442 rxn_smarts="[O:1]([C:2]([C@@:3]1([H:10])[C:4]([H:11])([H:12])[C:5]([H:13])([H:14])[O:6]1)([H:8])[H:9])[H:7]>>[C:5](=[O:6])([H:13])[H:14].[O:1]([C:2]([C:3](=[C:4]([H:11])[H:12])[H:10])([H:8])[H:9])[H:7]"
O       -1.87366729       0.53189058      -0.57505271
C       -1.53162856      -0.66314695       0.07161331
C       -0.04495667      -0.81677658       0.23833713
C        0.88048650      -0.43254617      -0.77359762
C        1.40516828       1.15701162       0.50280942
O        0.25099016       1.12883158       1.12732429
H       -1.45471675       1.24157781      -0.06534173
H       -1.99291292      -0.72499406       1.06714298
H       -1.92676360      -1.50041306      -0.51287799
H        0.21875866      -1.69223345       0.83596049
H        1.70075746      -1.10234053      -1.01330469
H        0.44653532       0.03062210      -1.65653849
H        1.62205602       1.76283332      -0.38495005
H        2.29989339       1.07968381       1.13847565
14
Frame=14 idx=004974 GeodesicLength=1.1361282181239813 rxn_smarts="[O:1]([C:2]([C@@:3]1([H:10])[C:4]([H:11])([H:12])[C:5]([H:13])([H:14])[O:6]1)([H:8])[H:9])[H:7]>>[C:5](=[O:6])([H:13])[H:14].[O:1]([C:2]([C:3](=[C:4]([H:11])[H:12])[H:10])([H:8])[H:9])[H:7]"
O       -1.87191184       0.53592224      -0.57447295
C       -1.53384638      -0.66403604       0.06796608
C       -0.04583617      -0.81885373       0.24235492
C        0.87938760      -0.44726348      -0.77665299
C        1.42100749       1.17227449       0.51572080
O        0.26967988       1.10886279       1.14165700
H       -1.46332726       1.24604071      -0.05947147
H       -1.99957480      -0.72789609       1.06144805
H       -1.93183078      -1.49538977      -0.52173862
H        0.20576878      -1.70997955       0.82275457
H        1.68952113      -1.12651127      -1.02429865
H        0.44685380       0.02053992      -1.65803429
H        1.61700015       1.75597605      -0.39063031
H        2.31710839       1.15031374       1.15339786
14
Frame=15 idx=004974 GeodesicLength=1.216923389800112 rxn_smarts="[O:1]([C:2]([C@@:3]1([H:10])[C:4]([H:11])([H:12])[C:5]([H:13])([H:14])[O:6]1)([H:8])[H:9])[H:7]>>[C:5](=[O:6])([H:13])[H:14].[O:1]([C:2]([C:3](=[C:4]([H:11])[H:12])[H:10])([H:8])[H:9])[H:7]"
O       -1.86968444       0.54022792      -0.57358109
C       -1.53592138      -0.66480347       0.06439648
C       -0.04661031      -0.82165368       0.24589311
C        0.87809590      -0.46280249      -0.78032483
C        1.43735672       1.18738705       0.52906557
O        0.28976474       1.08743743       1.15591128
H       -1.47150679       1.25055865      -0.05323054
H       -2.00576374      -0.73052213       1.05596650
H       -1.93736907      -1.48995081      -0.53038099
H        0.19240224      -1.72799823       0.80882372
H        1.67747433      -1.15165610      -1.03635887
H        0.44714940       0.01039983      -1.65976297
H        1.61340565       1.74737839      -0.39533005
H        2.33120676       1.22599764       1.16891267
14
Frame=16 idx=004974 GeodesicLength=1.2975739712868848 rxn_smarts="[O:1]([C:2]([C@@:3]1([H:10])[C:4]([H:11])([H:12])[C:5]([H:13])([H:14])[O:6]1)([H:8])[H:9])[H:7]>>[C:5](=[O:6])([H:13])[H:14].[O:1]([C:2]([C:3](=[C:4]([H:11])[H:12])[H:10])([H:8])[H:9])[H:7]"
O       -1.86688524       0.54489813      -0.57229366
C       -1.53783149      -0.66540619       0.06093034
C       -0.04725236      -0.82527768       0.24889290
C        0.87661067      -0.47927435      -0.78469037
C        1.45436725       1.20220126       0.54297043
O        0.31145853       1.06434591       1.17007425
H       -1.47910394       1.25517940      -0.04651995
H       -2.01141696      -0.73281551       1.05075312
H       -1.94345106      -1.48399729      -0.53878786
H        0.17864550      -1.74638254       0.79412276
H        1.66453004      -1.17792247      -1.04964358
H        0.44744050       0.00021879      -1.66174569
H        1.61162411       1.73682045      -0.39891082
H        2.34126445       1.30741208       1.18484814
