10
Frame=0 idx=007655 GeodesicLength=0.0 rxn_smarts="[N:1]#[C:2][c:3]1[c:4]([H:8])[o:5][c:6]([H:9])[c:7]1[H:10]>>[N:1]#[C:2][C@:3]1([H:8])[C-:4]=[O+:5][C:6]([H:9])=[C:7]1[H:10]"
N        3.09347502      -0.21984597       0.55309280
C        1.98736443      -0.01732385       0.33125336
C        0.59027026       0.18526715       0.06263210
C       -0.05934512       1.47566551       0.14521335
O       -1.37781231       1.14084653       0.00764706
C       -1.56706101      -0.20015049      -0.02690312
C       -0.40700414      -0.86561295      -0.00938618
H        0.57339688       0.96602104      -0.94399331
H       -2.59136286      -0.53616640      -0.07542427
H       -0.24192115      -1.92870056      -0.04413179
10
Frame=1 idx=007655 GeodesicLength=0.04103674466366768 rxn_smarts="[N:1]#[C:2][c:3]1[c:4]([H:8])[o:5][c:6]([H:9])[c:7]1[H:10]>>[N:1]#[C:2][C@:3]1([H:8])[C-:4]=[O+:5][C:6]([H:9])=[C:7]1[H:10]"
N        3.08986846      -0.22474076       0.56309664
C        1.98543780      -0.01874503       0.33582845
C        0.59254215       0.18423532       0.04788337
C       -0.06120057       1.47081469       0.14374519
O       -1.37819128       1.13985543       0.01239887
C       -1.56746734      -0.20303764      -0.02437562
C       -0.40653269      -0.86644746      -0.01929799
H        0.58029074       0.98671555      -0.95608890
H       -2.59216012      -0.53846406      -0.06553829
H       -0.24258715      -1.93018603      -0.03765172
10
Frame=2 idx=007655 GeodesicLength=0.08205219533909651 rxn_smarts="[N:1]#[C:2][c:3]1[c:4]([H:8])[o:5][c:6]([H:9])[c:7]1[H:10]>>[N:1]#[C:2][C@:3]1([H:8])[C-:4]=[O+:5][C:6]([H:9])=[C:7]1[H:10]"
N        3.08625630      -0.22964879       0.57206577
C        1.98336006      -0.02017965       0.34023484
C        0.59480194       0.18319333       0.03330658
C       -0.06292018       1.46594048       0.14199072
O       -1.37848332       1.13881175       0.01775934
C       -1.56783967      -0.20599618      -0.02024116
C       -0.40614228      -0.86733330      -0.02783741
H        0.58690774       1.00735025      -0.96795950
H       -2.59276481      -0.54068133      -0.05855003
H       -0.24317579      -1.93145656      -0.03076915
10
Frame=3 idx=007655 GeodesicLength=0.12308507643346658 rxn_smarts="[N:1]#[C:2][c:3]1[c:4]([H:8])[o:5][c:6]([H:9])[c:7]1[H:10]>>[N:1]#[C:2][C@:3]1([H:8])[C-:4]=[O+:5][C:6]([H:9])=[C:7]1[H:10]"
N        3.08213344      -0.23465331       0.58190244
C        1.98086968      -0.02168192       0.34521119
C        0.59704036       0.18216307       0.01855626
C       -0.06462793       1.46103386       0.13949073
O       -1.37869589       1.13772197       0.02203714
C       -1.56811986      -0.20901641      -0.01681318
C       -0.40576515      -0.86824377      -0.03658726
H        0.59409531       1.02831296      -0.97967710
H       -2.59334587      -0.54310859      -0.04849962
H       -0.24358408      -1.93252786      -0.02562059
10
Frame=4 idx=007655 GeodesicLength=0.1641024011398327 rxn_smarts="[N:1]#[C:2][c:3]1[c:4]([H:8])[o:5][c:6]([H:9])[c:7]1[H:10]>>[N:1]#[C:2][C@:3]1([H:8])[C-:4]=[O+:5][C:6]([H:9])=[C:7]1[H:10]"
N        3.07809302      -0.23956107       0.59054740
C        1.97827211      -0.02318727       0.34991294
C        0.59925710       0.18109074       0.00407351
C       -0.06618681       1.45612147       0.13671661
O       -1.37880871       1.13660135       0.02709253
C       -1.56836230      -0.21209498      -0.01151286
C       -0.40548118      -0.86921637      -0.04366409
H        0.60092407       1.04909430      -0.99118829
H       -2.59376966      -0.54535448      -0.04195512
H       -0.24393764      -1.93349369      -0.02002263
10
Frame=5 idx=007655 GeodesicLength=0.20512350160269657 rxn_smarts="[N:1]#[C:2][c:3]1[c:4]([H:8])[o:5][c:6]([H:9])[c:7]1[H:10]>>[N:1]#[C:2][C@:3]1([H:8])[C-:4]=[O+:5][C:6]([H:9])=[C:7]1[H:10]"
N        3.07378415      -0.24446379       0.59924437
C        1.97538806      -0.02473374       0.35480687
C        0.60145020       0.17999523      -0.01039438
C       -0.06769414       1.45119051       0.13341065
O       -1.37883693       1.13544869       0.03179907
C       -1.56852311      -0.21522778      -0.00595118
C       -0.40523036      -0.87022813      -0.05027623
H        0.60797987       1.07003011      -1.00249750
H       -2.59414060      -0.54763897      -0.03492476
H       -0.24417713      -1.93437214      -0.01521691
10
Frame=6 idx=007655 GeodesicLength=0.24613257576526437 rxn_smarts="[N:1]#[C:2][c:3]1[c:4]([H:8])[o:5][c:6]([H:9])[c:7]1[H:10]>>[N:1]#[C:2][C@:3]1([H:8])[C-:4]=[O+:5][C:6]([H:9])=[C:7]1[H:10]"
N        3.06952118      -0.24925756       0.60697162
C        1.97237555      -0.02629528       0.35948615
C        0.60360026       0.17883485      -0.02462215
C       -0.06909815       1.44624246       0.12984317
O       -1.37877009       1.13426339       0.03706020
C       -1.56862982      -0.21841692       0.00097967
C       -0.40505544      -0.87130410      -0.05557250
H        0.61482333       1.09089919      -1.01355897
H       -2.59439842      -0.54974419      -0.03052901
H       -0.24436840      -1.93522183      -0.01005817
10
Frame=7 idx=007655 GeodesicLength=0.2871445005452151 rxn_smarts="[N:1]#[C:2][c:3]1[c:4]([H:8])[o:5][c:6]([H:9])[c:7]1[H:10]>>[N:1]#[C:2][C@:3]1([H:8])[C-:4]=[O+:5][C:6]([H:9])=[C:7]1[H:10]"
N        3.06504605      -0.25398108       0.61465771
C        1.96912375      -0.02790847       0.36419791
C        0.60571534       0.17762019      -0.03879930
C       -0.07045394       1.44127028       0.12580909
O       -1.37861621       1.13304908       0.04214469
C       -1.56865366      -0.22165449       0.00828106
C       -0.40491621      -0.87242676      -0.06037135
H        0.62183653       1.11191222      -1.02439715
H       -2.59459715      -0.55182615      -0.02609267
H       -0.24448449      -1.93605483      -0.00542999
10
Frame=8 idx=007655 GeodesicLength=0.32816828154578176 rxn_smarts="[N:1]#[C:2][c:3]1[c:4]([H:8])[o:5][c:6]([H:9])[c:7]1[H:10]>>[N:1]#[C:2][C@:3]1([H:8])[C-:4]=[O+:5][C:6]([H:9])=[C:7]1[H:10]"
N        3.06023843      -0.25866365       0.62268439
C        1.96558913      -0.02958713       0.36900158
C        0.60780146       0.17635691      -0.05300422
C       -0.07178700       1.43627537       0.12122284
O       -1.37838498       1.13181021       0.04676939
C       -1.56858518      -0.22493312       0.01560064
C       -0.40479780      -0.87358141      -0.06504151
H        0.62917669       1.13316796      -1.03500939
H       -2.59472600      -0.55396793      -0.02058460
H       -0.24452476      -1.93687721      -0.00163911
10
Frame=9 idx=007655 GeodesicLength=0.36921520627522075 rxn_smarts="[N:1]#[C:2][c:3]1[c:4]([H:8])[o:5][c:6]([H:9])[c:7]1[H:10]>>[N:1]#[C:2][C@:3]1([H:8])[C-:4]=[O+:5][C:6]([H:9])=[C:7]1[H:10]"
N        3.05497777      -0.26335532       0.63138860
C        1.96174263      -0.03133639       0.37389731
C        0.60987266       0.17505782      -0.06732725
C       -0.07311840       1.43126181       0.11602034
O       -1.37808775       1.13054658       0.05072263
C       -1.56840363      -0.22824981       0.02268358
C       -0.40468176      -0.87475599      -0.06993205
H        0.63697150       1.15477842      -1.04538661
H       -2.59479034      -0.55624829      -0.01319843
H       -0.24448269      -1.93769883       0.00113189
10
Frame=10 idx=007655 GeodesicLength=0.4102553047745171 rxn_smarts="[N:1]#[C:2][c:3]1[c:4]([H:8])[o:5][c:6]([H:9])[c:7]1[H:10]>>[N:1]#[C:2][C@:3]1([H:8])[C-:4]=[O+:5][C:6]([H:9])=[C:7]1[H:10]"
N        3.04954920      -0.26794875       0.63990982
C        1.95772205      -0.03314181       0.37858448
C        0.61190141       0.17367908      -0.08156898
C       -0.07441031       1.42621481       0.11042648
O       -1.37770912       1.12924803       0.05476111
C       -1.56813572      -0.23161117       0.03028200
C       -0.40460762      -0.87598368      -0.07432839
H        0.64485817       1.17655130      -1.05547702
H       -2.59475325      -0.55845654      -0.00641427
H       -0.24441481      -1.93855128       0.00382477
10
Frame=11 idx=007655 GeodesicLength=0.4513288834238956 rxn_smarts="[N:1]#[C:2][c:3]1[c:4]([H:8])[o:5][c:6]([H:9])[c:7]1[H:10]>>[N:1]#[C:2][C@:3]1([H:8])[C-:4]=[O+:5][C:6]([H:9])=[C:7]1[H:10]"
N        3.04383655      -0.27249616       0.64859402
C        1.95348678      -0.03501028       0.38313097
C        0.61389484       0.17222686      -0.09581276
C       -0.07568928       1.42114062       0.10435787
O       -1.37725926       1.12792076       0.05861744
C       -1.56776542      -0.23501145       0.03806901
C       -0.40456001      -0.87725115      -0.07859854
H        0.65299710       1.19860220      -1.06527467
H       -2.59463160      -0.56069460       0.00073491
H       -0.24430970      -1.93942681       0.00618173
10
Frame=12 idx=007655 GeodesicLength=0.49242144129848847 rxn_smarts="[N:1]#[C:2][c:3]1[c:4]([H:8])[o:5][c:6]([H:9])[c:7]1[H:10]>>[N:1]#[C:2][C@:3]1([H:8])[C-:4]=[O+:5][C:6]([H:9])=[C:7]1[H:10]"
N        3.03774062      -0.27703676       0.65771150
C        1.94901945      -0.03693613       0.38752868
C        0.61586559       0.17071316      -0.11012762
C       -0.07696776       1.41604450       0.09773747
O       -1.37674148       1.12656404       0.06214098
C       -1.56727537      -0.23845029       0.04590635
C       -0.40453212      -0.87855128      -0.08297226
H        0.66147030       1.22099440      -1.07477557
H       -2.59442140      -0.56301764       0.00882774
H       -0.24415783      -1.94032402       0.00802272
10
Frame=13 idx=007655 GeodesicLength=0.5335277529197056 rxn_smarts="[N:1]#[C:2][c:3]1[c:4]([H:8])[o:5][c:6]([H:9])[c:7]1[H:10]>>[N:1]#[C:2][C@:3]1([H:8])[C-:4]=[O+:5][C:6]([H:9])=[C:7]1[H:10]"
N        3.03112865      -0.28158502       0.66760977
C        1.94427477      -0.03891834       0.39185098
C        0.61782560       0.16914516      -0.12458911
C       -0.07827264       1.41092558       0.09045227
O       -1.37617385       1.12517310       0.06503362
C       -1.56664223      -0.24192566       0.05363907
C       -0.40451398      -0.87987189      -0.08771109
H        0.67041692       1.24377673      -1.08398215
H       -2.59407904      -0.56547803       0.01874291
H       -0.24396420      -1.94124164       0.00895371
10
Frame=14 idx=007655 GeodesicLength=0.5746617943075578 rxn_smarts="[N:1]#[C:2][c:3]1[c:4]([H:8])[o:5][c:6]([H:9])[c:7]1[H:10]>>[N:1]#[C:2][C@:3]1([H:8])[C-:4]=[O+:5][C:6]([H:9])=[C:7]1[H:10]"
N        3.02412329      -0.28611280       0.67792142
C        1.93930123      -0.04094353       0.39603605
C        0.61976205       0.16750493      -0.13908974
C       -0.07959854       1.40579135       0.08256077
O       -1.37555206       1.12375571       0.06756743
C       -1.56587588      -0.24543348       0.06147680
C       -0.40452739      -0.88122535      -0.09257088
H        0.67973063       1.26688734      -1.09285248
H       -2.59361495      -0.56802378       0.02961419
H       -0.24374839      -1.94220039       0.00933643
10
Frame=15 idx=007655 GeodesicLength=0.6158171290701273 rxn_smarts="[N:1]#[C:2][c:3]1[c:4]([H:8])[o:5][c:6]([H:9])[c:7]1[H:10]>>[N:1]#[C:2][C@:3]1([H:8])[C-:4]=[O+:5][C:6]([H:9])=[C:7]1[H:10]"
N        3.01676580      -0.29058615       0.68853560
C        1.93411768      -0.04300579       0.40007433
C        0.62167172       0.16577587      -0.15358722
C       -0.08095044       1.40063530       0.07407066
O       -1.37487616       1.12230966       0.06981144
C       -1.56497821      -0.24896854       0.06945226
C       -0.40458189      -0.88261956      -0.09747145
H        0.68938588       1.29029533      -1.10135973
H       -2.59302103      -0.57062369       0.04122363
H       -0.24353335      -1.94321245       0.00925049
10
Frame=16 idx=007655 GeodesicLength=0.6569885943231857 rxn_smarts="[N:1]#[C:2][c:3]1[c:4]([H:8])[o:5][c:6]([H:9])[c:7]1[H:10]>>[N:1]#[C:2][C@:3]1([H:8])[C-:4]=[O+:5][C:6]([H:9])=[C:7]1[H:10]"
N        3.00908965      -0.29497344       0.69937137
C        1.92873996      -0.04509906       0.40396171
C        0.62355229       0.16394058      -0.16805036
C       -0.08233331       1.39545107       0.06498213
O       -1.37414400       1.12083443       0.07182452
C       -1.56395063      -0.25252504       0.07757915
C       -0.40468572      -0.88406168      -0.10235781
H        0.69936375       1.31397663      -1.10948233
H       -2.59229243      -0.57325221       0.05341664
H       -0.24333955      -1.94429129       0.00875498
