17
Frame=0 idx=009651 GeodesicLength=0.0 rxn_smarts="[C:1]([C@@:2]12[C:3]([H:11])([H:12])[C@@:4]([H:13])([C:5]([H:14])([H:15])[C:6]1([H:16])[H:17])[O:7]2)([H:8])([H:9])[H:10]>>[C:1]([C:2](=[C:3]([H:11])[H:12])[C:6]([C:5]([C:4](=[O:7])[H:13])([H:14])[H:15])([H:16])[H:17])([H:8])([H:9])[H:10]"
C        2.00730020       0.43839288       0.25049905
C        0.58129929       0.15474051       0.41227398
C        0.05210658      -1.16262264       0.58088451
C       -0.81792981      -0.94293435      -0.84074498
C       -1.62660731       0.30412694      -0.36426338
C       -0.50982058       1.15328106       0.26716611
O        0.08147718      -0.66545797      -1.75034273
H        2.23279351       1.49940497       0.16381131
H        2.25061487      -0.06574670      -0.69740491
H        2.60591696      -0.03477505       1.03081308
H       -0.67588602      -1.26760558       1.38616554
H        0.76752547      -1.97819612       0.53503079
H       -1.48502742      -1.80904260      -1.03185527
H       -2.40973653       0.04043269       0.35183789
H       -2.08941437       0.79829340      -1.21860689
H       -0.18579947       2.00066820      -0.33458009
H       -0.77881257       1.53704041       1.25931595
17
Frame=1 idx=009651 GeodesicLength=0.07958771303177964 rxn_smarts="[C:1]([C@@:2]12[C:3]([H:11])([H:12])[C@@:4]([H:13])([C:5]([H:14])([H:15])[C:6]1([H:16])[H:17])[O:7]2)([H:8])([H:9])[H:10]>>[C:1]([C:2](=[C:3]([H:11])[H:12])[C:6]([C:5]([C:4](=[O:7])[H:13])([H:14])[H:15])([H:16])[H:17])([H:8])([H:9])[H:10]"
C        2.01319572       0.43996477       0.25516850
C        0.58559514       0.14602148       0.39474103
C        0.05867297      -1.17012869       0.57737757
C       -0.83751921      -0.93930836      -0.85421085
C       -1.63393038       0.30491712      -0.35705611
C       -0.50645989       1.14828845       0.26299186
O        0.06977098      -0.64776071      -1.75259679
H        2.23174464       1.49796397       0.12301776
H        2.29298456      -0.10328777      -0.65968290
H        2.59226461       0.01925732       1.07915746
H       -0.66943690      -1.27831514       1.38169250
H        0.77438549      -1.98540651       0.53071222
H       -1.50505129      -1.80058723      -1.05999346
H       -2.40586511       0.03569109       0.36891992
H       -2.11064280       0.80527891      -1.20013081
H       -0.18761799       1.99201541      -0.34698097
H       -0.76209053       1.53539589       1.25687306
17
Frame=2 idx=009651 GeodesicLength=0.15894942927170916 rxn_smarts="[C:1]([C@@:2]12[C:3]([H:11])([H:12])[C@@:4]([H:13])([C:5]([H:14])([H:15])[C:6]1([H:16])[H:17])[O:7]2)([H:8])([H:9])[H:10]>>[C:1]([C:2](=[C:3]([H:11])[H:12])[C:6]([C:5]([C:4](=[O:7])[H:13])([H:14])[H:15])([H:16])[H:17])([H:8])([H:9])[H:10]"
C        2.01892099       0.44146240       0.25976805
C        0.59006389       0.13703315       0.37708399
C        0.06555197      -1.17780397       0.57396226
C       -0.85720858      -0.93551428      -0.86774132
C       -1.64085793       0.30569012      -0.34982528
C       -0.50286700       1.14305782       0.25897921
O        0.05812629      -0.63075718      -1.75462183
H        2.23154752       1.49417491       0.08151173
H        2.33486278      -0.13939954      -0.61866236
H        2.57607919       0.07558357       1.12418746
H       -0.66299398      -1.28927894       1.37700280
H        0.78158982      -1.99277738       0.52679718
H       -1.52561952      -1.79130997      -1.08843096
H       -2.40155450       0.03076762       0.38566733
H       -2.13112644       0.81249156      -1.18126408
H       -0.18925671       1.98327920      -0.35887344
H       -0.74525780       1.53330090       1.25445926
17
Frame=3 idx=009651 GeodesicLength=0.23810318664495328 rxn_smarts="[C:1]([C@@:2]12[C:3]([H:11])([H:12])[C@@:4]([H:13])([C:5]([H:14])([H:15])[C:6]1([H:16])[H:17])[O:7]2)([H:8])([H:9])[H:10]>>[C:1]([C:2](=[C:3]([H:11])[H:12])[C:6]([C:5]([C:4](=[O:7])[H:13])([H:14])[H:15])([H:16])[H:17])([H:8])([H:9])[H:10]"
C        2.02448228       0.44289323       0.26438284
C        0.59471661       0.12776071       0.35924321
C        0.07277096      -1.18565856       0.57060409
C       -0.87705451      -0.93154650      -0.88133325
C       -1.64740925       0.30643305      -0.34254482
C       -0.49901560       1.13757462       0.25506779
O        0.04645510      -0.61445501      -1.75647467
H        2.23227845       1.48797888       0.03954016
H        2.37622127      -0.17382154      -0.57424643
H        2.55736677       0.13407863       1.16575928
H       -0.65651044      -1.30050898       1.37207521
H        0.78917154      -2.00031576       0.52321152
H       -1.54680698      -1.78117392      -1.11712926
H       -2.39679177       0.02565084       0.40214627
H       -2.15092645       0.81990937      -1.16195529
H       -0.19067613       1.97442397      -0.37035044
H       -0.72827184       1.53077696       1.25200380
17
Frame=4 idx=009651 GeodesicLength=0.3170661814036868 rxn_smarts="[C:1]([C@@:2]12[C:3]([H:11])([H:12])[C@@:4]([H:13])([C:5]([H:14])([H:15])[C:6]1([H:16])[H:17])[O:7]2)([H:8])([H:9])[H:10]>>[C:1]([C:2](=[C:3]([H:11])[H:12])[C:6]([C:5]([C:4](=[O:7])[H:13])([H:14])[H:15])([H:16])[H:17])([H:8])([H:9])[H:10]"
C        2.02987248       0.44427384       0.26909289
C        0.59955677       0.11819795       0.34117305
C        0.08035023      -1.19370093       0.56727705
C       -0.89710488      -0.92739121      -0.89498165
C       -1.65360463       0.30713335      -0.33519329
C       -0.49489480       1.13182554       0.25120575
O        0.03468785      -0.59885484      -1.75820430
H        2.23403053       1.47930970      -0.00263847
H        2.41701557      -0.20631824      -0.52628402
H        2.53618809       0.19460585       1.20361508
H       -0.64995380      -1.31201613       1.36688106
H        0.79716053      -2.00802636       0.51990200
H       -1.56867201      -1.77012866      -1.14605397
H       -2.39157098       0.02032675       0.41840810
H       -2.17009269       0.82751038      -1.14215496
H       -0.19185100       1.96541367      -0.38148863
H       -0.71111728       1.52783934       1.24944431
17
Frame=5 idx=009651 GeodesicLength=0.3958436831733507 rxn_smarts="[C:1]([C@@:2]12[C:3]([H:11])([H:12])[C@@:4]([H:13])([C:5]([H:14])([H:15])[C:6]1([H:16])[H:17])[O:7]2)([H:8])([H:9])[H:10]>>[C:1]([C:2](=[C:3]([H:11])[H:12])[C:6]([C:5]([C:4](=[O:7])[H:13])([H:14])[H:15])([H:16])[H:17])([H:8])([H:9])[H:10]"
C        2.03505017       0.44569824       0.27391143
C        0.60456559       0.10838715       0.32281632
C        0.08833115      -1.20187707       0.56396869
C       -0.91739972      -0.92304503      -0.90868987
C       -1.65948459       0.30777670      -0.32777704
C       -0.49054070       1.12584234       0.24733307
O        0.02276221      -0.58395264      -1.75984969
H        2.23676165       1.46817730      -0.04455225
H        2.45716152      -0.23683769      -0.47464847
H        2.51293796       0.25673185       1.23742208
H       -0.64327475      -1.32379234       1.36141562
H        0.80563361      -2.01581445       0.51687374
H       -1.59123330      -1.75816025      -1.17518239
H       -2.38590320       0.01476571       0.43446647
H       -2.18870061       0.83525810      -1.12184985
H       -0.19283610       1.95627873      -0.39238625
H       -0.69383089       1.52456332       1.24672838
17
Frame=6 idx=009651 GeodesicLength=0.4744502352176426 rxn_smarts="[C:1]([C@@:2]12[C:3]([H:11])([H:12])[C@@:4]([H:13])([C:5]([H:14])([H:15])[C:6]1([H:16])[H:17])[O:7]2)([H:8])([H:9])[H:10]>>[C:1]([C:2](=[C:3]([H:11])[H:12])[C:6]([C:5]([C:4](=[O:7])[H:13])([H:14])[H:15])([H:16])[H:17])([H:8])([H:9])[H:10]"
C        2.04002561       0.44710884       0.27889971
C        0.60977419       0.09829070       0.30416026
C        0.09673171      -1.21022463       0.56065663
C       -0.93796887      -0.91849346      -0.92244736
C       -1.66503936       0.30835305      -0.32025921
C       -0.48591117       1.11958928       0.24342304
O        0.01063712      -0.56974300      -1.76144516
H        2.24066082       1.45449551      -0.08614163
H        2.49648820      -0.26500765      -0.41926071
H        2.48745346       0.32042759       1.26708004
H       -0.63644423      -1.33587306       1.35564578
H        0.81460057      -2.02372806       0.51404928
H       -1.61455092      -1.74520151      -1.20449593
H       -2.37975792       0.00896061       0.45038137
H       -2.20675758       0.84315221      -1.10097403
H       -0.19356462       1.94696016      -0.40308456
H       -0.67637700       1.52093340       1.24381249
17
Frame=7 idx=009651 GeodesicLength=0.5529003559009846 rxn_smarts="[C:1]([C@@:2]12[C:3]([H:11])([H:12])[C@@:4]([H:13])([C:5]([H:14])([H:15])[C:6]1([H:16])[H:17])[O:7]2)([H:8])([H:9])[H:10]>>[C:1]([C:2](=[C:3]([H:11])[H:12])[C:6]([C:5]([C:4](=[O:7])[H:13])([H:14])[H:15])([H:16])[H:17])([H:8])([H:9])[H:10]"
C        2.04478325       0.44850112       0.28409290
C        0.61518962       0.08790087       0.28520634
C        0.10558104      -1.21873217       0.55735335
C       -0.95882961      -0.91373184      -0.93624543
C       -1.67026997       0.30884950      -0.31263089
C       -0.48100117       1.11306316       0.23944210
O       -0.00171070      -0.55623684      -1.76300048
H        2.24584185       1.43821692      -0.12705332
H        2.53476238      -0.29055164      -0.36015685
H        2.45981948       0.38543600       1.29229408
H       -0.62944393      -1.34828293       1.34956922
H        0.82410551      -2.03172420       0.51143476
H       -1.63864324      -1.73121180      -1.23399043
H       -2.37311692       0.00289093       0.46617351
H       -2.22427453       0.85117716      -1.07949560
H       -0.19401610       1.93744711      -0.41364920
H       -0.65877697       1.51698867       1.24065593
17
Frame=8 idx=009651 GeodesicLength=0.631171917108605 rxn_smarts="[C:1]([C@@:2]12[C:3]([H:11])([H:12])[C@@:4]([H:13])([C:5]([H:14])([H:15])[C:6]1([H:16])[H:17])[O:7]2)([H:8])([H:9])[H:10]>>[C:1]([C:2](=[C:3]([H:11])[H:12])[C:6]([C:5]([C:4](=[O:7])[H:13])([H:14])[H:15])([H:16])[H:17])([H:8])([H:9])[H:10]"
C        2.04928990       0.44989228       0.28954495
C        0.62080480       0.07725262       0.26595032
C        0.11489626      -1.22738535       0.55405797
C       -0.98000338      -0.90874143      -0.95005834
C       -1.67518670       0.30924784      -0.30489373
C       -0.47582153       1.10626002       0.23534499
O       -0.01428691      -0.54342270      -1.76452369
H        2.25235320       1.41944325      -0.16707525
H        2.57170171      -0.31317064      -0.29737640
H        2.43035236       0.45128037       1.31295959
H       -0.62226003      -1.36100237       1.34316137
H        0.83418680      -2.03979316       0.50902405
H       -1.66353004      -1.71613754      -1.26360025
H       -2.36598510      -0.00346625       0.48183465
H       -2.24125824       0.85928500      -1.05740609
H       -0.19419846       1.92770550      -0.42413469
H       -0.64105461       1.51275256       1.23719053
17
Frame=9 idx=009651 GeodesicLength=0.7092583950825713 rxn_smarts="[C:1]([C@@:2]12[C:3]([H:11])([H:12])[C@@:4]([H:13])([C:5]([H:14])([H:15])[C:6]1([H:16])[H:17])[O:7]2)([H:8])([H:9])[H:10]>>[C:1]([C:2](=[C:3]([H:11])[H:12])[C:6]([C:5]([C:4](=[O:7])[H:13])([H:14])[H:15])([H:16])[H:17])([H:8])([H:9])[H:10]"
C        2.05350245       0.45138993       0.29515193
C        0.62659618       0.06641380       0.24637299
C        0.12471755      -1.23610840       0.55078070
C       -1.00149526      -0.90350337      -0.96389052
C       -1.67982073       0.30953218      -0.29706758
C       -0.47043436       1.09921133       0.23110049
O       -0.02709672      -0.53127919      -1.76601692
H        2.26010613       1.39827311      -0.20585723
H        2.60704814      -0.33289458      -0.23094905
H        2.39961136       0.51740720       1.32897902
H       -0.61486816      -1.37401276       1.33641251
H        0.84492937      -2.04781282       0.50686993
H       -1.68916747      -1.69995999      -1.29330997
H       -2.35838406      -0.01015306       0.49733541
H       -2.25774594       0.86743811      -1.03471445
H       -0.19421417       1.91778013      -0.43459341
H       -0.62328431       1.50827838       1.23339614
17
Frame=10 idx=009651 GeodesicLength=0.7871929666891905 rxn_smarts="[C:1]([C@@:2]12[C:3]([H:11])([H:12])[C@@:4]([H:13])([C:5]([H:14])([H:15])[C:6]1([H:16])[H:17])[O:7]2)([H:8])([H:9])[H:10]>>[C:1]([C:2](=[C:3]([H:11])[H:12])[C:6]([C:5]([C:4](=[O:7])[H:13])([H:14])[H:15])([H:16])[H:17])([H:8])([H:9])[H:10]"
C        2.05742507       0.45286706       0.30098605
C        0.63258540       0.05533056       0.22656912
C        0.13503549      -1.24493845       0.54757969
C       -1.02328736      -0.89801940      -0.97772198
C       -1.68414511       0.30969244      -0.28913872
C       -0.46481385       1.09189187       0.22672196
O       -0.04008704      -0.51982894      -1.76743862
H        2.26933197       1.37466366      -0.24320096
H        2.64041375      -0.34921958      -0.16116971
H        2.36754828       0.58368054       1.34010961
H       -0.60730233      -1.38737016       1.32933139
H        0.85631540      -2.05580857       0.50501039
H       -1.71555719      -1.68260314      -1.32315759
H       -2.35029707      -0.01717789       0.51268043
H       -2.27368929       0.87563848      -1.01139996
H       -0.19398130       1.90762468      -0.44503151
H       -0.60549482       1.50357684       1.22927040
17
Frame=11 idx=009651 GeodesicLength=0.864970483189009 rxn_smarts="[C:1]([C@@:2]12[C:3]([H:11])([H:12])[C@@:4]([H:13])([C:5]([H:14])([H:15])[C:6]1([H:16])[H:17])[O:7]2)([H:8])([H:9])[H:10]>>[C:1]([C:2](=[C:3]([H:11])[H:12])[C:6]([C:5]([C:4](=[O:7])[H:13])([H:14])[H:15])([H:16])[H:17])([H:8])([H:9])[H:10]"
C        2.06103475       0.45432241       0.30705881
C        0.63876248       0.04403455       0.20658250
C        0.14586622      -1.25384760       0.54450079
C       -1.04536796      -0.89227242      -0.99153355
C       -1.68815989       0.30971199      -0.28112436
C       -0.45898043       1.08430674       0.22219280
O       -0.05320921      -0.50907672      -1.76875765
H        2.28003019       1.34876366      -0.27886524
H        2.67141699      -0.36195304      -0.08841540
H        2.33451470       0.64964207       1.34638451
H       -0.59957357      -1.40106845       1.32191341
H        0.86839107      -2.06373769       0.50351863
H       -1.74266834      -1.66401772      -1.35311401
H       -2.34173806      -0.02456321       0.52782939
H       -2.28906892       0.88384753      -0.98748275
H       -0.19351622       1.89722652      -0.45547449
H       -0.58773381       1.49868136       1.22478662
17
Frame=12 idx=009651 GeodesicLength=0.9425976680991992 rxn_smarts="[C:1]([C@@:2]12[C:3]([H:11])([H:12])[C@@:4]([H:13])([C:5]([H:14])([H:15])[C:6]1([H:16])[H:17])[O:7]2)([H:8])([H:9])[H:10]>>[C:1]([C:2](=[C:3]([H:11])[H:12])[C:6]([C:5]([C:4](=[O:7])[H:13])([H:14])[H:15])([H:16])[H:17])([H:8])([H:9])[H:10]"
C        2.06430995       0.45576019       0.31333748
C        0.64511129       0.03255228       0.18647790
C        0.15721169      -1.26280853       0.54160444
C       -1.06771460      -0.88624845      -1.00531519
C       -1.69187066       0.30957295      -0.27304382
C       -0.45297256       1.07646140       0.21751749
O       -0.06640170      -0.49902900      -1.76992913
H        2.29220011       1.32068125      -0.31260299
H        2.69971082      -0.37090750      -0.01305535
H        2.30091899       0.71486482       1.34776769
H       -0.59171828      -1.41510635       1.31416630
H        0.88118388      -2.07155199       0.50250048
H       -1.77044276      -1.64413349      -1.38318833
H       -2.33273240      -0.03234401       0.54273312
H       -2.30386550       0.89202996      -0.96298643
H       -0.19285504       1.88658952      -0.46592981
H       -0.57007323       1.49361695       1.21994614
17
Frame=13 idx=009651 GeodesicLength=1.020100647353349 rxn_smarts="[C:1]([C@@:2]12[C:3]([H:11])([H:12])[C@@:4]([H:13])([C:5]([H:14])([H:15])[C:6]1([H:16])[H:17])[O:7]2)([H:8])([H:9])[H:10]>>[C:1]([C:2](=[C:3]([H:11])[H:12])[C:6]([C:5]([C:4](=[O:7])[H:13])([H:14])[H:15])([H:16])[H:17])([H:8])([H:9])[H:10]"
C        2.06723612       0.45722175       0.31970839
C        0.65160054       0.02092544       0.16629632
C        0.16908445      -1.27178298       0.53892868
C       -1.09031707      -0.87991492      -1.01907752
C       -1.69529744       0.30925973      -0.26492032
C       -0.44684734       1.06836457       0.21271496
O       -0.07962344      -0.48967312      -1.77091828
H        2.30571069       1.29053110      -0.34430705
H        2.72505593      -0.37613293       0.06464104
H        2.26726668       0.77902260       1.34439122
H       -0.58376998      -1.42948937       1.30607405
H        0.89475401      -2.07917264       0.50206566
H       -1.79880985      -1.62287765      -1.41339956
H       -2.32332169      -0.04056841       0.55733260
H       -2.31807052       0.90016249      -0.93793634
H       -0.19207069       1.87573977      -0.47637393
H       -0.55258040       1.48838457       1.21478006
17
Frame=14 idx=009651 GeodesicLength=1.0974840209548966 rxn_smarts="[C:1]([C@@:2]12[C:3]([H:11])([H:12])[C@@:4]([H:13])([C:5]([H:14])([H:15])[C:6]1([H:16])[H:17])[O:7]2)([H:8])([H:9])[H:10]>>[C:1]([C:2](=[C:3]([H:11])[H:12])[C:6]([C:5]([C:4](=[O:7])[H:13])([H:14])[H:15])([H:16])[H:17])([H:8])([H:9])[H:10]"
C        2.06980559       0.45861727       0.32624085
C        0.65823239       0.00912734       0.14616244
C        0.18146069      -1.28077525       0.53657612
C       -1.11313058      -0.87326801      -1.03281174
C       -1.69842467       0.30876055      -0.25676504
C       -0.44060633       1.06000771       0.20782155
O       -0.09275944      -0.48103632      -1.77164961
H        2.32064223       1.25844112      -0.37377631
H        2.74708040      -0.37734272       0.14401520
H        2.23372433       0.84186340       1.33621363
H       -0.57578582      -1.44426029       1.29765526
H        0.90907432      -2.08659218       0.50234758
H       -1.82771411      -1.60017998      -1.44379736
H       -2.31352823      -0.04924713       0.57158549
H       -2.33164077       0.90823223      -0.91235732
H       -0.19112720       1.86464966      -0.48677992
H       -0.53530280       1.48300262       1.20931919
17
Frame=15 idx=009651 GeodesicLength=1.1747633983321442 rxn_smarts="[C:1]([C@@:2]12[C:3]([H:11])([H:12])[C@@:4]([H:13])([C:5]([H:14])([H:15])[C:6]1([H:16])[H:17])[O:7]2)([H:8])([H:9])[H:10]>>[C:1]([C:2](=[C:3]([H:11])[H:12])[C:6]([C:5]([C:4](=[O:7])[H:13])([H:14])[H:15])([H:16])[H:17])([H:8])([H:9])[H:10]"
C        2.07201351       0.45995989       0.33290143
C        0.66498743      -0.00282315       0.12614911
C        0.19433968      -1.28976568       0.53461372
C       -1.13612691      -0.86627376      -1.04652460
C       -1.70125944       0.30806031      -0.24859468
C       -0.43428479       1.05139065       0.20286933
O       -0.10573772      -0.47312039      -1.77207240
H        2.33689660       1.22453954      -0.40093975
H        2.76560056      -0.37458768       0.22455999
H        2.20058482       0.90317868       1.32340727
H       -0.56781307      -1.45943585       1.28890479
H        0.92417188      -2.09377080       0.50347925
H       -1.85707523      -1.57594365      -1.47441202
H       -2.30338931      -0.05842060       0.58543882
H       -2.34455646       0.91621621      -0.88626965
H       -0.19005913       1.85332571      -0.49711365
H       -0.51829240       1.47747059       1.20360303
17
Frame=16 idx=009651 GeodesicLength=1.2519433237820612 rxn_smarts="[C:1]([C@@:2]12[C:3]([H:11])([H:12])[C@@:4]([H:13])([C:5]([H:14])([H:15])[C:6]1([H:16])[H:17])[O:7]2)([H:8])([H:9])[H:10]>>[C:1]([C:2](=[C:3]([H:11])[H:12])[C:6]([C:5]([C:4](=[O:7])[H:13])([H:14])[H:15])([H:16])[H:17])([H:8])([H:9])[H:10]"
C        2.07384934       0.46125622       0.33967499
C        0.67184173      -0.01491919       0.10632928
C        0.20771286      -1.29873680       0.53312321
C       -1.15928919      -0.85890300      -1.06022327
C       -1.70381151       0.30714723      -0.24043748
C       -0.42791521       1.04250796       0.19788630
O       -0.11849358      -0.46595162      -1.77213623
H        2.35434172       1.18898087      -0.42566174
H        2.78045151      -0.36781795       0.30567114
H        2.16819152       0.96268596       1.30615787
H       -0.55990633      -1.47502412       1.27982133
H        0.94006843      -2.10066724       0.50563339
H       -1.88681945      -1.55007462      -1.50525994
H       -2.29295466      -0.06811411       0.59882280
H       -2.35678827       0.92408760      -0.85972094
H       -0.18889372       1.84175850      -0.50734533
H       -0.50158519       1.47178431       1.19766461
