16
Frame=0 idx=001221 GeodesicLength=0.0 rxn_smarts="[C:1]([C:2]([C@@:3]([C:4]([H:13])([H:14])[H:15])([C:5](=[O:6])[H:16])[H:12])([H:10])[H:11])([H:7])([H:8])[H:9]>>[C-:5]#[O+:6].[C:1]([C:2]([C:3](=[C:4]([H:14])[H:15])[H:12])([H:10])[H:11])([H:7])([H:8])[H:9].[H:13][H:16]"
C        2.05565131      -0.30845570      -0.19638074
C        0.72661312      -0.80872801       0.35102469
C       -0.48844850      -0.30993574      -0.39735982
C       -1.76108887      -0.51888147       0.10102603
C       -0.37068089       1.75130676      -0.17889662
O       -0.16603163       2.54876958      -0.96938548
H        2.14238853       0.77682945      -0.11773447
H        2.89256611      -0.74865380       0.34767679
H        2.17013713      -0.57502012      -1.24993107
H        0.71861170      -1.90362327       0.31925055
H        0.62571935      -0.53917523       1.40704814
H       -0.37417024      -0.21123851      -1.47419299
H       -2.04979358       0.83611299       0.76837900
H       -2.61409975      -0.52830517      -0.56778925
H       -1.88980217      -1.06973881       1.02774835
H       -1.61757161       1.60873709       0.82951696
16
Frame=1 idx=001221 GeodesicLength=0.07543437295837134 rxn_smarts="[C:1]([C:2]([C@@:3]([C:4]([H:13])([H:14])[H:15])([C:5](=[O:6])[H:16])[H:12])([H:10])[H:11])([H:7])([H:8])[H:9]>>[C-:5]#[O+:6].[C:1]([C:2]([C:3](=[C:4]([H:14])[H:15])[H:12])([H:10])[H:11])([H:7])([H:8])[H:9].[H:13][H:16]"
C        2.05841358      -0.31958495      -0.20767147
C        0.72707127      -0.79231632       0.35850475
C       -0.48690311      -0.29642343      -0.39307304
C       -1.76250352      -0.52882929       0.09537530
C       -0.37723566       1.77336167      -0.16036511
O       -0.14150015       2.56263359      -0.95174023
H        2.15559314       0.76656715      -0.15985843
H        2.89367247      -0.75175137       0.34536607
H        2.16647077      -0.61704844      -1.25359656
H        0.70787276      -1.88745280       0.35410104
H        0.63618280      -0.49691012       1.40855188
H       -0.37252269      -0.19619678      -1.47000483
H       -2.06665823       0.82153459       0.78018266
H       -2.60899042      -0.53939362      -0.58226791
H       -1.89209661      -1.11339907       1.00114681
H       -1.63686640       1.61520917       0.83534908
16
Frame=2 idx=001221 GeodesicLength=0.15059904978013075 rxn_smarts="[C:1]([C:2]([C@@:3]([C:4]([H:13])([H:14])[H:15])([C:5](=[O:6])[H:16])[H:12])([H:10])[H:11])([H:7])([H:8])[H:9]>>[C-:5]#[O+:6].[C:1]([C:2]([C:3](=[C:4]([H:14])[H:15])[H:12])([H:10])[H:11])([H:7])([H:8])[H:9].[H:13][H:16]"
C        2.06049753      -0.33061863      -0.21862096
C        0.72744766      -0.77576600       0.36585672
C       -0.48570086      -0.28304583      -0.38868939
C       -1.76371300      -0.53888978       0.09006102
C       -0.38395245       1.79539846      -0.14251211
O       -0.11568070       2.57580906      -0.93370840
H        2.16770516       0.75546403      -0.20142579
H        2.89448659      -0.75440955       0.34282045
H        2.16162453      -0.65838440      -1.25614673
H        0.69751841      -1.87036802       0.38880792
H        0.64676911      -0.45484607       1.40928661
H       -0.37134932      -0.18164253      -1.46577675
H       -2.08303355       0.80663991       0.79231644
H       -2.60377188      -0.55016829      -0.59614298
H       -1.89294958      -1.15723178       0.97325069
H       -1.65589765       1.62205942       0.84062327
16
Frame=3 idx=001221 GeodesicLength=0.22555322822515728 rxn_smarts="[C:1]([C:2]([C@@:3]([C:4]([H:13])([H:14])[H:15])([C:5](=[O:6])[H:16])[H:12])([H:10])[H:11])([H:7])([H:8])[H:9]>>[C-:5]#[O+:6].[C:1]([C:2]([C:3](=[C:4]([H:14])[H:15])[H:12])([H:10])[H:11])([H:7])([H:8])[H:9].[H:13][H:16]"
C        2.06192104      -0.34159043      -0.22924394
C        0.72773718      -0.75903479       0.37309249
C       -0.48483839      -0.26978649      -0.38422253
C       -1.76471238      -0.54908975       0.08506393
C       -0.39087311       1.81746001      -0.12536092
O       -0.08864701       2.58828331      -0.91517956
H        2.17877952       0.74351579      -0.24250248
H        2.89499906      -0.75668784       0.34005835
H        2.15564151      -0.69911567      -1.25760628
H        0.68752918      -1.85234044       0.42343498
H        0.65748451      -0.41287106       1.40924671
H       -0.37062109      -0.16754700      -1.46151536
H       -2.09895164       0.79139180       0.80478392
H       -2.59845486      -0.56064268      -0.60943027
H       -1.89233602      -1.20120668       0.94396571
H       -1.67465750       1.62926191       0.84541526
16
Frame=4 idx=001221 GeodesicLength=0.30033564661184214 rxn_smarts="[C:1]([C:2]([C@@:3]([C:4]([H:13])([H:14])[H:15])([C:5](=[O:6])[H:16])[H:12])([H:10])[H:11])([H:7])([H:8])[H:9]>>[C-:5]#[O+:6].[C:1]([C:2]([C:3](=[C:4]([H:14])[H:15])[H:12])([H:10])[H:11])([H:7])([H:8])[H:9].[H:13][H:16]"
C        2.06269974      -0.35253897      -0.23955620
C        0.72793720      -0.74206073       0.38021752
C       -0.48431100      -0.25662338      -0.37968995
C       -1.76549017      -0.55946141       0.08036142
C       -0.39805522       1.83959296      -0.10893873
O       -0.06046246       2.60005620      -0.89599489
H        2.18884425       0.73069085      -0.28322024
H        2.89519928      -0.75861542       0.33711576
H        2.14854918      -0.73940796      -1.25795586
H        0.67788848      -1.83330793       0.45806845
H        0.66834149      -0.37085145       1.40840377
H       -0.37031276      -0.15387017      -1.45723361
H       -2.11444061       0.77573937       0.81759372
H       -2.59304344      -0.57081662      -0.62215051
H       -1.89020611      -1.24530264       0.91316000
H       -1.69313784       1.63677729       0.84981936
16
Frame=5 idx=001221 GeodesicLength=0.37497023487271486 rxn_smarts="[C:1]([C:2]([C@@:3]([C:4]([H:13])([H:14])[H:15])([C:5](=[O:6])[H:16])[H:12])([H:10])[H:11])([H:7])([H:8])[H:9]>>[C-:5]#[O+:6].[C:1]([C:2]([C:3](=[C:4]([H:14])[H:15])[H:12])([H:10])[H:11])([H:7])([H:8])[H:9].[H:13][H:16]"
C        2.06284032      -0.36350451      -0.24956895
C        0.72804333      -0.72480381       0.38722766
C       -0.48412174      -0.24354446      -0.37511467
C       -1.76604261      -0.57003448       0.07593666
C       -0.40554404       1.86183389      -0.09329483
O       -0.03117806       2.61109422      -0.87601722
H        2.19792536       0.71695526      -0.32366063
H        2.89508502      -0.76021487       0.33401899
H        2.14037697      -0.77934838      -1.25717410
H        0.66857610      -1.81321523       0.49277864
H        0.67934459      -0.32867357       1.40672812
H       -0.37041079      -0.14059143      -1.45295192
H       -2.12952867       0.75963889       0.83074160
H       -2.58755530      -0.58069752      -0.63431018
H       -1.88650379      -1.28946225       0.88071776
H       -1.71130668       1.64456826       0.85394308
16
Frame=6 idx=001221 GeodesicLength=0.449505893268341 rxn_smarts="[C:1]([C:2]([C@@:3]([C:4]([H:13])([H:14])[H:15])([C:5](=[O:6])[H:16])[H:12])([H:10])[H:11])([H:7])([H:8])[H:9]>>[C-:5]#[O+:6].[C:1]([C:2]([C:3](=[C:4]([H:14])[H:15])[H:12])([H:10])[H:11])([H:7])([H:8])[H:9].[H:13][H:16]"
C        2.06234603      -0.37452350      -0.25928734
C        0.72804747      -0.70720432       0.39412420
C       -0.48427248      -0.23053703      -0.37052141
C       -1.76635334      -0.58085105       0.07176675
C       -0.41339759       1.88422097      -0.07849458
O       -0.00083434       2.62136188      -0.85506875
H        2.20603157       0.70225613      -0.36391362
H        2.89464646      -0.76151156       0.33078911
H        2.13113963      -0.81905180      -1.25522532
H        0.65956601      -1.79197227       0.52764242
H        0.69049656      -0.28621089       1.40415226
H       -0.37089680      -0.12768983      -1.44869098
H       -2.14424788       0.74302896       0.84421434
H       -2.58199980      -0.59030321      -0.64591848
H       -1.88115499      -1.33361508       0.84652300
H       -1.72911652       1.65260260       0.85790840
16
Frame=7 idx=001221 GeodesicLength=0.5240222495400237 rxn_smarts="[C:1]([C:2]([C@@:3]([C:4]([H:13])([H:14])[H:15])([C:5](=[O:6])[H:16])[H:12])([H:10])[H:11])([H:7])([H:8])[H:9]>>[C-:5]#[O+:6].[C:1]([C:2]([C:3](=[C:4]([H:14])[H:15])[H:12])([H:10])[H:11])([H:7])([H:8])[H:9].[H:13][H:16]"
C        2.06122073      -0.38562348      -0.26871723
C        0.72793887      -0.68920533       0.40090603
C       -0.48477036      -0.21759352      -0.36594069
C       -1.76641692      -0.59195712       0.06782318
C       -0.42167479       1.90678729      -0.06462500
O        0.03053894       2.63080292      -0.83297912
H        2.21315801       0.68653407      -0.40408142
H        2.89387186      -0.76251199       0.32744797
H        2.12085504      -0.85861678      -1.25205420
H        0.65083184      -1.76947587       0.56275236
H        0.70178872      -0.24334070       1.40061431
H       -0.37175800      -0.11516067      -1.44447774
H       -2.15862924       0.72583106       0.85801384
H       -2.57639621      -0.59963587      -0.65698842
H       -1.87408369      -1.37767953       0.81043060
H       -1.74647480       1.66084553       0.86187552
16
Frame=8 idx=001221 GeodesicLength=0.5985671127582282 rxn_smarts="[C:1]([C:2]([C@@:3]([C:4]([H:13])([H:14])[H:15])([C:5](=[O:6])[H:16])[H:12])([H:10])[H:11])([H:7])([H:8])[H:9]>>[C-:5]#[O+:6].[C:1]([C:2]([C:3](=[C:4]([H:14])[H:15])[H:12])([H:10])[H:11])([H:7])([H:8])[H:9].[H:13][H:16]"
C        2.05945869      -0.39683955      -0.27785025
C        0.72771016      -0.67074728       0.40755039
C       -0.48562350      -0.20470900      -0.36141253
C       -1.76621516      -0.60341225       0.06408784
C       -0.43043295       1.92956314      -0.05179525
O        0.06292546       2.63934581      -0.80952846
H        2.21928808       0.66971458      -0.44423924
H        2.89275080      -0.76322134       0.32401790
H        2.10953101      -0.89813598      -1.24758198
H        0.64233741      -1.74559981       0.59816275
H        0.71321805      -0.19994442       1.39601273
H       -0.37298866      -0.10300065      -1.44034968
H       -2.17269266       0.70795855       0.87213351
H       -2.57076572      -0.60871109      -0.66751420
H       -1.86518680      -1.42153389       0.77232956
H       -1.76331421       1.66927317       0.86597691
16
Frame=9 idx=001221 GeodesicLength=0.6734097491045081 rxn_smarts="[C:1]([C:2]([C@@:3]([C:4]([H:13])([H:14])[H:15])([C:5](=[O:6])[H:16])[H:12])([H:10])[H:11])([H:7])([H:8])[H:9]>>[C-:5]#[O+:6].[C:1]([C:2]([C:3](=[C:4]([H:14])[H:15])[H:12])([H:10])[H:11])([H:7])([H:8])[H:9].[H:13][H:16]"
C        2.05707401      -0.40817322      -0.28675074
C        0.72733880      -0.65174083       0.41408283
C       -0.48683157      -0.19187098      -0.35700553
C       -1.76573449      -0.61529805       0.06045154
C       -0.43984234       1.95256615      -0.04018804
O        0.09649990       2.64689968      -0.78438741
H        2.22446201       0.65180010      -0.48456506
H        2.89126775      -0.76358761       0.32045304
H        2.09727130      -0.93771171      -1.24180178
H        0.63391371      -1.72023219       0.63406248
H        0.72468210      -0.15579570       1.39032567
H       -0.37457454      -0.09119397      -1.43638167
H       -2.18652791       0.68926924       0.88652388
H       -2.56510946      -0.61771056      -0.67754220
H       -1.85456028      -1.46505461       0.73219859
H       -1.77932899       1.67783427       0.87052439
16
Frame=10 idx=001221 GeodesicLength=0.7483751530343287 rxn_smarts="[C:1]([C:2]([C@@:3]([C:4]([H:13])([H:14])[H:15])([C:5](=[O:6])[H:16])[H:12])([H:10])[H:11])([H:7])([H:8])[H:9]>>[C-:5]#[O+:6].[C:1]([C:2]([C:3](=[C:4]([H:14])[H:15])[H:12])([H:10])[H:11])([H:7])([H:8])[H:9].[H:13][H:16]"
C        2.05402642      -0.41967045      -0.29536129
C        0.72681677      -0.63214763       0.42044468
C       -0.48842459      -0.17908583      -0.35274467
C       -1.76494120      -0.62764697       0.05695174
C       -0.44985769       1.97583794      -0.02990445
O        0.13113999       2.65335097      -0.75733476
H        2.22860713       0.63264646      -0.52502137
H        2.88939970      -0.76364402       0.31683198
H        2.08395611      -0.97738025      -1.23459106
H        0.62564417      -1.69324437       0.67039026
H        0.73625403      -0.11085640       1.38338325
H       -0.37653355      -0.07976159      -1.43258792
H       -2.20006838       0.66972723       0.90121550
H       -2.55947316      -0.62655399      -0.68700940
H       -1.84192586      -1.50812790       0.68987895
H       -1.79461990       1.68655680       0.87545857
16
Frame=11 idx=001221 GeodesicLength=0.8235612918189392 rxn_smarts="[C:1]([C:2]([C@@:3]([C:4]([H:13])([H:14])[H:15])([C:5](=[O:6])[H:16])[H:12])([H:10])[H:11])([H:7])([H:8])[H:9]>>[C-:5]#[O+:6].[C:1]([C:2]([C:3](=[C:4]([H:14])[H:15])[H:12])([H:10])[H:11])([H:7])([H:8])[H:9].[H:13][H:16]"
C        2.05029608      -0.43135603      -0.30368198
C        0.72613089      -0.61189014       0.42658295
C       -0.49041973      -0.16634718      -0.34869044
C       -1.76378876      -0.64053203       0.05356800
C       -0.46053976       1.99941267      -0.02112054
O        0.16693490       2.65854831      -0.72791454
H        2.23169438       0.61216029      -0.56567406
H        2.88711831      -0.76338455       0.31315705
H        2.06957697      -1.01721220      -1.22586434
H        0.61748167      -1.66447768       0.70714609
H        0.74791772      -0.06500310       1.37503465
H       -0.37887601      -0.06869489      -1.42903035
H       -2.21331872       0.64922451       0.91617896
H       -2.55387923      -0.63536653      -0.69587182
H       -1.82716592      -1.55055252       0.64537783
H       -1.80916279       1.69547107       0.88080253
16
Frame=12 idx=001221 GeodesicLength=0.8990892300176704 rxn_smarts="[C:1]([C:2]([C@@:3]([C:4]([H:13])([H:14])[H:15])([C:5](=[O:6])[H:16])[H:12])([H:10])[H:11])([H:7])([H:8])[H:9]>>[C-:5]#[O+:6].[C:1]([C:2]([C:3](=[C:4]([H:14])[H:15])[H:12])([H:10])[H:11])([H:7])([H:8])[H:9].[H:13][H:16]"
C        2.04586898      -0.44324033      -0.31171476
C        0.72527455      -0.59094697       0.43244647
C       -0.49283261      -0.15365834      -0.34488489
C       -1.76223343      -0.65401828       0.05029164
C       -0.47186031       2.02330906      -0.01396408
O        0.20388510       2.66231918      -0.69570644
H        2.23369803       0.59028697      -0.60650744
H        2.88441264      -0.76281175       0.30940566
H        2.05412628      -1.05719061      -1.21557240
H        0.60939949      -1.63383520       0.74426091
H        0.75965552      -0.01821081       1.36515331
H       -0.38161827      -0.05799678      -1.42574767
H       -2.22627174       0.62768225       0.93138760
H       -2.54834833      -0.64428790      -0.70408384
H       -1.81019007      -1.59206702       0.59879169
H       -1.82296584       1.70466653       0.88644423
16
Frame=13 idx=001221 GeodesicLength=0.9751509407329215 rxn_smarts="[C:1]([C:2]([C@@:3]([C:4]([H:13])([H:14])[H:15])([C:5](=[O:6])[H:16])[H:12])([H:10])[H:11])([H:7])([H:8])[H:9]>>[C-:5]#[O+:6].[C:1]([C:2]([C:3](=[C:4]([H:14])[H:15])[H:12])([H:10])[H:11])([H:7])([H:8])[H:9].[H:13][H:16]"
C        2.04072635      -0.45530326      -0.31944293
C        0.72425200      -0.56934230       0.43797247
C       -0.49566884      -0.14102062      -0.34134229
C       -1.76021863      -0.66815636       0.04714486
C       -0.48367967       2.04754557      -0.00850100
O        0.24190663       2.66444650      -0.66036178
H        2.23455518       0.56701054      -0.64740549
H        2.88125412      -0.76196105       0.30553491
H        2.03761050      -1.09719207      -1.20368352
H        0.60138085      -1.60129896       0.78152016
H        0.77144397       0.02940507       1.35362372
H       -0.38477566      -0.04767205      -1.42274325
H       -2.23888582       0.60504113       0.94685426
H       -2.54287031      -0.65348020      -0.71156066
H       -1.79090164      -1.63236161       0.55030953
H       -1.83612901       1.71433966       0.89208100
16
Frame=14 idx=001221 GeodesicLength=1.0519431837852633 rxn_smarts="[C:1]([C:2]([C@@:3]([C:4]([H:13])([H:14])[H:15])([C:5](=[O:6])[H:16])[H:12])([H:10])[H:11])([H:7])([H:8])[H:9]>>[C-:5]#[O+:6].[C:1]([C:2]([C:3](=[C:4]([H:14])[H:15])[H:12])([H:10])[H:11])([H:7])([H:8])[H:9].[H:13][H:16]"
C        2.03486289      -0.46754707      -0.32692345
C        0.72308573      -0.54707719       0.44307320
C       -0.49894178      -0.12843201      -0.33807365
C       -1.75767516      -0.68299682       0.04417425
C       -0.49582931       2.07214593      -0.00479546
O        0.28101872       2.66465774      -0.62099245
H        2.23423411       0.54228286      -0.68838020
H        2.87765056      -0.76086914       0.30143318
H        2.01999990      -1.13716022      -1.19022823
H        0.59342845      -1.56680666       0.81877359
H        0.78333255       0.07778749       1.34031205
H       -0.38840037      -0.03766664      -1.42003307
H       -2.25115770       0.58129448       0.96250222
H       -2.53742265      -0.66323870      -0.71822685
H       -1.76920191      -1.67112015       0.50033167
H       -1.84898402       1.72474609       0.89705319
16
Frame=15 idx=001221 GeodesicLength=1.1297420607494666 rxn_smarts="[C:1]([C:2]([C@@:3]([C:4]([H:13])([H:14])[H:15])([C:5](=[O:6])[H:16])[H:12])([H:10])[H:11])([H:7])([H:8])[H:9]>>[C-:5]#[O+:6].[C:1]([C:2]([C:3](=[C:4]([H:14])[H:15])[H:12])([H:10])[H:11])([H:7])([H:8])[H:9].[H:13][H:16]"
C        2.02827475      -0.47995571      -0.33424371
C        0.72183132      -0.52424443       0.44765049
C       -0.50265329      -0.11589160      -0.33502128
C       -1.75452028      -0.69856663       0.04149715
C       -0.50795753       2.09712689      -0.00274456
O        0.32118249       2.66264144      -0.57670097
H        2.23267647       0.51613508      -0.72933530
H        2.87363500      -0.75960517       0.29689975
H        2.00129365      -1.17687473      -1.17533422
H        0.58558961      -1.53046153       0.85570878
H        0.79540910       0.12666832       1.32515061
H       -0.39256630      -0.02789581      -1.41755748
H       -2.26308050       0.55653074       0.97825277
H       -2.53192908      -0.67392739      -0.72396509
H       -1.74504078      -1.70797753       0.44950142
H       -1.86214464       1.73629802       0.90024163
16
Frame=16 idx=001221 GeodesicLength=1.2089128430977003 rxn_smarts="[C:1]([C:2]([C@@:3]([C:4]([H:13])([H:14])[H:15])([C:5](=[O:6])[H:16])[H:12])([H:10])[H:11])([H:7])([H:8])[H:9]>>[C-:5]#[O+:6].[C:1]([C:2]([C:3](=[C:4]([H:14])[H:15])[H:12])([H:10])[H:11])([H:7])([H:8])[H:9].[H:13][H:16]"
C        2.02099907      -0.49247495      -0.34154576
C        0.72058989      -0.50100281       0.45163878
C       -0.50679311      -0.10340556      -0.33205009
C       -1.75066453      -0.71486243       0.03931097
C       -0.51955357       2.12250383      -0.00210345
O        0.36228942       2.65803302      -0.52645539
H        2.22986246       0.48868803      -0.77014834
H        2.86929989      -0.75829213       0.29164112
H        1.98148521      -1.21601764      -1.15931543
H        0.57796008      -1.49251146       0.89199198
H        0.80784199       0.17565658       1.30816846
H       -0.39737906      -0.01823952      -1.41519465
H       -2.27466264       0.53095674       0.99400824
H       -2.52628790      -0.68594563      -0.72864604
H       -1.71846343      -1.74261381       0.39866229
H       -1.87652376       1.74952772       0.90003731
