12
Frame=0 idx=009514 GeodesicLength=0.0 rxn_smarts="[C:1]([c:2]1[c:3]([H:11])[o:4][c:5]([O:6][H:12])[n:7]1)([H:8])([H:9])[H:10]>>[C:1]([C:3](=[C:2]=[N:7][C:5](=[O:4])[O:6][H:12])[H:11])([H:8])([H:9])[H:10]"
C       -1.77269797       0.35328260       0.19787593
C       -0.24072045      -0.24336670      -0.01375764
C       -0.93294205      -1.34510041      -0.00901243
O        2.15057584      -1.27173130      -0.35648528
C        1.98380330      -0.11271738      -0.09845223
O        3.01005720       0.73289497       0.06096874
N        0.75227495       0.54539861       0.06944262
H       -1.74393617       0.77030781       1.19883634
H       -1.79875882       1.10582190      -0.58816313
H       -2.65814687      -0.27842569       0.11832213
H       -1.39179704      -1.85594173      -0.84222216
H        2.64228804       1.59957737       0.26264711
12
Frame=1 idx=009514 GeodesicLength=0.08492810960176182 rxn_smarts="[C:1]([c:2]1[c:3]([H:11])[o:4][c:5]([O:6][H:12])[n:7]1)([H:8])([H:9])[H:10]>>[C:1]([C:3](=[C:2]=[N:7][C:5](=[O:4])[O:6][H:12])[H:11])([H:8])([H:9])[H:10]"
C       -1.79085833       0.34561255       0.20322721
C       -0.24107695      -0.19650454      -0.08395879
C       -0.89401250      -1.32166828      -0.03801515
O        2.10932872      -1.28755329      -0.29898834
C        1.97893082      -0.11005559      -0.09120333
O        3.02766664       0.70239362       0.08542952
N        0.76151600       0.57920553       0.03013091
H       -1.73286047       0.76359214       1.20290391
H       -1.87726219       1.10455735      -0.57268665
H       -2.66244354      -0.30846347       0.16033015
H       -1.36185648      -1.85703992      -0.85062227
H        2.68292827       1.58592390       0.25345284
12
Frame=2 idx=009514 GeodesicLength=0.16986196699918596 rxn_smarts="[C:1]([c:2]1[c:3]([H:11])[o:4][c:5]([O:6][H:12])[n:7]1)([H:8])([H:9])[H:10]>>[C:1]([C:3](=[C:2]=[N:7][C:5](=[O:4])[O:6][H:12])[H:11])([H:8])([H:9])[H:10]"
C       -1.80652837       0.33773811       0.20784829
C       -0.24186162      -0.15199361      -0.14410666
C       -0.85669826      -1.29750276      -0.06425138
O        2.06462035      -1.29889212      -0.25074546
C        1.97230892      -0.10737830      -0.08599213
O        3.04101158       0.67181169       0.11097586
N        0.77062921       0.60998236      -0.00357286
H       -1.72408021       0.76085665       1.20405914
H       -1.94924808       1.09796122      -0.55889513
H       -2.66325535      -0.33696041       0.19996313
H       -1.32848096      -1.85631438      -0.85865477
H        2.72158278       1.57069156       0.24337197
12
Frame=3 idx=009514 GeodesicLength=0.2545570458543646 rxn_smarts="[C:1]([c:2]1[c:3]([H:11])[o:4][c:5]([O:6][H:12])[n:7]1)([H:8])([H:9])[H:10]>>[C:1]([C:3](=[C:2]=[N:7][C:5](=[O:4])[O:6][H:12])[H:11])([H:8])([H:9])[H:10]"
C       -1.82039601       0.32987498       0.21173148
C       -0.24264674      -0.11025618      -0.19436187
C       -0.82151602      -1.27313452      -0.08679678
O        2.01866053      -1.30687890      -0.20927966
C        1.96491396      -0.10441363      -0.08518731
O        3.05163812       0.64257400       0.13007735
N        0.77987297       0.63827852      -0.03482164
H       -1.71795899       0.76263153       1.20224922
H       -2.01540331       1.08582045      -0.54799940
H       -2.66162473      -0.36355832       0.23806671
H       -1.29298106      -1.85377231      -0.86556289
H        2.75744128       1.55283440       0.24188481
12
Frame=4 idx=009514 GeodesicLength=0.3393281404795485 rxn_smarts="[C:1]([c:2]1[c:3]([H:11])[o:4][c:5]([O:6][H:12])[n:7]1)([H:8])([H:9])[H:10]>>[C:1]([C:3](=[C:2]=[N:7][C:5](=[O:4])[O:6][H:12])[H:11])([H:8])([H:9])[H:10]"
C       -1.83320376       0.32170257       0.21545522
C       -0.24326866      -0.07084435      -0.23622025
C       -0.78856917      -1.24886373      -0.10781475
O        1.97250599      -1.31201897      -0.17371919
C        1.95722519      -0.10171735      -0.08364410
O        3.05992071       0.61335206       0.15193518
N        0.78932917       0.66440212      -0.06139668
H       -1.71500203       0.76624165       1.19937549
H       -2.07669299       1.07026691      -0.53796825
H       -2.65850742      -0.38870083       0.27408619
H       -1.25629681      -1.84869632      -0.87425360
H        2.79255978       1.53487624       0.23416474
12
Frame=5 idx=009514 GeodesicLength=0.4240937943732372 rxn_smarts="[C:1]([c:2]1[c:3]([H:11])[o:4][c:5]([O:6][H:12])[n:7]1)([H:8])([H:9])[H:10]>>[C:1]([C:3](=[C:2]=[N:7][C:5](=[O:4])[O:6][H:12])[H:11])([H:8])([H:9])[H:10]"
C       -1.84517089       0.31349746       0.21855316
C       -0.24363084      -0.03358374      -0.27173772
C       -0.75761856      -1.22473417      -0.12625033
O        1.92693371      -1.31480762      -0.14309867
C        1.94956482      -0.09906145      -0.08304541
O        3.06728024       0.58536324       0.16720817
N        0.79911735       0.68871439      -0.08569263
H       -1.71458612       0.77276100       1.19450074
H       -2.13409624       1.05107059      -0.53001579
H       -2.65419971      -0.41214392       0.30906546
H       -1.21929445      -1.84242173      -0.88215268
H        2.82570070       1.51534597       0.23266570
12
Frame=6 idx=009514 GeodesicLength=0.5088628847166354 rxn_smarts="[C:1]([c:2]1[c:3]([H:11])[o:4][c:5]([O:6][H:12])[n:7]1)([H:8])([H:9])[H:10]>>[C:1]([C:3](=[C:2]=[N:7][C:5](=[O:4])[O:6][H:12])[H:11])([H:8])([H:9])[H:10]"
C       -1.85646863       0.30511547       0.22143576
C       -0.24372326       0.00193639      -0.30229899
C       -0.72855043      -1.20077223      -0.14331060
O        1.88227902      -1.31569662      -0.11617711
C        1.94201459      -0.09649372      -0.08216399
O        3.07359017       0.55793926       0.18105431
N        0.80925233       0.71152520      -0.10812558
H       -1.71627320       0.78098626       1.18846750
H       -2.18831317       1.02896318      -0.52312436
H       -2.64890978      -0.43415820       0.34338113
H       -1.18253552      -1.83458363      -0.89055154
H        2.85763789       1.49523862       0.23141347
12
Frame=7 idx=009514 GeodesicLength=0.5936339077841768 rxn_smarts="[C:1]([c:2]1[c:3]([H:11])[o:4][c:5]([O:6][H:12])[n:7]1)([H:8])([H:9])[H:10]>>[C:1]([C:3](=[C:2]=[N:7][C:5](=[O:4])[O:6][H:12])[H:11])([H:8])([H:9])[H:10]"
C       -1.86710244       0.29648624       0.22436136
C       -0.24357306       0.03600574      -0.32915873
C       -0.70119565      -1.17696279      -0.15961046
O        1.83873459      -1.31493684      -0.09295978
C        1.93460258      -0.09390519      -0.08081850
O        3.07815843       0.53088412       0.19796268
N        0.81975968       0.73305283      -0.12973842
H       -1.71944040       0.79039422       1.18161028
H       -2.23988422       1.00425026      -0.51668058
H       -2.64261562      -0.45489056       0.37760439
H       -1.14649435      -1.82520373      -0.89975387
H        2.88905047       1.47482569       0.22718163
12
Frame=8 idx=009514 GeodesicLength=0.678429340909972 rxn_smarts="[C:1]([c:2]1[c:3]([H:11])[o:4][c:5]([O:6][H:12])[n:7]1)([H:8])([H:9])[H:10]>>[C:1]([C:3](=[C:2]=[N:7][C:5](=[O:4])[O:6][H:12])[H:11])([H:8])([H:9])[H:10]"
C       -1.87737139       0.28762884       0.22706727
C       -0.24311727       0.06888989      -0.35248038
C       -0.67545579      -1.15326936      -0.17512334
O        1.79617971      -1.31284824      -0.07055878
C        1.92738518      -0.09135586      -0.07902986
O        3.08266851       0.50455976       0.21046466
N        0.83063109       0.75340562      -0.14946037
H       -1.72461629       0.80082744       1.17375500
H       -2.28903959       0.97720032      -0.51095427
H       -2.63566437      -0.47437980       0.41133542
H       -1.11103563      -1.81438993      -0.90974006
H        2.91943583       1.45373130       0.22472471
12
Frame=9 idx=009514 GeodesicLength=0.7632152809064623 rxn_smarts="[C:1]([c:2]1[c:3]([H:11])[o:4][c:5]([O:6][H:12])[n:7]1)([H:8])([H:9])[H:10]>>[C:1]([C:3](=[C:2]=[N:7][C:5](=[O:4])[O:6][H:12])[H:11])([H:8])([H:9])[H:10]"
C       -1.88713003       0.27853138       0.22985359
C       -0.24242117       0.10073710      -0.37327137
C       -0.65113493      -1.12969434      -0.19009916
O        1.75483970      -1.30951555      -0.05110597
C        1.92033636      -0.08870163      -0.07678783
O        3.08576029       0.47869924       0.22540487
N        0.84189397       0.77273554      -0.16888871
H       -1.73104979       0.81216961       1.16507582
H       -2.33611290       0.94781840      -0.50548829
H       -2.62784248      -0.49264541       0.44531140
H       -1.07657974      -1.80232436      -0.92030196
H        2.94944071       1.43219001       0.22029761
12
Frame=10 idx=009514 GeodesicLength=0.8480201825384062 rxn_smarts="[C:1]([c:2]1[c:3]([H:11])[o:4][c:5]([O:6][H:12])[n:7]1)([H:8])([H:9])[H:10]>>[C:1]([C:3](=[C:2]=[N:7][C:5](=[O:4])[O:6][H:12])[H:11])([H:8])([H:9])[H:10]"
C       -1.89663146       0.26914389       0.23255019
C       -0.24144054       0.13181238      -0.39144000
C       -0.62815546      -1.10616654      -0.20464969
O        1.71446013      -1.30508313      -0.03213650
C        1.91346746      -0.08598786      -0.07395250
O        3.08866726       0.45335075       0.23812727
N        0.85351467       0.79116837      -0.18692596
H       -1.73926695       0.82401316       1.15559103
H       -2.38120401       0.91642934      -0.50031631
H       -2.61948183      -0.50980019       0.47898059
H       -1.04287736      -1.78893030      -0.93172967
H        2.97894809       1.41005012       0.21590157
12
Frame=11 idx=009514 GeodesicLength=0.9328212768981259 rxn_smarts="[C:1]([c:2]1[c:3]([H:11])[o:4][c:5]([O:6][H:12])[n:7]1)([H:8])([H:9])[H:10]>>[C:1]([C:3](=[C:2]=[N:7][C:5](=[O:4])[O:6][H:12])[H:11])([H:8])([H:9])[H:10]"
C       -1.90580984       0.25947353       0.23528839
C       -0.24021327       0.16222420      -0.40750648
C       -0.60637124      -1.08267679      -0.21883301
O        1.67512750      -1.29964093      -0.01463401
C        1.90675678      -0.08313277      -0.07058200
O        3.09080584       0.42847629       0.25129309
N        0.86550747       0.80879506      -0.20440444
H       -1.74892690       0.83630808       1.14534054
H       -2.42446288       0.88305547      -0.49523559
H       -2.61050528      -0.52582595       0.51266057
H       -1.01010176      -1.77436592      -0.94379223
H        3.00819358       1.38730972       0.21040516
12
Frame=12 idx=009514 GeodesicLength=1.0176379614493685 rxn_smarts="[C:1]([c:2]1[c:3]([H:11])[o:4][c:5]([O:6][H:12])[n:7]1)([H:8])([H:9])[H:10]>>[C:1]([C:3](=[C:2]=[N:7][C:5](=[O:4])[O:6][H:12])[H:11])([H:8])([H:9])[H:10]"
C       -1.91470657       0.24951368       0.23803876
C       -0.23873979       0.19211405      -0.42168258
C       -0.58569061      -1.05917796      -0.23272801
O        1.63668036      -1.29323331       0.00227034
C        1.90020029      -0.08013797      -0.06682498
O        3.09259211       0.40401824       0.26344461
N        0.87787352       0.82568401      -0.22137083
H       -1.76003631       0.84895348       1.13425956
H       -2.46600767       0.84776244      -0.49020335
H       -2.60095154      -0.54072782       0.54637555
H       -0.97819473      -1.75868041      -0.95649277
H        3.03698094       1.36391157       0.20491369
12
Frame=13 idx=009514 GeodesicLength=1.1024511736637894 rxn_smarts="[C:1]([c:2]1[c:3]([H:11])[o:4][c:5]([O:6][H:12])[n:7]1)([H:8])([H:9])[H:10]>>[C:1]([C:3](=[C:2]=[N:7][C:5](=[O:4])[O:6][H:12])[H:11])([H:8])([H:9])[H:10]"
C       -1.92321507       0.23927615       0.24095195
C       -0.23705747       0.22154494      -0.43438503
C       -0.56600548      -1.03566969      -0.24642759
O        1.59921285      -1.28598324       0.01750284
C        1.89375942      -0.07694011      -0.06268506
O        3.09332231       0.38009345       0.27711831
N        0.89064185       0.84185565      -0.23863463
H       -1.77227459       0.86199908       1.12233178
H       -2.50593055       0.81047107      -0.48500594
H       -2.59065214      -0.55444761       0.58051214
H       -0.94732799      -1.74197619      -0.96970968
H        3.06552686       1.33977651       0.19843091
12
Frame=14 idx=009514 GeodesicLength=1.187283686188473 rxn_smarts="[C:1]([c:2]1[c:3]([H:11])[o:4][c:5]([O:6][H:12])[n:7]1)([H:8])([H:9])[H:10]>>[C:1]([C:3](=[C:2]=[N:7][C:5](=[O:4])[O:6][H:12])[H:11])([H:8])([H:9])[H:10]"
C       -1.93142451       0.22875615       0.24394516
C       -0.23514989       0.25064558      -0.44559074
C       -0.54725063      -1.01209391      -0.25991363
O        1.56251259      -1.27788423       0.03224992
C        1.88744811      -0.07357427      -0.05832865
O        3.09369171       0.35655126       0.28994113
N        0.90381275       0.85733999      -0.25592114
H       -1.78584005       0.87525974       1.10950349
H       -2.54424192       0.77131585      -0.47965613
H       -2.57976184      -0.56696713       0.61484293
H       -0.91731779      -1.72427631      -0.98343267
H        3.09352147       1.31492728       0.19236033
12
Frame=15 idx=009514 GeodesicLength=1.2721333033303164 rxn_smarts="[C:1]([c:2]1[c:3]([H:11])[o:4][c:5]([O:6][H:12])[n:7]1)([H:8])([H:9])[H:10]>>[C:1]([C:3](=[C:2]=[N:7][C:5](=[O:4])[O:6][H:12])[H:11])([H:8])([H:9])[H:10]"
C       -1.93930928       0.21791430       0.24711028
C       -0.23303436       0.27953890      -0.45542457
C       -0.52934983      -0.98840079      -0.27333129
O        1.52655294      -1.26898994       0.04617103
C        1.88121116      -0.06998161      -0.05355465
O        3.09319449       0.33354586       0.30372697
N        0.91739862       0.87216770      -0.27349002
H       -1.80065651       0.88852237       1.09586838
H       -2.58095979       0.73034648      -0.47393671
H       -2.56826441      -0.57832777       0.64939458
H       -0.88816935      -1.70550941      -0.99780740
H        3.12138633       1.28917391       0.18527341
12
Frame=16 idx=009514 GeodesicLength=1.357000337816756 rxn_smarts="[C:1]([c:2]1[c:3]([H:11])[o:4][c:5]([O:6][H:12])[n:7]1)([H:8])([H:9])[H:10]>>[C:1]([C:3](=[C:2]=[N:7][C:5](=[O:4])[O:6][H:12])[H:11])([H:8])([H:9])[H:10]"
C       -1.94705040       0.20674645       0.25032565
C       -0.23067360       0.30837816      -0.46353306
C       -0.51222207      -0.96449548      -0.28640846
O        1.49121933      -1.25926967       0.06005531
C        1.87509838      -0.06618830      -0.04842382
O        3.09267765       0.31076262       0.31607825
N        0.93137914       0.88640736      -0.29062468
H       -1.81720449       0.90162302       1.08135744
H       -2.61603299       0.68763870      -0.46809584
H       -2.55652130      -0.58853733       0.68374084
H       -0.85958619      -1.68562283      -1.01263766
H        3.14891656       1.26255731       0.17816602
