13
Frame=0 idx=001299 GeodesicLength=0.0 rxn_smarts="[N:1]([C:2](=[O:3])[C:4]([C:5]([O:6][H:13])([H:11])[H:12])([H:9])[H:10])([H:7])[H:8]>>[C:4](=[C:5]([H:11])[H:12])([H:9])[H:10].[N:1](=[C:2]=[O:3])[H:8].[O:6]([H:7])[H:13]"
N       -1.31712609      -0.94684726      -0.31506790
C       -1.15897600       0.12642505      -0.99800223
O       -1.54804304       0.73267160      -1.94212752
C        0.16264009       1.20384397      -0.15401374
C        0.99276170       0.63252306       0.80077878
O        0.84135872      -1.46816873       0.92909753
H       -0.08897608      -1.41726225       0.49561499
H       -2.06085126      -1.50239749      -0.72724498
H       -0.62469301       1.83449203       0.24934032
H        0.64145853       1.57664208      -1.05062084
H        2.04795923       0.49275914       0.61033554
H        0.70188869       0.59390223       1.84059625
H        1.41059847      -1.85858349       0.26131375
13
Frame=1 idx=001299 GeodesicLength=0.08222932474689297 rxn_smarts="[N:1]([C:2](=[O:3])[C:4]([C:5]([O:6][H:13])([H:11])[H:12])([H:9])[H:10])([H:7])[H:8]>>[C:4](=[C:5]([H:11])[H:12])([H:9])[H:10].[N:1](=[C:2]=[O:3])[H:8].[O:6]([H:7])[H:13]"
N       -1.31660126      -0.95851252      -0.33959479
C       -1.15667704       0.12144685      -1.01222402
O       -1.54593968       0.72697802      -1.95659258
C        0.15749178       1.21299419      -0.14465257
C        1.00426427       0.62637472       0.78854297
O        0.82550734      -1.46464152       0.94688695
H       -0.11096023      -1.42308151       0.48884970
H       -2.06703486      -1.51155712      -0.74100961
H       -0.63025053       1.82850258       0.28139301
H        0.62577348       1.62242842      -1.03116346
H        2.05502675       0.48994591       0.56975413
H        0.74578636       0.60962982       1.83789115
H        1.41361363      -1.88050783       0.31191912
13
Frame=2 idx=001299 GeodesicLength=0.16416600859108343 rxn_smarts="[N:1]([C:2](=[O:3])[C:4]([C:5]([O:6][H:13])([H:11])[H:12])([H:9])[H:10])([H:7])[H:8]>>[C:4](=[C:5]([H:11])[H:12])([H:9])[H:10].[N:1](=[C:2]=[O:3])[H:8].[O:6]([H:7])[H:13]"
N       -1.31513083      -0.97047631      -0.36524338
C       -1.15412991       0.11666104      -1.02669964
O       -1.54244683       0.72121221      -1.97194307
C        0.15188900       1.22222254      -0.13453320
C        1.01571304       0.62024065       0.77565400
O        0.80933660      -1.46032635       0.96493960
H       -0.13297470      -1.42893105       0.48174478
H       -2.07324065      -1.52028245      -0.75463778
H       -0.63588731       1.82134082       0.31486780
H        0.60874718       1.66823871      -1.00965856
H        2.06073931       0.48624142       0.52682755
H        0.79184143       0.62512172       1.83349030
H        1.41554367      -1.90126294       0.36519162
13
Frame=3 idx=001299 GeodesicLength=0.24577933680906616 rxn_smarts="[N:1]([C:2](=[O:3])[C:4]([C:5]([O:6][H:13])([H:11])[H:12])([H:9])[H:10])([H:7])[H:8]>>[C:4](=[C:5]([H:11])[H:12])([H:9])[H:10].[N:1](=[C:2]=[O:3])[H:8].[O:6]([H:7])[H:13]"
N       -1.31258767      -0.98274637      -0.39202317
C       -1.15139738       0.11211498      -1.04133732
O       -1.53741906       0.71534318      -1.98821387
C        0.14585994       1.23147741      -0.12363945
C        1.02699493       0.61413254       0.76217704
O        0.79295370      -1.45521111       0.98308410
H       -0.15488184      -1.43491280       0.47410234
H       -2.07962608      -1.52836716      -0.76767414
H       -0.64144900       1.81304780       0.34964793
H        0.59051201       1.71372760      -0.98611868
H        2.06487354       0.48172525       0.48178925
H        0.83970728       0.64016072       1.82724570
H        1.41645965      -1.92049203       0.42096028
13
Frame=4 idx=001299 GeodesicLength=0.32704159660711674 rxn_smarts="[N:1]([C:2](=[O:3])[C:4]([C:5]([O:6][H:13])([H:11])[H:12])([H:9])[H:10])([H:7])[H:8]>>[C:4](=[C:5]([H:11])[H:12])([H:9])[H:10].[N:1](=[C:2]=[O:3])[H:8].[O:6]([H:7])[H:13]"
N       -1.30887255      -0.99531643      -0.41990971
C       -1.14855984       0.10784387      -1.05603917
O       -1.53068843       0.70930058      -2.00545687
C        0.13944984       1.24069204      -0.11198261
C        1.03796651       0.60806001       0.74822187
O        0.77651478      -1.44933335       1.00106546
H       -0.17649631      -1.44116869       0.46565535
H       -2.08642027      -1.53553468      -0.77947784
H       -0.64675635       1.80373128       0.38553599
H        0.57127981       1.75848879      -0.96062982
H        2.06722978       0.47657182       0.43504805
H        0.88885879       0.65448733       1.81907439
H        1.41649426      -1.93782257       0.47889490
13
Frame=5 idx=001299 GeodesicLength=0.40794139470052765 rxn_smarts="[N:1]([C:2](=[O:3])[C:4]([C:5]([O:6][H:13])([H:11])[H:12])([H:9])[H:10])([H:7])[H:8]>>[C:4](=[C:5]([H:11])[H:12])([H:9])[H:10].[N:1](=[C:2]=[O:3])[H:8].[O:6]([H:7])[H:13]"
N       -1.30398988      -1.00812911      -0.44879524
C       -1.14573382       0.10388322      -1.07068477
O       -1.52212136       0.70301201      -2.02368882
C        0.13271522       1.24979855      -0.09959593
C        1.04849289       0.60203107       0.73390747
O        0.76016628      -1.44276783       1.01860845
H       -0.19765412      -1.44783366       0.45614463
H       -2.09370141      -1.54159646      -0.78946341
H       -0.65160785       1.79356881       0.42230558
H        0.55129987       1.80211590      -0.93335163
H        2.06766392       0.47099619       0.38707682
H        0.93871747       0.66785921       1.80895873
H        1.41575278      -1.95293790       0.53857813
13
Frame=6 idx=001299 GeodesicLength=0.48849654979467994 rxn_smarts="[N:1]([C:2](=[O:3])[C:4]([C:5]([O:6][H:13])([H:11])[H:12])([H:9])[H:10])([H:7])[H:8]>>[C:4](=[C:5]([H:11])[H:12])([H:9])[H:10].[N:1](=[C:2]=[O:3])[H:8].[O:6]([H:7])[H:13]"
N       -1.29803545      -1.02108833      -0.47853267
C       -1.14301542       0.10025001      -1.08518459
O       -1.51163914       0.69644395      -2.04287103
C        0.12570184       1.25873907      -0.08651098
C        1.05848875       0.59604795       0.71930830
O        0.74398367      -1.43559326       1.03550890
H       -0.21825842      -1.45500195       0.44537807
H       -2.10133211      -1.54649720      -0.79725085
H       -0.65583432       1.78271343       0.45979362
H        0.53077496       1.84432952      -0.90444745
H        2.06608563       0.46516911       0.33823078
H        0.98883222       0.68011480       1.79690585
H        1.41424780      -1.96562709       0.59967205
13
Frame=7 idx=001299 GeodesicLength=0.5687429376675264 rxn_smarts="[N:1]([C:2](=[O:3])[C:4]([C:5]([O:6][H:13])([H:11])[H:12])([H:9])[H:10])([H:7])[H:8]>>[C:4](=[C:5]([H:11])[H:12])([H:9])[H:10].[N:1](=[C:2]=[O:3])[H:8].[O:6]([H:7])[H:13]"
N       -1.29140292      -1.03393254      -0.50864748
C       -1.14061657       0.09699614      -1.09932921
O       -1.49928271       0.68957730      -2.06283531
C        0.11849285       1.26748259      -0.07278231
C        1.06790087       0.59011105       0.70448427
O        0.72801106      -1.42789512       1.05158376
H       -0.23828813      -1.46271923       0.43324630
H       -2.10877114      -1.55056221      -0.80297585
H       -0.65916719       1.77147728       0.49782964
H        0.50995793       1.88483226      -0.87418161
H        2.06247137       0.45925101       0.28886210
H        1.03879051       0.69113479       1.78295825
H        1.41190406      -1.97575332       0.66178747
13
Frame=8 idx=001299 GeodesicLength=0.6487043043100126 rxn_smarts="[N:1]([C:2](=[O:3])[C:4]([C:5]([O:6][H:13])([H:11])[H:12])([H:9])[H:10])([H:7])[H:8]>>[C:4](=[C:5]([H:11])[H:12])([H:9])[H:10].[N:1](=[C:2]=[O:3])[H:8].[O:6]([H:7])[H:13]"
N       -1.28482708      -1.04624765      -0.53825212
C       -1.13888485       0.09417389      -1.11278420
O       -1.48509632       0.68225118      -2.08339557
C        0.11124550       1.27600609      -0.05853886
C        1.07663086       0.58422514       0.68960394
O        0.71245939      -1.41986817       1.06648368
H       -0.25767063      -1.47108088       0.41962349
H       -2.11557896      -1.55425940      -0.80693765
H       -0.66120635       1.76046857       0.53605771
H        0.48930600       1.92316631      -0.84303466
H        2.05694627       0.45362661       0.23971105
H        1.08784700       0.70072691       1.76732981
H        1.40882916      -1.98318859       0.72413338
13
Frame=9 idx=001299 GeodesicLength=0.7283925827318016 rxn_smarts="[N:1]([C:2](=[O:3])[C:4]([C:5]([O:6][H:13])([H:11])[H:12])([H:9])[H:10])([H:7])[H:8]>>[C:4](=[C:5]([H:11])[H:12])([H:9])[H:10].[N:1](=[C:2]=[O:3])[H:8].[O:6]([H:7])[H:13]"
N       -1.27925596      -1.05752059      -0.56621182
C       -1.13826007       0.09188410      -1.12508693
O       -1.46923497       0.67440088      -2.10414889
C        0.10410158       1.28435908      -0.04384136
C        1.08471252       0.57839077       0.67466248
O        0.69738241      -1.41156611       1.08017273
H       -0.27652792      -1.48002471       0.40472406
H       -2.12087420      -1.55870124      -0.81068936
H       -0.66153396       1.75027170       0.57441074
H        0.46912965       1.95915024      -0.81139966
H        2.04963477       0.44841880       0.19097046
H        1.13584873       0.70891169       1.75010286
H        1.40487744      -1.98797463       0.78633468
13
Frame=10 idx=001299 GeodesicLength=0.8079122100897586 rxn_smarts="[N:1]([C:2](=[O:3])[C:4]([C:5]([O:6][H:13])([H:11])[H:12])([H:9])[H:10])([H:7])[H:8]>>[C:4](=[C:5]([H:11])[H:12])([H:9])[H:10].[N:1](=[C:2]=[O:3])[H:8].[O:6]([H:7])[H:13]"
N       -1.27521409      -1.06755649      -0.59196406
C       -1.13896872       0.09013574      -1.13607895
O       -1.45171455       0.66592184      -2.12490107
C        0.09714275       1.29258029      -0.02871181
C        1.09220089       0.57261110       0.65965704
O        0.68291193      -1.40307867       1.09267860
H       -0.29493280      -1.48954584       0.38878757
H       -2.12459324      -1.56445433      -0.81519752
H       -0.65993870       1.74119057       0.61290691
H        0.44960569       1.99284591      -0.77950121
H        2.04068405       0.44377571       0.14278118
H        1.18272280       0.71575034       1.73137424
H        1.40009398      -1.99017616       0.84816908
13
Frame=11 idx=001299 GeodesicLength=0.8873105042455045 rxn_smarts="[N:1]([C:2](=[O:3])[C:4]([C:5]([O:6][H:13])([H:11])[H:12])([H:9])[H:10])([H:7])[H:8]>>[C:4](=[C:5]([H:11])[H:12])([H:9])[H:10].[N:1](=[C:2]=[O:3])[H:8].[O:6]([H:7])[H:13]"
N       -1.27285115      -1.07635887      -0.61539680
C       -1.14100127       0.08886382      -1.14582789
O       -1.43249010       0.65678498      -2.14548828
C        0.09037474       1.30067613      -0.01312101
C        1.09914365       0.56687719       0.64451873
O        0.66910234      -1.39442905       1.10413679
H       -0.31292993      -1.49963899       0.37200423
H       -2.12694446      -1.57170388      -0.82103562
H       -0.65639070       1.73321271       0.65167754
H        0.43075471       2.02446283      -0.74736364
H        2.03013761       0.43974258       0.09503788
H        1.22859841       0.72134850       1.71114157
H        1.39449614      -1.98983794       0.90971647
13
Frame=12 idx=001299 GeodesicLength=0.9666404410989152 rxn_smarts="[N:1]([C:2](=[O:3])[C:4]([C:5]([O:6][H:13])([H:11])[H:12])([H:9])[H:10])([H:7])[H:8]>>[C:4](=[C:5]([H:11])[H:12])([H:9])[H:10].[N:1](=[C:2]=[O:3])[H:8].[O:6]([H:7])[H:13]"
N       -1.27206738      -1.08407493      -0.63671897
C       -1.14414741       0.08793220      -1.15460370
O       -1.41150013       0.64697291      -2.16582788
C        0.08377282       1.30861405       0.00295712
C        1.10556161       0.56118379       0.62920458
O        0.65602868      -1.38566016       1.11463658
H       -0.33052946      -1.51032517       0.35447444
H       -2.12837926      -1.58022545      -0.82816340
H       -0.65096809       1.72615453       0.69081127
H        0.41254241       2.05422592      -0.71493250
H        2.01802163       0.43639688       0.04769254
H        1.27351920       0.72578785       1.68941503
H        1.38814537      -1.98698243       0.97105490
13
Frame=13 idx=001299 GeodesicLength=1.04593680974052 rxn_smarts="[N:1]([C:2](=[O:3])[C:4]([C:5]([O:6][H:13])([H:11])[H:12])([H:9])[H:10])([H:7])[H:8]>>[C:4](=[C:5]([H:11])[H:12])([H:9])[H:10].[N:1](=[C:2]=[O:3])[H:8].[O:6]([H:7])[H:13]"
N       -1.27267687      -1.09090991      -0.65627457
C       -1.14804205       0.08714122      -1.16281026
O       -1.38870842       0.63645924      -2.18590060
C        0.07730520       1.31631969       0.01951376
C        1.11143567       0.55553317       0.61373716
O        0.64380703      -1.37687303       1.12415474
H       -0.34765297      -1.52168878       0.33611635
H       -2.12953023      -1.58946199      -0.83598636
H       -0.64380999       1.71977922       0.73027782
H        0.39494944       2.08228180      -0.68216768
H        2.00441049       0.43391765       0.00087876
H        1.31733308       0.72911400       1.66629480
H        1.38117962      -1.98161227       1.03216609
13
Frame=14 idx=001299 GeodesicLength=1.12522851957048 rxn_smarts="[N:1]([C:2](=[O:3])[C:4]([C:5]([O:6][H:13])([H:11])[H:12])([H:9])[H:10])([H:7])[H:8]>>[C:4](=[C:5]([H:11])[H:12])([H:9])[H:10].[N:1](=[C:2]=[O:3])[H:8].[O:6]([H:7])[H:13]"
N       -1.27454032      -1.09704045      -0.67436152
C       -1.15233224       0.08631029      -1.17081535
O       -1.36412731       0.62521586      -2.20568769
C        0.07094720       1.32371477       0.03652895
C        1.11675069       0.54993306       0.59815594
O        0.63255320      -1.36818198       1.13263600
H       -0.36422891      -1.53380894       0.31681243
H       -2.13093300      -1.59889342      -0.84390975
H       -0.63502969       1.71389072       0.77001375
H        0.37795814       2.10872287      -0.64905807
H        1.98941272       0.43249539      -0.04523104
H        1.35985917       0.73137751       1.64191496
H        1.37371034      -1.97373568       1.09300138
13
Frame=15 idx=001299 GeodesicLength=1.204536063177982 rxn_smarts="[N:1]([C:2](=[O:3])[C:4]([C:5]([O:6][H:13])([H:11])[H:12])([H:9])[H:10])([H:7])[H:8]>>[C:4](=[C:5]([H:11])[H:12])([H:9])[H:10].[N:1](=[C:2]=[O:3])[H:8].[O:6]([H:7])[H:13]"
N       -1.27758069      -1.10260705      -0.69120375
C       -1.15672323       0.08529270      -1.17891192
O       -1.33777612       0.61319100      -2.22517894
C        0.06468082       1.33072866       0.05397940
C        1.12149926       0.54439756       0.58251087
O        0.62238735      -1.35971606       1.13999889
H       -0.38021418      -1.54675123       0.29644585
H       -2.13302877      -1.60809041      -0.85142337
H       -0.62470672       1.70835337       0.80994251
H        0.36155409       2.13360176      -0.61562351
H        1.97317100       0.43232961      -0.09044838
H        1.40091546       0.73263946       1.61644015
H        1.36582173      -1.96336937       1.15347220
13
Frame=16 idx=001299 GeodesicLength=1.2838788582693843 rxn_smarts="[N:1]([C:2](=[O:3])[C:4]([C:5]([O:6][H:13])([H:11])[H:12])([H:9])[H:10])([H:7])[H:8]>>[C:4](=[C:5]([H:11])[H:12])([H:9])[H:10].[N:1](=[C:2]=[O:3])[H:8].[O:6]([H:7])[H:13]"
N       -1.28174507      -1.10771877      -0.70698307
C       -1.16099746       0.08398965      -1.18730718
O       -1.30969109       0.60033727      -2.24434761
C        0.05849018       1.33730210       0.07185703
C        1.12569565       0.53894014       0.56682763
O        0.61340960      -1.35158605       1.14617991
H       -0.39561579      -1.56055026       0.27493533
H       -2.13611052      -1.61676532      -0.85820948
H       -0.61287921       1.70305728       0.85002596
H        0.34569711       2.15696828      -0.58187588
H        1.95581678       0.43356630      -0.13466188
H        1.44040476       0.73298063       1.59000507
H        1.35752506      -1.95052123       1.21355417
