15
Frame=0 idx=011948 GeodesicLength=0.0 rxn_smarts="[C:1]([C@@:2]([O:3][H:12])([C:4]([O:5][C:6](=[O:7])[H:15])([H:13])[H:14])[H:11])([H:8])([H:9])[H:10]>>[C:1]([C:2]([O:3][H:12])=[C:4]([H:13])[H:14])([H:8])([H:9])[H:10].[O:5]=[C:6]([O:7][H:11])[H:15]"
C       -1.39334671       1.14986938      -0.59940800
C       -0.66041697       0.09297201       0.20755169
O       -0.98784569       0.05964513       1.57339027
C       -0.38565130      -1.15654199      -0.34245425
O        1.62042400      -1.50756076      -0.38552096
C        2.26813691      -0.58364353       0.15097231
O        1.90438315       0.62323209       0.16813528
H       -2.47279821       1.00708669      -0.52187782
H       -1.10418531       1.10730215      -1.65009294
H       -1.15499766       2.14822108      -0.22894127
H        0.56713832       0.44292794       0.09698758
H       -0.56403617       0.80020552       2.01195594
H       -0.41889488      -1.29218453      -1.41324109
H       -0.42845402      -2.04760530       0.26693317
H        3.21054448      -0.84392592       0.66561011
15
Frame=1 idx=011948 GeodesicLength=0.08069024448420466 rxn_smarts="[C:1]([C@@:2]([O:3][H:12])([C:4]([O:5][C:6](=[O:7])[H:15])([H:13])[H:14])[H:11])([H:8])([H:9])[H:10]>>[C:1]([C:2]([O:3][H:12])=[C:4]([H:13])[H:14])([H:8])([H:9])[H:10].[O:5]=[C:6]([O:7][H:11])[H:15]"
C       -1.41967714       1.15074199      -0.60554122
C       -0.66151933       0.10755064       0.19291451
O       -0.98127714       0.07378085       1.55887554
C       -0.38342130      -1.14377635      -0.35632942
O        1.61587285      -1.52419447      -0.32517875
C        2.27736694      -0.59417747       0.18385996
O        1.92455975       0.61572202       0.17861726
H       -2.49593378       0.99125403      -0.51619451
H       -1.14288064       1.11178735      -1.65964233
H       -1.19355125       2.15190778      -0.23510207
H        0.57752562       0.46289200       0.07197484
H       -0.47779493       0.75625488       2.00852057
H       -0.41162565      -1.27458631      -1.42802043
H       -0.45720824      -2.03531940       0.24988795
H        3.22956424      -0.84983755       0.68135811
15
Frame=2 idx=011948 GeodesicLength=0.16049913406208083 rxn_smarts="[C:1]([C@@:2]([O:3][H:12])([C:4]([O:5][C:6](=[O:7])[H:15])([H:13])[H:14])[H:11])([H:8])([H:9])[H:10]>>[C:1]([C:2]([O:3][H:12])=[C:4]([H:13])[H:14])([H:8])([H:9])[H:10].[O:5]=[C:6]([O:7][H:11])[H:15]"
C       -1.44459177       1.15147464      -0.61199885
C       -0.66217455       0.12293600       0.17913637
O       -0.97504420       0.09015125       1.54505629
C       -0.38062059      -1.13073021      -0.36822530
O        1.60959977      -1.53777732      -0.26696648
C        2.28676309      -0.60400683       0.21450754
O        1.94451680       0.60839446       0.19216834
H       -2.51734697       0.97549043      -0.51151123
H       -1.17925490       1.11514427      -1.66907895
H       -1.23080302       2.15547992      -0.24201669
H        0.58901213       0.48283737       0.04906252
H       -0.39964376       0.70802957       2.00296107
H       -0.40670007      -1.25823081      -1.44053343
H       -0.48282310      -2.02148664       0.23553976
H        3.24911114      -0.85770611       0.69189907
15
Frame=3 idx=011948 GeodesicLength=0.23964985555167856 rxn_smarts="[C:1]([C@@:2]([O:3][H:12])([C:4]([O:5][C:6](=[O:7])[H:15])([H:13])[H:14])[H:11])([H:8])([H:9])[H:10]>>[C:1]([C:2]([O:3][H:12])=[C:4]([H:13])[H:14])([H:8])([H:9])[H:10].[O:5]=[C:6]([O:7][H:11])[H:15]"
C       -1.46826300       1.15205319      -0.61877897
C       -0.66241130       0.13908336       0.16610728
O       -0.96894039       0.10867815       1.53190591
C       -0.37724234      -1.11739048      -0.37837334
O        1.60197881      -1.54871619      -0.21040741
C        2.29650707      -0.61325732       0.24295846
O        1.96420772       0.60130838       0.20869302
H       -2.53722286       0.95977710      -0.50760493
H       -1.21364600       1.11739314      -1.67849980
H       -1.26689234       2.15896749      -0.24980320
H        0.60158113       0.50282719       0.02818753
H       -0.32925462       0.65586967       1.99566698
H       -0.40380326      -1.24295814      -1.45108508
H       -0.50580149      -2.00630471       0.22362491
H        3.26920285      -0.86733081       0.69740863
15
Frame=4 idx=011948 GeodesicLength=0.3183519073117517 rxn_smarts="[C:1]([C@@:2]([O:3][H:12])([C:4]([O:5][C:6](=[O:7])[H:15])([H:13])[H:14])[H:11])([H:8])([H:9])[H:10]>>[C:1]([C:2]([O:3][H:12])=[C:4]([H:13])[H:14])([H:8])([H:9])[H:10].[O:5]=[C:6]([O:7][H:11])[H:15]"
C       -1.49083021       1.15243455      -0.62587082
C       -0.66222376       0.15594336       0.15372610
O       -0.96266213       0.12928446       1.51947862
C       -0.37328300      -1.10377278      -0.38701760
O        1.59326723      -1.55733109      -0.15504968
C        2.30669241      -0.62205821       0.26931446
O        1.98362738       0.59452424       0.22826231
H       -2.55571267       0.94400266      -0.50420596
H       -1.24637565       1.11853145      -1.68803211
H       -1.30192446       2.16239850      -0.25853988
H        0.61527050       0.52297255       0.00925206
H       -0.26646080       0.60026447       1.98694187
H       -0.40258051      -1.22861719      -1.46001345
H       -0.52662034      -1.98998587       0.21385832
H        3.28981601      -0.87859110       0.69789575
15
Frame=5 idx=011948 GeodesicLength=0.3964154319719906 rxn_smarts="[C:1]([C@@:2]([O:3][H:12])([C:4]([O:5][C:6](=[O:7])[H:15])([H:13])[H:14])[H:11])([H:8])([H:9])[H:10]>>[C:1]([C:2]([O:3][H:12])=[C:4]([H:13])[H:14])([H:8])([H:9])[H:10].[O:5]=[C:6]([O:7][H:11])[H:15]"
C       -1.51273093       1.15250193      -0.63281968
C       -0.66127815       0.17344210       0.14165254
O       -0.95458713       0.15190199       1.50736470
C       -0.36846224      -1.08970628      -0.39462180
O        1.58417118      -1.56362074      -0.10245263
C        2.31755907      -0.63050843       0.29240927
O        2.00278130       0.58781757       0.24958998
H       -2.57300575       0.92810159      -0.50004962
H       -1.27874922       1.11851267      -1.69717459
H       -1.33632112       2.16553689      -0.26804314
H        0.63012699       0.54322846      -0.00874095
H       -0.20981475       0.54190493       1.97569642
H       -0.40335673      -1.21491160      -1.46753187
H       -0.54447863      -1.97235947       0.20578134
H        3.30814610      -0.89184160       0.69894003
15
Frame=6 idx=011948 GeodesicLength=0.4743437503030096 rxn_smarts="[C:1]([C@@:2]([O:3][H:12])([C:4]([O:5][C:6](=[O:7])[H:15])([H:13])[H:14])[H:11])([H:8])([H:9])[H:10]>>[C:1]([C:2]([O:3][H:12])=[C:4]([H:13])[H:14])([H:8])([H:9])[H:10].[O:5]=[C:6]([O:7][H:11])[H:15]"
C       -1.53383286       1.15229733      -0.63994743
C       -0.65990139       0.19152564       0.12996245
O       -0.94566212       0.17645529       1.49585238
C       -0.36301700      -1.07539951      -0.40122897
O        1.57455214      -1.56814111      -0.05075996
C        2.32869102      -0.63895356       0.31433323
O        2.02158569       0.58115627       0.27437968
H       -2.58917233       0.91204991      -0.49579993
H       -1.31015180       1.11736175      -1.70641850
H       -1.36991099       2.16858768      -0.27845935
H        0.64616578       0.56368447      -0.02497612
H       -0.16076141       0.48167897       1.96297854
H       -0.40530875      -1.20190781      -1.47395422
H       -0.56060381      -1.95387272       0.19926108
H        3.32732784      -0.90652261       0.69477710
15
Frame=7 idx=011948 GeodesicLength=0.5520433244700246 rxn_smarts="[C:1]([C@@:2]([O:3][H:12])([C:4]([O:5][C:6](=[O:7])[H:15])([H:13])[H:14])[H:11])([H:8])([H:9])[H:10]>>[C:1]([C:2]([O:3][H:12])=[C:4]([H:13])[H:14])([H:8])([H:9])[H:10].[O:5]=[C:6]([O:7][H:11])[H:15]"
C       -1.55434861       1.15168576      -0.64695708
C       -0.65788644       0.21010346       0.11839965
O       -0.93497756       0.20273144       1.48467949
C       -0.35678113      -1.06077387      -0.40724673
O        1.56478035      -1.57098696      -0.00072038
C        2.33985728      -0.64756896       0.33534289
O        2.04003006       0.57431579       0.30193656
H       -2.60427436       0.89568407      -0.49065928
H       -1.34129579       1.11502568      -1.71547568
H       -1.40290014       2.17133114      -0.28956803
H        0.66349011       0.58430803      -0.03999945
H       -0.11864710       0.42072292       1.94831317
H       -0.40838847      -1.18935027      -1.47956729
H       -0.57471846      -1.93449756       0.19382763
H        3.34606025      -0.92273067       0.68769452
15
Frame=8 idx=011948 GeodesicLength=0.629573990392127 rxn_smarts="[C:1]([C@@:2]([O:3][H:12])([C:4]([O:5][C:6](=[O:7])[H:15])([H:13])[H:14])[H:11])([H:8])([H:9])[H:10]>>[C:1]([C:2]([O:3][H:12])=[C:4]([H:13])[H:14])([H:8])([H:9])[H:10].[O:5]=[C:6]([O:7][H:11])[H:15]"
C       -1.57446964       1.15057184      -0.65356746
C       -0.65508751       0.22906134       0.10671734
O       -0.92183217       0.23042437       1.47366511
C       -0.34968837      -1.04585069      -0.41314346
O        1.55517255      -1.57237001       0.04687052
C        2.35076794      -0.65649669       0.35611771
O        2.05819588       0.56715799       0.33142644
H       -2.61838217       0.87884549      -0.48392940
H       -1.37279609       1.11152126      -1.72413036
H       -1.43543454       2.17363076      -0.30104059
H        0.68221715       0.60505004      -0.05433477
H       -0.08277365       0.36033588       1.93140932
H       -0.41265114      -1.17709129      -1.48479473
H       -0.58670740      -1.91436307       0.18898465
H        3.36346917      -0.94042724       0.67974967
15
Frame=9 idx=011948 GeodesicLength=0.7070442701738933 rxn_smarts="[C:1]([C@@:2]([O:3][H:12])([C:4]([O:5][C:6](=[O:7])[H:15])([H:13])[H:14])[H:11])([H:8])([H:9])[H:10]>>[C:1]([C:2]([O:3][H:12])=[C:4]([H:13])[H:14])([H:8])([H:9])[H:10].[O:5]=[C:6]([O:7][H:11])[H:15]"
C       -1.59428672       1.14891295      -0.65965738
C       -0.65149035       0.24830156       0.09474245
O       -0.90611933       0.25922954       1.46260267
C       -0.34171080      -1.03068131      -0.41923619
O        1.54587198      -1.57262387       0.09187931
C        2.36100643      -0.66592361       0.37820364
O        2.07607058       0.55953100       0.36259937
H       -2.63151395       0.86146732      -0.47540727
H       -1.40486642       1.10690026      -1.73226150
H       -1.46762660       2.17539841      -0.31261944
H        0.70241154       0.62578038      -0.06811515
H       -0.05285355       0.30176461       1.91231244
H       -0.41794573      -1.16504485      -1.48991741
H       -0.59669964      -1.89360990       0.18432166
H        3.37975257      -0.95940250       0.67055280
15
Frame=10 idx=011948 GeodesicLength=0.7845619493408424 rxn_smarts="[C:1]([C@@:2]([O:3][H:12])([C:4]([O:5][C:6](=[O:7])[H:15])([H:13])[H:14])[H:11])([H:8])([H:9])[H:10]>>[C:1]([C:2]([O:3][H:12])=[C:4]([H:13])[H:14])([H:8])([H:9])[H:10].[O:5]=[C:6]([O:7][H:11])[H:15]"
C       -1.61393925       1.14666828      -0.66501163
C       -0.64703192       0.26773003       0.08226558
O       -0.88755950       0.28878754       1.45126794
C       -0.33284770      -1.01531709      -0.42591671
O        1.53700199      -1.57204937       0.13386242
C        2.37039612      -0.67591321       0.40240075
O        2.09374746       0.55141370       0.39463035
H       -2.64369393       0.84345275      -0.46470244
H       -1.43790113       1.10124694      -1.73967061
H       -1.49960732       2.17654351      -0.32393190
H        0.72415613       0.64636341      -0.08176959
H       -0.02805619       0.24606553       1.89097139
H       -0.42431017      -1.15311743      -1.49527698
H       -0.60477727      -1.87239010       0.17937433
H        3.39442267      -0.97948452       0.66150711
15
Frame=11 idx=011948 GeodesicLength=0.8621830401592762 rxn_smarts="[C:1]([C@@:2]([O:3][H:12])([C:4]([O:5][C:6](=[O:7])[H:15])([H:13])[H:14])[H:11])([H:8])([H:9])[H:10]>>[C:1]([C:2]([O:3][H:12])=[C:4]([H:13])[H:14])([H:8])([H:9])[H:10].[O:5]=[C:6]([O:7][H:11])[H:15]"
C       -1.63360064       1.14379218      -0.66932258
C       -0.64164975       0.28726437       0.06904891
O       -0.86578321       0.31871139       1.43941633
C       -0.32315270      -0.99978646      -0.43363106
O        1.52861968      -1.57087970       0.17226314
C        2.37899024      -0.68642847       0.42848364
O        2.11137723       0.54285678       0.42625416
H       -2.65493544       0.82470115      -0.45125381
H       -1.47242271       1.09465053      -1.74606255
H       -1.53150625       2.17695794      -0.33450067
H        0.74749255       0.66667036      -0.09597756
H       -0.00716433       0.19403542       1.86720190
H       -0.43187184      -1.14117171      -1.50124817
H       -0.61104292      -1.85082040       0.17364090
H        3.40665006      -1.00055339       0.65568742
15
Frame=12 idx=011948 GeodesicLength=0.939940948676776 rxn_smarts="[C:1]([C@@:2]([O:3][H:12])([C:4]([O:5][C:6](=[O:7])[H:15])([H:13])[H:14])[H:11])([H:8])([H:9])[H:10]>>[C:1]([C:2]([O:3][H:12])=[C:4]([H:13])[H:14])([H:8])([H:9])[H:10].[O:5]=[C:6]([O:7][H:11])[H:15]"
C       -1.65325248       1.14026701      -0.67257110
C       -0.63542474       0.30687952       0.05501053
O       -0.84116720       0.34877584       1.42684021
C       -0.31266183      -0.98410302      -0.44247723
O        1.52052851      -1.56932329       0.20766116
C        2.38667329      -0.69749101       0.45688173
O        2.12888411       0.53385554       0.45745827
H       -2.66514097       0.80518650      -0.43521780
H       -1.50832047       1.08714769      -1.75134492
H       -1.56338676       2.17657004      -0.34414024
H        0.77240014       0.68656671      -0.11075200
H        0.01023361       0.14611545       1.84129642
H       -0.44029917      -1.12911544      -1.50788695
H       -0.61583428      -1.82894191       0.16689652
H        3.41676823      -1.02238961       0.65234542
15
Frame=13 idx=011948 GeodesicLength=1.0178496737521514 rxn_smarts="[C:1]([C@@:2]([O:3][H:12])([C:4]([O:5][C:6](=[O:7])[H:15])([H:13])[H:14])[H:11])([H:8])([H:9])[H:10]>>[C:1]([C:2]([O:3][H:12])=[C:4]([H:13])[H:14])([H:8])([H:9])[H:10].[O:5]=[C:6]([O:7][H:11])[H:15]"
C       -1.67275781       1.13607808      -0.67487599
C       -0.62845926       0.32657474       0.04015428
O       -0.81432870       0.37884826       1.41339203
C       -0.30137220      -0.96828599      -0.45235917
O        1.51241395      -1.56751768       0.24108248
C        2.39327449      -0.70911542       0.48820049
O        2.14607420       0.52438813       0.48880837
H       -2.67413450       0.78490376      -0.41704154
H       -1.54519650       1.07872424      -1.75553771
H       -1.59522743       2.17533430      -0.35284402
H        0.79885737       0.70594316      -0.12578624
H        0.02422330       0.10249452       1.81372573
H       -0.44906190      -1.11690367      -1.51508693
H       -0.61950217      -1.80677783       0.15908737
H        3.42519718      -1.04468859       0.64908084
15
Frame=14 idx=011948 GeodesicLength=1.0959219715108113 rxn_smarts="[C:1]([C@@:2]([O:3][H:12])([C:4]([O:5][C:6](=[O:7])[H:15])([H:13])[H:14])[H:11])([H:8])([H:9])[H:10]>>[C:1]([C:2]([O:3][H:12])=[C:4]([H:13])[H:14])([H:8])([H:9])[H:10].[O:5]=[C:6]([O:7][H:11])[H:15]"
C       -1.69227801       1.13120453      -0.67597055
C       -0.62076574       0.34634515       0.02430857
O       -0.78506003       0.40868496       1.39888503
C       -0.28938764      -0.95232060      -0.46358151
O        1.50426643      -1.56547556       0.27209511
C        2.39900529      -0.72118286       0.52098545
O        2.16312176       0.51454747       0.51914613
H       -2.68190976       0.76377913      -0.39631492
H       -1.58347131       1.06944817      -1.75835192
H       -1.62718095       2.17318109      -0.36018864
H        0.82683278       0.72478440      -0.14170327
H        0.03599928       0.06333389       1.78433363
H       -0.45827811      -1.10440051      -1.52310464
H       -0.62208835      -1.78436691       0.14990480
H        3.43119436      -1.06756235       0.64955674
15
Frame=15 idx=011948 GeodesicLength=1.1741258584469987 rxn_smarts="[C:1]([C@@:2]([O:3][H:12])([C:4]([O:5][C:6](=[O:7])[H:15])([H:13])[H:14])[H:11])([H:8])([H:9])[H:10]>>[C:1]([C:2]([O:3][H:12])=[C:4]([H:13])[H:14])([H:8])([H:9])[H:10].[O:5]=[C:6]([O:7][H:11])[H:15]"
C       -1.71182729       1.12563402      -0.67577039
C       -0.61244062       0.36620728       0.00740593
O       -0.75357709       0.43815333       1.38317473
C       -0.27679421      -0.93619333      -0.47622435
O        1.49596237      -1.56319601       0.30078792
C        2.40385146      -0.73361038       0.55455631
O        2.18003760       0.50438319       0.54809278
H       -2.68836062       0.74178053      -0.37306782
H       -1.62314540       1.05934227      -1.75963123
H       -1.65931971       2.17005829      -0.36594717
H        0.85624318       0.74307504      -0.15868218
H        0.04617945       0.02866515       1.75321800
H       -0.46783700      -1.09153056      -1.53199282
H       -0.62371139      -1.76171324       0.13924248
H        3.43473927      -1.09105558       0.65483781
15
Frame=16 idx=011948 GeodesicLength=1.2524587733036965 rxn_smarts="[C:1]([C@@:2]([O:3][H:12])([C:4]([O:5][C:6](=[O:7])[H:15])([H:13])[H:14])[H:11])([H:8])([H:9])[H:10]>>[C:1]([C:2]([O:3][H:12])=[C:4]([H:13])[H:14])([H:8])([H:9])[H:10].[O:5]=[C:6]([O:7][H:11])[H:15]"
C       -1.73137894       1.11935624      -0.67424732
C       -0.60359957       0.38619143      -0.01059312
O       -0.72016967       0.46720107       1.36613232
C       -0.26368356      -0.91987756      -0.49029214
O        1.48739464      -1.56064703       0.32726803
C        2.40774314      -0.74630412       0.58849020
O        2.19681250       0.49394035       0.57548642
H       -2.69336361       0.71890210      -0.34741955
H       -1.66412870       1.04839193      -1.75926008
H       -1.69166310       2.16592309      -0.36999313
H        0.88700813       0.76081104      -0.17679134
H        0.05517012      -0.00164764       1.72051576
H       -0.47762836      -1.07823853      -1.54173083
H       -0.62448398      -1.73879677       0.12709216
H        3.43597096      -1.11520559       0.66534262
