11
Frame=0 idx=004748 GeodesicLength=0.0 rxn_smarts="[N:1]([C:2](=[O:3])[N:4](/[C:5](=[N:6]/[H:11])[H:10])[H:9])([H:7])[H:8]>>[N:1]([C-:2]=[O+:3][C:5]1([H:10])[N:4]([H:9])[N:6]1[H:11])([H:7])[H:8]"
N       -2.28179838      -0.36086875      -0.09062030
C       -1.02893547       0.04986720      -0.07130264
O       -0.13706611      -0.86720381      -0.14565529
N        0.74077526       1.26995114       0.11554453
C        1.16553228       0.00417012      -0.27654884
N        2.12657291      -0.04755152       0.66378991
H       -2.52601863      -1.33994816      -0.16614683
H       -3.02216483       0.31183267      -0.02480968
H        0.51374718       1.19376128       1.10353721
H        1.40555641      -0.10069082      -1.33496774
H        3.04379942      -0.11331932       0.22717965
11
Frame=1 idx=004748 GeodesicLength=0.05154060847504646 rxn_smarts="[N:1]([C:2](=[O:3])[N:4](/[C:5](=[N:6]/[H:11])[H:10])[H:9])([H:7])[H:8]>>[N:1]([C-:2]=[O+:3][C:5]1([H:10])[N:4]([H:9])[N:6]1[H:11])([H:7])[H:8]"
N       -2.28435077      -0.35485811      -0.07960109
C       -1.02777003       0.04737283      -0.11748648
O       -0.14533062      -0.87954770      -0.16787402
N        0.73582353       1.25082102       0.13143126
C        1.17525096      -0.00427995      -0.27758130
N        2.13378150      -0.04345617       0.66435606
H       -2.53561211      -1.33410078      -0.11902335
H       -3.01927767       0.32603788      -0.04357849
H        0.50244939       1.17301541       1.11740086
H        1.41202260      -0.09629125      -1.33751256
H        3.05301322      -0.08471317       0.22946911
11
Frame=2 idx=004748 GeodesicLength=0.10340046245781609 rxn_smarts="[N:1]([C:2](=[O:3])[N:4](/[C:5](=[N:6]/[H:11])[H:10])[H:9])([H:7])[H:8]>>[N:1]([C-:2]=[O+:3][C:5]1([H:10])[N:4]([H:9])[N:6]1[H:11])([H:7])[H:8]"
N       -2.28510429      -0.34707764      -0.06772357
C       -1.02613685       0.04255689      -0.16303283
O       -0.15335666      -0.89357925      -0.19002669
N        0.72891070       1.23011631       0.14620728
C        1.18467699      -0.01364990      -0.27843886
N        2.14062205      -0.03810076       0.66507802
H       -2.54394179      -1.32485463      -0.07528533
H       -3.01472599       0.34042262      -0.05939725
H        0.48963436       1.15151853       1.13028440
H        1.41816964      -0.09338756      -1.33969846
H        3.06125185      -0.05396462       0.23203329
11
Frame=3 idx=004748 GeodesicLength=0.15579872628725377 rxn_smarts="[N:1]([C:2](=[O:3])[N:4](/[C:5](=[N:6]/[H:11])[H:10])[H:9])([H:7])[H:8]>>[N:1]([C-:2]=[O+:3][C:5]1([H:10])[N:4]([H:9])[N:6]1[H:11])([H:7])[H:8]"
N       -2.28449552      -0.33773616      -0.05711928
C       -1.02419317       0.03575007      -0.20656360
O       -0.16124844      -0.90913474      -0.21163549
N        0.72041984       1.20802645       0.16081884
C        1.19380019      -0.02368369      -0.27900410
N        2.14762098      -0.03171533       0.66549906
H       -2.55112506      -1.31294061      -0.03258810
H       -3.00906663       0.35502446      -0.07487995
H        0.47620847       1.12906846       1.14323652
H        1.42335516      -0.09131536      -1.34158642
H        3.06872418      -0.02134354       0.23382251
11
Frame=4 idx=004748 GeodesicLength=0.2084453506525055 rxn_smarts="[N:1]([C:2](=[O:3])[N:4](/[C:5](=[N:6]/[H:11])[H:10])[H:9])([H:7])[H:8]>>[N:1]([C-:2]=[O+:3][C:5]1([H:10])[N:4]([H:9])[N:6]1[H:11])([H:7])[H:8]"
N       -2.28182087      -0.32677469      -0.04701784
C       -1.02185158       0.02685712      -0.24938359
O       -0.16897853      -0.92596453      -0.23367440
N        0.71011292       1.18437430       0.17477726
C        1.20253142      -0.03424016      -0.27948297
N        2.15384959      -0.02427225       0.66596851
H       -2.55642988      -1.29825029       0.00943732
H       -3.00153191       0.37003654      -0.08875741
H        0.46141183       1.10532371       1.15563407
H        1.42805778      -0.08974214      -1.34325035
H        3.07464924       0.01265240       0.23574940
11
Frame=5 idx=004748 GeodesicLength=0.26129329945755186 rxn_smarts="[N:1]([C:2](=[O:3])[N:4](/[C:5](=[N:6]/[H:11])[H:10])[H:9])([H:7])[H:8]>>[N:1]([C-:2]=[O+:3][C:5]1([H:10])[N:4]([H:9])[N:6]1[H:11])([H:7])[H:8]"
N       -2.27877921      -0.31541064      -0.03964664
C       -1.01949278       0.01665769      -0.28676780
O       -0.17693876      -0.94394648      -0.25172202
N        0.69931552       1.15995072       0.18856855
C        1.21089127      -0.04549156      -0.27897070
N        2.16126816      -0.01506801       0.66563027
H       -2.56165212      -1.28231151       0.04511140
H       -2.99343157       0.38521210      -0.10166202
H        0.44829937       1.08249229       1.16856625
H        1.43030307      -0.09038586      -1.34418906
H        3.08021705       0.04830125       0.23508175
11
Frame=6 idx=004748 GeodesicLength=0.31414407865982713 rxn_smarts="[N:1]([C:2](=[O:3])[N:4](/[C:5](=[N:6]/[H:11])[H:10])[H:9])([H:7])[H:8]>>[N:1]([C-:2]=[O+:3][C:5]1([H:10])[N:4]([H:9])[N:6]1[H:11])([H:7])[H:8]"
N       -2.27579549      -0.30394729      -0.03454062
C       -1.01696909       0.00568299      -0.31878720
O       -0.18518674      -0.96267554      -0.26583649
N        0.68859790       1.13484663       0.20253465
C        1.21902673      -0.05730781      -0.27747941
N        2.16977440      -0.00433196       0.66432637
H       -2.56715003      -1.26554276       0.07485592
H       -2.98509951       0.40028492      -0.11454620
H        0.43719119       1.06056859       1.18232662
H        1.43040169      -0.09300359      -1.34437633
H        3.08520896       0.08542582       0.23152268
11
Frame=7 idx=004748 GeodesicLength=0.3669384147120423 rxn_smarts="[N:1]([C:2](=[O:3])[N:4](/[C:5](=[N:6]/[H:11])[H:10])[H:9])([H:7])[H:8]>>[N:1]([C-:2]=[O+:3][C:5]1([H:10])[N:4]([H:9])[N:6]1[H:11])([H:7])[H:8]"
N       -2.27192222      -0.29214513      -0.03048551
C       -1.01425900      -0.00609118      -0.34914735
O       -0.19358072      -0.98198126      -0.27939383
N        0.67725274       1.10888106       0.21619273
C        1.22701768      -0.06941856      -0.27568941
N        2.17803370       0.00735987       0.66283775
H       -2.57190779      -1.24782640       0.10261895
H       -2.97566717       0.41573617      -0.12614872
H        0.42630807       1.03858799       1.19585950
H        1.42972592      -0.09640363      -1.34412747
H        3.08899879       0.12330107       0.22748334
11
Frame=8 idx=004748 GeodesicLength=0.41965464961358656 rxn_smarts="[N:1]([C:2](=[O:3])[N:4](/[C:5](=[N:6]/[H:11])[H:10])[H:9])([H:7])[H:8]>>[N:1]([C-:2]=[O+:3][C:5]1([H:10])[N:4]([H:9])[N:6]1[H:11])([H:7])[H:8]"
N       -2.26821541      -0.28055361      -0.02762745
C       -1.01150212      -0.01841004      -0.37528625
O       -0.20233453      -1.00181649      -0.28967616
N        0.66632078       1.08255479       0.22977840
C        1.23500105      -0.08194573      -0.27300298
N        2.18709110       0.02067437       0.66067833
H       -2.57752378      -1.23036086       0.12377499
H       -2.96583783       0.43153696      -0.13649462
H        0.41731119       1.01800537       1.20992062
H        1.42755331      -0.10177926      -1.34318799
H        3.09213623       0.16209450       0.22112312
11
Frame=9 idx=004748 GeodesicLength=0.47240857952164245 rxn_smarts="[N:1]([C:2](=[O:3])[N:4](/[C:5](=[N:6]/[H:11])[H:10])[H:9])([H:7])[H:8]>>[N:1]([C-:2]=[O+:3][C:5]1([H:10])[N:4]([H:9])[N:6]1[H:11])([H:7])[H:8]"
N       -2.26428786      -0.26884709      -0.02568222
C       -1.00860129      -0.03105582      -0.39923502
O       -0.21141307      -1.02197688      -0.29890573
N        0.65551309       1.05546875       0.24366554
C        1.24303338      -0.09474155      -0.26984725
N        2.19628701       0.03487105       0.65802857
H       -2.58302323      -1.21240122       0.14288365
H       -2.95560880       0.44740314      -0.14706685
H        0.40928277       0.99749504       1.22450574
H        1.42462000      -0.10797379      -1.34176832
H        3.09419801       0.20175837       0.21342188
11
Frame=10 idx=004748 GeodesicLength=0.5252235851537621 rxn_smarts="[N:1]([C:2](=[O:3])[N:4](/[C:5](=[N:6]/[H:11])[H:10])[H:9])([H:7])[H:8]>>[N:1]([C-:2]=[O+:3][C:5]1([H:10])[N:4]([H:9])[N:6]1[H:11])([H:7])[H:8]"
N       -2.26006445      -0.25703870      -0.02445173
C       -1.00554021      -0.04396582      -0.42141755
O       -0.22081700      -1.04250436      -0.30731521
N        0.64483864       1.02760474       0.25784468
C        1.25116263      -0.10784962      -0.26624742
N        2.20548141       0.04992927       0.65495169
H       -2.58848243      -1.19408055       0.16000794
H       -2.94478809       0.46351795      -0.15754668
H        0.40205680       0.97704839       1.23955147
H        1.42113582      -0.11505236      -1.33987808
H        3.09501689       0.24239107       0.20450088
11
Frame=11 idx=004748 GeodesicLength=0.5781475697643988 rxn_smarts="[N:1]([C:2](=[O:3])[N:4](/[C:5](=[N:6]/[H:11])[H:10])[H:9])([H:7])[H:8]>>[N:1]([C-:2]=[O+:3][C:5]1([H:10])[N:4]([H:9])[N:6]1[H:11])([H:7])[H:8]"
N       -2.25535595      -0.24491421      -0.02370448
C       -1.00233659      -0.05694454      -0.44258832
O       -0.23053658      -1.06324228      -0.31599690
N        0.63418837       0.99883511       0.27243241
C        1.25941688      -0.12113674      -0.26244983
N        2.21431258       0.06550446       0.65158118
H       -2.59315517      -1.17498471       0.17733160
H       -2.93361695       0.47947488      -0.16884362
H        0.39523994       0.95618925       1.25504561
H        1.41743185      -0.12240559      -1.33769479
H        3.09441162       0.28362437       0.19488715
11
Frame=12 idx=004748 GeodesicLength=0.6310774697267966 rxn_smarts="[N:1]([C:2](=[O:3])[N:4](/[C:5](=[N:6]/[H:11])[H:10])[H:9])([H:7])[H:8]>>[N:1]([C-:2]=[O+:3][C:5]1([H:10])[N:4]([H:9])[N:6]1[H:11])([H:7])[H:8]"
N       -2.25035325      -0.23297577      -0.02349029
C       -0.99894683      -0.07030799      -0.46207928
O       -0.24057221      -1.08439122      -0.32342320
N        0.62379963       0.96937612       0.28698664
C        1.26784952      -0.13480413      -0.25804508
N        2.22303110       0.08230673       0.64781678
H       -2.59840803      -1.15611827       0.19059163
H       -2.92132870       0.49626461      -0.17816241
H        0.38925215       0.93603853       1.27061057
H        1.41332116      -0.13125529      -1.33483439
H        3.09235544       0.32586668       0.18402903
11
Frame=13 idx=004748 GeodesicLength=0.6840654931517608 rxn_smarts="[N:1]([C:2](=[O:3])[N:4](/[C:5](=[N:6]/[H:11])[H:10])[H:9])([H:7])[H:8]>>[N:1]([C-:2]=[O+:3][C:5]1([H:10])[N:4]([H:9])[N:6]1[H:11])([H:7])[H:8]"
N       -2.24493384      -0.22087692      -0.02366568
C       -0.99538811      -0.08364287      -0.48050208
O       -0.25095581      -1.10568875      -0.33092081
N        0.61362467       0.93905041       0.30194138
C        1.27648457      -0.14865966      -0.25336645
N        2.23132957       0.09972877       0.64371705
H       -2.60317763      -1.13679137       0.20327299
H       -2.90857679       0.51302599      -0.18782009
H        0.38381705       0.91579471       1.28657011
H        1.40905770      -0.14060550      -1.33159871
H        3.08871864       0.36866518       0.17237230
11
Frame=14 idx=004748 GeodesicLength=0.7370978198808502 rxn_smarts="[N:1]([C:2](=[O:3])[N:4](/[C:5](=[N:6]/[H:11])[H:10])[H:9])([H:7])[H:8]>>[N:1]([C-:2]=[O+:3][C:5]1([H:10])[N:4]([H:9])[N:6]1[H:11])([H:7])[H:8]"
N       -2.23914431      -0.20865086      -0.02425162
C       -0.99164334      -0.09691048      -0.49775413
O       -0.26172666      -1.12711845      -0.33826154
N        0.60377118       0.90779735       0.31740245
C        1.28535405      -0.16274583      -0.24831604
N        2.23927523       0.11786707       0.63919612
H       -2.60763047      -1.11711020       0.21491524
H       -2.89531645       0.52984136      -0.19773784
H        0.37908548       0.89549649       1.30301432
H        1.40459091      -0.15062030      -1.32789332
H        3.08338437       0.41215384       0.15968637
11
Frame=15 idx=004748 GeodesicLength=0.7902530255752743 rxn_smarts="[N:1]([C:2](=[O:3])[N:4](/[C:5](=[N:6]/[H:11])[H:10])[H:9])([H:7])[H:8]>>[N:1]([C-:2]=[O+:3][C:5]1([H:10])[N:4]([H:9])[N:6]1[H:11])([H:7])[H:8]"
N       -2.23279907      -0.19645397      -0.02507439
C       -0.98762812      -0.11048233      -0.51415270
O       -0.27279325      -1.14896198      -0.34519633
N        0.59411146       0.87558117       0.33300038
C        1.29450973      -0.17722431      -0.24278142
N        2.24666966       0.13705572       0.63432106
H       -2.61234317      -1.09748426       0.22390985
H       -2.88067081       0.54761070      -0.20598249
H        0.37475753       0.87554829       1.31949319
H        1.40013125      -0.16192607      -1.32357643
H        3.07605480       0.45673703       0.14603929
11
Frame=16 idx=004748 GeodesicLength=0.8434273779053459 rxn_smarts="[N:1]([C:2](=[O:3])[N:4](/[C:5](=[N:6]/[H:11])[H:10])[H:9])([H:7])[H:8]>>[N:1]([C-:2]=[O+:3][C:5]1([H:10])[N:4]([H:9])[N:6]1[H:11])([H:7])[H:8]"
N       -2.22606835      -0.18408285      -0.02623974
C       -0.98337938      -0.12379396      -0.52945133
O       -0.28428656      -1.17081551      -0.35219394
N        0.58489894       0.84230752       0.34930677
C        1.30397627      -0.19190612      -0.23689481
N        2.25357371       0.15688400       0.62896264
H       -2.61659942      -1.07746164       0.23232786
H       -2.86561383       0.56528063      -0.21492411
H        0.37118119       0.85545814       1.33655317
H        1.39556496      -0.17378674      -1.31878560
H        3.06675246       0.50191655       0.13133909
