13
Frame=0 idx=002018 GeodesicLength=0.0 rxn_smarts="[C:1]([C@@:2]([O:3][H:10])([C:4]([O:5][H:13])([H:11])[H:12])[H:9])([H:6])([H:7])[H:8]>>[C:1]([C:4]([C:2](=[O:3])[H:9])([H:11])[H:12])([H:6])([H:7])[H:8].[O:5]([H:10])[H:13]"
C       -1.60432990       0.34669681       0.38793676
C       -0.33951510      -0.57521487      -0.23617089
O       -0.16861356      -0.50257695      -1.52140071
C        0.51189272       0.24116719       0.56984639
O        2.20608340      -0.43205637      -0.53006748
H       -1.56676853       1.37894825       0.04593724
H       -1.79445366       0.27733963       1.45884867
H       -2.40573636      -0.16115290      -0.14655824
H       -0.54031629      -1.56485224       0.21486362
H        1.46124647      -0.52344638      -1.21458811
H        0.73495027       1.23524970       0.20697183
H        0.72170314       0.01465103       1.61076155
H        2.78385739       0.26524709      -0.84638069
13
Frame=1 idx=002018 GeodesicLength=0.09153551766864393 rxn_smarts="[C:1]([C@@:2]([O:3][H:10])([C:4]([O:5][H:13])([H:11])[H:12])[H:9])([H:6])([H:7])[H:8]>>[C:1]([C:4]([C:2](=[O:3])[H:9])([H:11])[H:12])([H:6])([H:7])[H:8].[O:5]([H:10])[H:13]"
C       -1.59881501       0.35445896       0.39107144
C       -0.34014972      -0.59093784      -0.23676537
O       -0.15164794      -0.53555055      -1.52088833
C        0.50579059       0.24071277       0.56692293
O        2.20820477      -0.41427234      -0.52738508
H       -1.56288644       1.39332868       0.06914966
H       -1.79697952       0.26458294       1.45906598
H       -2.40666783      -0.13079812      -0.15518875
H       -0.54375511      -1.57595745       0.22238349
H        1.45628399      -0.53065962      -1.22744834
H        0.73018226       1.23182865       0.19564518
H        0.71250232       0.01258172       1.60841993
H        2.78793764       0.28068221      -0.84498273
13
Frame=2 idx=002018 GeodesicLength=0.1830928115849455 rxn_smarts="[C:1]([C@@:2]([O:3][H:10])([C:4]([O:5][H:13])([H:11])[H:12])[H:9])([H:6])([H:7])[H:8]>>[C:1]([C:4]([C:2](=[O:3])[H:9])([H:11])[H:12])([H:6])([H:7])[H:8].[O:5]([H:10])[H:13]"
C       -1.59337833       0.36219527       0.39425075
C       -0.34082285      -0.60637139      -0.23748586
O       -0.13472111      -0.56853082      -1.52004935
C        0.49962952       0.24066135       0.56354204
O        2.21009041      -0.39667162      -0.52454437
H       -1.55948582       1.40778790       0.09415801
H       -1.79991719       0.25106456       1.45874209
H       -2.40681519      -0.10011503      -0.16408706
H       -0.54679270      -1.58680862       0.22974496
H        1.45142495      -0.53878595      -1.24043947
H        0.72518446       1.22868274       0.18361547
H        0.70340116       0.01116850       1.60564647
H        2.79220268       0.29572311      -0.84309367
13
Frame=3 idx=002018 GeodesicLength=0.27476560629926994 rxn_smarts="[C:1]([C@@:2]([O:3][H:10])([C:4]([O:5][H:13])([H:11])[H:12])[H:9])([H:6])([H:7])[H:8]>>[C:1]([C:4]([C:2](=[O:3])[H:9])([H:11])[H:12])([H:6])([H:7])[H:8].[O:5]([H:10])[H:13]"
C       -1.58802630       0.36992980       0.39747479
C       -0.34154820      -0.62154150      -0.23834087
O       -0.11784738      -0.60152600      -1.51890391
C        0.49341664       0.24099397       0.55972141
O        2.21176137      -0.37923257      -0.52155555
H       -1.55655902       1.42222110       0.12091468
H       -1.80326104       0.23691000       1.45784333
H       -2.40619936      -0.06912042      -0.17317757
H       -0.54948276      -1.59744040       0.23696648
H        1.44668801      -0.54778052      -1.25363630
H        0.71997326       1.22581165       0.17090231
H        0.69440152       0.01036548       1.60248310
H        2.79668325       0.31040943      -0.84069191
13
Frame=4 idx=002018 GeodesicLength=0.36599519073255177 rxn_smarts="[C:1]([C@@:2]([O:3][H:10])([C:4]([O:5][H:13])([H:11])[H:12])[H:9])([H:6])([H:7])[H:8]>>[C:1]([C:4]([C:2](=[O:3])[H:9])([H:11])[H:12])([H:6])([H:7])[H:8].[O:5]([H:10])[H:13]"
C       -1.58274787       0.37769290       0.40073784
C       -0.34228356      -0.63642342      -0.23930325
O       -0.10096342      -0.63446598      -1.51731038
C        0.48711695       0.24163643       0.55542410
O        2.21319511      -0.36191498      -0.51849792
H       -1.55408865       1.43651538       0.14940801
H       -1.80700416       0.22219508       1.45624660
H       -2.40477225      -0.03775549      -0.18239283
H       -0.55175137      -1.60774875       0.24404154
H        1.44206821      -0.55768340      -1.26684643
H        0.71444115       1.22307605       0.15754284
H        0.68549302       0.01010064       1.59878708
H        2.80129683       0.32477553      -0.83783719
13
Frame=5 idx=002018 GeodesicLength=0.45742766528513124 rxn_smarts="[C:1]([C@@:2]([O:3][H:10])([C:4]([O:5][H:13])([H:11])[H:12])[H:9])([H:6])([H:7])[H:8]>>[C:1]([C:4]([C:2](=[O:3])[H:9])([H:11])[H:12])([H:6])([H:7])[H:8].[O:5]([H:10])[H:13]"
C       -1.57755581       0.38550762       0.40404797
C       -0.34309803      -0.65110967      -0.24040005
O       -0.08416039      -0.66744206      -1.51543958
C        0.48077725       0.24260965       0.55073165
O        2.21444263      -0.34469635      -0.51535203
H       -1.55201329       1.45061628       0.17950729
H       -1.81115188       0.20704692       1.45404703
H       -2.40262139      -0.00608463      -0.19173006
H       -0.55377011      -1.61792035       0.25103472
H        1.43755464      -0.56840506      -1.28032752
H        0.70870948       1.22060420       0.14355667
H        0.67671515       0.01034765       1.59478716
H        2.80617174       0.33892580      -0.83446324
13
Frame=6 idx=002018 GeodesicLength=0.5486940221366915 rxn_smarts="[C:1]([C@@:2]([O:3][H:10])([C:4]([O:5][H:13])([H:11])[H:12])[H:9])([H:6])([H:7])[H:8]>>[C:1]([C:4]([C:2](=[O:3])[H:9])([H:11])[H:12])([H:6])([H:7])[H:8].[O:5]([H:10])[H:13]"
C       -1.57242033       0.39339163       0.40742203
C       -0.34390529      -0.66552779      -0.24161121
O       -0.06735666      -0.70037361      -1.51308384
C        0.47434444       0.24384741       0.54557116
O        2.21542963      -0.32761148      -0.51212943
H       -1.55038248       1.46434484       0.21107249
H       -1.81556224       0.19164954       1.45113765
H       -2.39968641       0.02587691      -0.20096687
H       -0.55537257      -1.62777363       0.25786760
H        1.43313778      -0.57979355      -1.29408791
H        0.70261521       1.21822523       0.12897720
H        0.66801285       0.01101502       1.59024279
H        2.81114607       0.35272949      -0.83041166
13
Frame=7 idx=002018 GeodesicLength=0.6400180631934318 rxn_smarts="[C:1]([C@@:2]([O:3][H:10])([C:4]([O:5][H:13])([H:11])[H:12])[H:9])([H:6])([H:7])[H:8]>>[C:1]([C:4]([C:2](=[O:3])[H:9])([H:11])[H:12])([H:6])([H:7])[H:8].[O:5]([H:10])[H:13]"
C       -1.56735173       0.40137310       0.41084854
C       -0.34477734      -0.67978738      -0.24292561
O       -0.05061422      -0.73334581      -1.51035356
C        0.46786545       0.24532675       0.54002130
O        2.21624713      -0.31053446      -0.50886557
H       -1.54906690       1.47765133       0.24416267
H       -1.82038270       0.17599144       1.44751128
H       -2.39599337       0.05825428      -0.21025645
H       -0.55675613      -1.63747190       0.26466519
H        1.42882447      -0.59200680      -1.30811179
H        0.69626652       1.21600196       0.11382030
H        0.65943405       0.01208970       1.58536333
H        2.81630478       0.36645778      -0.82587963
13
Frame=8 idx=002018 GeodesicLength=0.7313100755803235 rxn_smarts="[C:1]([C@@:2]([O:3][H:10])([C:4]([O:5][H:13])([H:11])[H:12])[H:9])([H:6])([H:7])[H:8]>>[C:1]([C:4]([C:2](=[O:3])[H:9])([H:11])[H:12])([H:6])([H:7])[H:8].[O:5]([H:10])[H:13]"
C       -1.56233314       0.40947854       0.41434189
C       -0.34568429      -0.69389297      -0.24431311
O       -0.03390443      -0.76639947      -1.50715640
C        0.46132522       0.24701581       0.53407069
O        2.21686941      -0.29341868      -0.50558094
H       -1.54798843       1.49039973       0.27879016
H       -1.82562404       0.16009043       1.44308595
H       -2.39149129       0.09119488      -0.21960119
H       -0.55787421      -1.64697123       0.27145828
H        1.42462345      -0.60505679      -1.32241103
H        0.68957201       1.21387138       0.09808949
H        0.65096888       0.01353710       1.58009289
H        2.82154085       0.38015128      -0.82086667
13
Frame=9 idx=002018 GeodesicLength=0.8228666150773881 rxn_smarts="[C:1]([C@@:2]([O:3][H:10])([C:4]([O:5][H:13])([H:11])[H:12])[H:9])([H:6])([H:7])[H:8]>>[C:1]([C:4]([C:2](=[O:3])[H:9])([H:11])[H:12])([H:6])([H:7])[H:8].[O:5]([H:10])[H:13]"
C       -1.55735383       0.41769983       0.41791836
C       -0.34666429      -0.70789871      -0.24578389
O       -0.01728638      -0.79954112      -1.50353340
C        0.45474136       0.24890459       0.52775827
O        2.21728789      -0.27627029      -0.50227523
H       -1.54710532       1.50266640       0.31467342
H       -1.83121273       0.14406103       1.43801998
H       -2.38623108       0.12450906      -0.22897955
H       -0.55881801      -1.65636737       0.27826941
H        1.42043734      -0.61876909      -1.33716649
H        0.68261480       1.21186227       0.08181653
H        0.64264691       0.01529826       1.57451525
H        2.82694334       0.39384513      -0.81523266
13
Frame=10 idx=002018 GeodesicLength=0.9139279298637456 rxn_smarts="[C:1]([C@@:2]([O:3][H:10])([C:4]([O:5][H:13])([H:11])[H:12])[H:9])([H:6])([H:7])[H:8]>>[C:1]([C:4]([C:2](=[O:3])[H:9])([H:11])[H:12])([H:6])([H:7])[H:8].[O:5]([H:10])[H:13]"
C       -1.55240959       0.42606282       0.42159909
C       -0.34762558      -0.72169623      -0.24728867
O       -0.00062827      -0.83261003      -1.49927422
C        0.44807527       0.25090210       0.52104005
O        2.21748524      -0.25902577      -0.49901910
H       -1.54648244       1.51389756       0.35185423
H       -1.83720815       0.12806211       1.43191992
H       -2.38004723       0.15852083      -0.23811103
H       -0.55945232      -1.66540832       0.28503777
H        1.41636290      -0.63331914      -1.35210208
H        0.67524197       1.20977690       0.06507706
H        0.63441568       0.01731183       1.56842109
H        2.83227251       0.40752534      -0.80915412
13
Frame=11 idx=002018 GeodesicLength=1.0051228312337332 rxn_smarts="[C:1]([C@@:2]([O:3][H:10])([C:4]([O:5][H:13])([H:11])[H:12])[H:9])([H:6])([H:7])[H:8]>>[C:1]([C:4]([C:2](=[O:3])[H:9])([H:11])[H:12])([H:6])([H:7])[H:8].[O:5]([H:10])[H:13]"
C       -1.54749641       0.43456239       0.42539344
C       -0.34864876      -0.73541697      -0.24885092
O        0.01594965      -0.86571681      -1.49454596
C        0.44136500       0.25302364       0.51400820
O        2.21748065      -0.24167103      -0.49578123
H       -1.54593269       1.52432254       0.39001353
H       -1.84356636       0.11215367       1.42509160
H       -2.37308142       0.19300578      -0.24710184
H       -0.55994312      -1.67434549       0.29183815
H        1.41229518      -0.64852868      -1.36752990
H        0.66757659       1.20774697       0.04789372
H        0.62632394       0.01953551       1.56205602
H        2.83767774       0.42132849      -0.80248481
13
Frame=12 idx=002018 GeodesicLength=1.0963483153918683 rxn_smarts="[C:1]([C@@:2]([O:3][H:10])([C:4]([O:5][H:13])([H:11])[H:12])[H:9])([H:6])([H:7])[H:8]>>[C:1]([C:4]([C:2](=[O:3])[H:9])([H:11])[H:12])([H:6])([H:7])[H:8].[O:5]([H:10])[H:13]"
C       -1.54260557       0.44320046       0.42931898
C       -0.34970617      -0.74905729      -0.25045140
O        0.03246591      -0.89882268      -1.48928272
C        0.43460387       0.25522976       0.50666909
O        2.21725490      -0.22420361      -0.49257556
H       -1.54545434       1.53382820       0.42898409
H       -1.85025905       0.09644239       1.41749872
H       -2.36530788       0.22797685      -0.25584999
H       -0.56025164      -1.68314169       0.29866726
H        1.40819062      -0.66432512      -1.38349075
H        0.65958826       1.20570892       0.03031088
H        0.61837286       0.02191714       1.55538459
H        2.84310822       0.43524666      -0.79518320
13
Frame=13 idx=002018 GeodesicLength=1.1875908736429237 rxn_smarts="[C:1]([C@@:2]([O:3][H:10])([C:4]([O:5][H:13])([H:11])[H:12])[H:9])([H:6])([H:7])[H:8]>>[C:1]([C:4]([C:2](=[O:3])[H:9])([H:11])[H:12])([H:6])([H:7])[H:8].[O:5]([H:10])[H:13]"
C       -1.53773233       0.45197147       0.43338999
C       -0.35079076      -0.76263076      -0.25207629
O        0.04892309      -0.93190711      -1.48345959
C        0.42779432       0.25749311       0.49904625
O        2.21680462      -0.20660701      -0.48940596
H       -1.54501187       1.54233280       0.46858753
H       -1.85727375       0.08101689       1.40913830
H       -2.35672291       0.26342651      -0.26427622
H       -0.56038680      -1.69180061       0.30553641
H        1.40399909      -0.68064981      -1.40005533
H        0.65128377       1.20363464       0.01236932
H        0.61056794       0.02441580       1.54842348
H        2.84854559       0.44930409      -0.78721789
13
Frame=14 idx=002018 GeodesicLength=1.2788853406975527 rxn_smarts="[C:1]([C@@:2]([O:3][H:10])([C:4]([O:5][H:13])([H:11])[H:12])[H:9])([H:6])([H:7])[H:8]>>[C:1]([C:4]([C:2](=[O:3])[H:9])([H:11])[H:12])([H:6])([H:7])[H:8].[O:5]([H:10])[H:13]"
C       -1.53286910       0.46086749       0.43761853
C       -0.35189690      -0.77616169      -0.25371571
O        0.06532520      -0.96495945      -1.47707138
C        0.42093740       0.25979302       0.49116968
O        2.21612490      -0.18887638      -0.48626590
H       -1.54456394       1.54980087       0.50862244
H       -1.86458352       0.06596074       1.40004271
H       -2.34733750       0.29931380      -0.27231048
H       -0.56036045      -1.70034847       0.31246197
H        1.39965083      -0.69741501      -1.41733468
H        0.64267854       1.20151114      -0.00589443
H        0.60290962       0.02699784       1.54121257
H        2.85398492       0.46351611      -0.77853532
13
Frame=15 idx=002018 GeodesicLength=1.3703849027473514 rxn_smarts="[C:1]([C@@:2]([O:3][H:10])([C:4]([O:5][H:13])([H:11])[H:12])[H:9])([H:6])([H:7])[H:8]>>[C:1]([C:4]([C:2](=[O:3])[H:9])([H:11])[H:12])([H:6])([H:7])[H:8].[O:5]([H:10])[H:13]"
C       -1.52800900       0.46987900       0.44201340
C       -0.35303904      -0.78971207      -0.25535971
O        0.08166678      -0.99802835      -1.47015166
C        0.41404307       0.26212407       0.48309018
O        2.21522877      -0.17098354      -0.48314897
H       -1.54403757       1.55625340       0.54893403
H       -1.87220741       0.05131315       1.39027028
H       -2.33715064       0.33561065      -0.27995227
H       -0.56023467      -1.70887274       0.31949745
H        1.39506457      -0.71454971      -1.43549295
H        0.63382361       1.19936724      -0.02445794
H        0.59539506       0.02965137       1.53385959
H        2.85945646       0.47794754      -0.76910143
13
Frame=16 idx=002018 GeodesicLength=1.4612105423238022 rxn_smarts="[C:1]([C@@:2]([O:3][H:10])([C:4]([O:5][H:13])([H:11])[H:12])[H:9])([H:6])([H:7])[H:8]>>[C:1]([C:4]([C:2](=[O:3])[H:9])([H:11])[H:12])([H:6])([H:7])[H:8].[O:5]([H:10])[H:13]"
C       -1.52315494       0.47894165       0.44658029
C       -0.35408251      -0.80308569      -0.25692057
O        0.09808149      -1.03089172      -1.46232101
C        0.40706598       0.26437789       0.47467884
O        2.21404660      -0.15310589      -0.48007433
H       -1.54356326       1.56140318       0.58914989
H       -1.87998451       0.03734383       1.37969349
H       -2.32621648       0.37213092      -0.28677251
H       -0.55976468      -1.71693283       0.32656437
H        1.39010389      -0.73152004      -1.45456410
H        0.62458610       1.19684228      -0.04328744
H        0.58799959       0.03229784       1.52592345
H        2.86488272       0.49219857      -0.75865038
