15
Frame=0 idx=011883 GeodesicLength=0.0 rxn_smarts="[C:1]([C:2]([n:3]1[c:4]([H:13])[c:5]([H:14])[n:6][c:7]1[H:15])([H:11])[H:12])([H:8])([H:9])[H:10]>>[C:1]([C-:2]([N+:3]1=[C:4]([H:13])[C:5]([H:11])([H:14])[N:6]=[C:7]1[H:15])[H:12])([H:8])([H:9])[H:10]"
C       -2.09271721       0.26001787       0.01802625
C       -0.76714639      -0.43183356      -0.00233790
N        0.28951857       0.06242168       0.80889046
C        1.35298040      -0.81192174       0.68959303
C        1.90885839      -0.33859308      -0.51601796
N        1.75567904       1.10957635      -0.51612541
C        0.77472684       1.29082160       0.25943941
H       -2.68327160      -0.08008702      -0.83367624
H       -2.66358939       0.03548380       0.92541824
H       -1.99046104       1.34407864      -0.05640432
H        0.69313881      -0.56176779      -1.13049007
H       -0.80761571      -1.51866430      -0.02260005
H        1.18199746      -1.84773800       0.94746157
H        2.77116294      -0.74049891      -1.03177142
H        0.27673883       2.22870446       0.46059446
15
Frame=1 idx=011883 GeodesicLength=0.0760464211673296 rxn_smarts="[C:1]([C:2]([n:3]1[c:4]([H:13])[c:5]([H:14])[n:6][c:7]1[H:15])([H:11])[H:12])([H:8])([H:9])[H:10]>>[C:1]([C-:2]([N+:3]1=[C:4]([H:13])[C:5]([H:11])([H:14])[N:6]=[C:7]1[H:15])[H:12])([H:8])([H:9])[H:10]"
C       -2.09856825       0.26161247       0.02332433
C       -0.77363681      -0.43191188      -0.02009211
N        0.28364875       0.05557602       0.79343167
C        1.35122127      -0.81443351       0.68573509
C        1.91963982      -0.33681240      -0.51505804
N        1.77533741       1.11035754      -0.49761893
C        0.78056097       1.28695147       0.26389798
H       -2.71339086      -0.09365698      -0.80468695
H       -2.64638081       0.05512483       0.94901133
H       -2.00023814       1.34419723      -0.07509189
H        0.68726856      -0.55832245      -1.15489301
H       -0.82055633      -1.51860619      -0.03950376
H        1.18444664      -1.84968918       0.94756964
H        2.80075652      -0.73177243      -1.00424654
H        0.26989126       2.22138546       0.44822120
15
Frame=2 idx=011883 GeodesicLength=0.15191500723277773 rxn_smarts="[C:1]([C:2]([n:3]1[c:4]([H:13])[c:5]([H:14])[n:6][c:7]1[H:15])([H:11])[H:12])([H:8])([H:9])[H:10]>>[C:1]([C-:2]([N+:3]1=[C:4]([H:13])[C:5]([H:11])([H:14])[N:6]=[C:7]1[H:15])[H:12])([H:8])([H:9])[H:10]"
C       -2.10418449       0.26313655       0.02864420
C       -0.78020190      -0.43194916      -0.03766570
N        0.27800106       0.04880231       0.77769310
C        1.34950686      -0.81692153       0.68177754
C        1.93057614      -0.33494669      -0.51398979
N        1.79458411       1.11093336      -0.47889420
C        0.78623275       1.28301365       0.26835583
H       -2.74216759      -0.10651257      -0.77518847
H       -2.62872944       0.07427140       0.97139204
H       -2.01061417       1.34389040      -0.09278977
H        0.68086191      -0.55442116      -1.17972449
H       -0.83357433      -1.51846623      -0.05638082
H        1.18698299      -1.85150144       0.94791285
H        2.82943232      -0.72325305      -0.97613385
H        0.26329377       2.21392415       0.43499154
15
Frame=3 idx=011883 GeodesicLength=0.2276503349816491 rxn_smarts="[C:1]([C:2]([n:3]1[c:4]([H:13])[c:5]([H:14])[n:6][c:7]1[H:15])([H:11])[H:12])([H:8])([H:9])[H:10]>>[C:1]([C-:2]([N+:3]1=[C:4]([H:13])[C:5]([H:11])([H:14])[N:6]=[C:7]1[H:15])[H:12])([H:8])([H:9])[H:10]"
C       -2.10957604       0.26458407       0.03399075
C       -0.78684705      -0.43193907      -0.05509739
N        0.27256553       0.04209747       0.76164902
C        1.34782210      -0.81939086       0.67772501
C        1.94170255      -0.33298457      -0.51276672
N        1.81344211       1.11131542      -0.45991927
C        0.79173810       1.27901030       0.27280993
H       -2.76967902      -0.11877480      -0.74518271
H       -2.61061389       0.09297452       0.99266373
H       -2.02158396       1.34317506      -0.10956797
H        0.67390674      -0.55001819      -1.20502028
H       -0.84667112      -1.51823865      -0.07327648
H        1.18957540      -1.85317276       0.94849273
H        2.85721673      -0.71494443      -0.94743104
H        0.25700183       2.20630649       0.42093069
15
Frame=4 idx=011883 GeodesicLength=0.3032954040489393 rxn_smarts="[C:1]([C:2]([n:3]1[c:4]([H:13])[c:5]([H:14])[n:6][c:7]1[H:15])([H:11])[H:12])([H:8])([H:9])[H:10]>>[C:1]([C-:2]([N+:3]1=[C:4]([H:13])[C:5]([H:11])([H:14])[N:6]=[C:7]1[H:15])[H:12])([H:8])([H:9])[H:10]"
C       -2.11476315       0.26593445       0.03937131
C       -0.79357145      -0.43187779      -0.07240654
N        0.26733836       0.03547985       0.74527746
C        1.34616086      -0.82182793       0.67360205
C        1.95306212      -0.33092292      -0.51132918
N        1.83192694       1.11150898      -0.44071070
C        0.79707369       1.27495069       0.27722421
H       -2.79591780      -0.13044801      -0.71476350
H       -2.59209689       0.11114736       1.01287938
H       -2.03314091       1.34209035      -0.12536861
H        0.66637757      -0.54510284      -1.23079234
H       -0.85983760      -1.51792042      -0.09019969
H        1.19220664      -1.85467562       0.94936197
H        2.88411154      -0.70689016      -0.91820145
H        0.25107009       2.19855402       0.40605563
15
Frame=5 idx=011883 GeodesicLength=0.3788595859100205 rxn_smarts="[C:1]([C:2]([n:3]1[c:4]([H:13])[c:5]([H:14])[n:6][c:7]1[H:15])([H:11])[H:12])([H:8])([H:9])[H:10]>>[C:1]([C-:2]([N+:3]1=[C:4]([H:13])[C:5]([H:11])([H:14])[N:6]=[C:7]1[H:15])[H:12])([H:8])([H:9])[H:10]"
C       -2.11975130       0.26718118       0.04479084
C       -0.80038018      -0.43175739      -0.08962422
N        0.26231515       0.02895170       0.72854982
C        1.34450932      -0.82423348       0.66941384
C        1.96468136      -0.32875867      -0.50963433
N        1.85005654       1.11152111      -0.42123952
C        0.80223544       1.27084010       0.28158588
H       -2.82094715      -0.14163445      -0.68391913
H       -2.57317097       0.12881436       1.03210372
H       -2.04528096       1.34065166      -0.14022935
H        0.65825508      -0.53962366      -1.25707850
H       -0.87307301      -1.51750464      -0.10718851
H        1.19484475      -1.85600036       0.95053408
H        2.91014792      -0.69910183      -0.88844295
H        0.24555801       2.19065439       0.39037833
15
Frame=6 idx=011883 GeodesicLength=0.4543706732094451 rxn_smarts="[C:1]([C:2]([n:3]1[c:4]([H:13])[c:5]([H:14])[n:6][c:7]1[H:15])([H:11])[H:12])([H:8])([H:9])[H:10]>>[C:1]([C-:2]([N+:3]1=[C:4]([H:13])[C:5]([H:11])([H:14])[N:6]=[C:7]1[H:15])[H:12])([H:8])([H:9])[H:10]"
C       -2.12454983       0.26830998       0.05025665
C       -0.80727811      -0.43157748      -0.10677285
N        0.25749501       0.02251725       0.71143608
C        1.34285782      -0.82660639       0.66516459
C        1.97659037      -0.32649150      -0.50763633
N        1.86783399       1.11135824      -0.40150441
C        0.80721914       1.26667920       0.28586593
H       -2.84479190      -0.15239390      -0.65266792
H       -2.55384542       0.14597949       1.05038882
H       -2.05799245       1.33887612      -0.15416413
H        0.64949967      -0.53354800      -1.28391555
H       -0.88637813      -1.51699120      -0.12425834
H        1.19746543      -1.85713317       0.95203315
H        2.93535933      -0.69158918      -0.85815761
H        0.24051508       2.18261055       0.37393190
15
Frame=7 idx=011883 GeodesicLength=0.5298632245018011 rxn_smarts="[C:1]([C:2]([n:3]1[c:4]([H:13])[c:5]([H:14])[n:6][c:7]1[H:15])([H:11])[H:12])([H:8])([H:9])[H:10]>>[C:1]([C-:2]([N+:3]1=[C:4]([H:13])[C:5]([H:11])([H:14])[N:6]=[C:7]1[H:15])[H:12])([H:8])([H:9])[H:10]"
C       -2.12916412       0.26930847       0.05577642
C       -0.81427186      -0.43133516      -0.12387880
N        0.25287782       0.01617839       0.69389956
C        1.34119254      -0.82894749       0.66085798
C        1.98882099      -0.32412279      -0.50528099
N        1.88526899       1.11102589      -0.38149348
C        0.81201934       1.26247069       0.29003688
H       -2.86748494      -0.16280117      -0.62100453
H       -2.53411414       0.16265492       1.06778833
H       -2.07126811       1.33677850      -0.16719113
H        0.64006560      -0.52682551      -1.31134843
H       -0.89975313      -1.51637816      -0.14143830
H        1.20003406      -1.85805814       0.95388349
H        2.95978655      -0.68436260      -0.82733884
H        0.23599041       2.17441419       0.35673184
15
Frame=8 idx=011883 GeodesicLength=0.6053526382669895 rxn_smarts="[C:1]([C:2]([n:3]1[c:4]([H:13])[c:5]([H:14])[n:6][c:7]1[H:15])([H:11])[H:12])([H:8])([H:9])[H:10]>>[C:1]([C-:2]([N+:3]1=[C:4]([H:13])[C:5]([H:11])([H:14])[N:6]=[C:7]1[H:15])[H:12])([H:8])([H:9])[H:10]"
C       -2.13360630       0.27016116       0.06136182
C       -0.82136349      -0.43103131      -0.14096512
N        0.24846564       0.00994445       0.67590405
C        1.33950723      -0.83125441       0.65650149
C        2.00141140      -0.32166007      -0.50251738
N        1.90237253       1.11052573      -0.36122017
C        0.81663351       1.25821584       0.29405866
H       -2.88903251      -0.17287278      -0.58894268
H       -2.51400963       0.17880583       1.08432961
H       -2.08509874       1.33437151      -0.17929276
H        0.62990104      -0.51943116      -1.33940394
H       -0.91319635      -1.51566639      -0.15874280
H        1.20252965      -1.85875959       0.95612112
H        2.98347267      -0.67744366      -0.79599318
H        0.23201335       2.16609484       0.33880128
15
Frame=9 idx=011883 GeodesicLength=0.6809624681594119 rxn_smarts="[C:1]([C:2]([n:3]1[c:4]([H:13])[c:5]([H:14])[n:6][c:7]1[H:15])([H:11])[H:12])([H:8])([H:9])[H:10]>>[C:1]([C-:2]([N+:3]1=[C:4]([H:13])[C:5]([H:11])([H:14])[N:6]=[C:7]1[H:15])[H:12])([H:8])([H:9])[H:10]"
C       -2.13787393       0.27084688       0.06702273
C       -0.82854613      -0.43065912      -0.15810412
N        0.24426169       0.00382126       0.65735933
C        1.33777920      -0.83351898       0.65211575
C        2.01444954      -0.31911749      -0.49921384
N        1.91915567       1.10984809      -0.34076213
C        0.82107654       1.25391770       0.29783635
H       -2.90953854      -0.18263072      -0.55642070
H       -2.49356363       0.19438738       1.10004208
H       -2.09945580       1.33163129      -0.19040106
H        0.61893566      -0.51127116      -1.36814751
H       -0.92669517      -1.51484776      -0.17626335
H        1.20488455      -1.85917948       0.95883548
H        3.00650911      -0.67086896      -0.76408089
H        0.22862124       2.15764106       0.32018188
15
Frame=10 idx=011883 GeodesicLength=0.7565657292448127 rxn_smarts="[C:1]([C:2]([n:3]1[c:4]([H:13])[c:5]([H:14])[n:6][c:7]1[H:15])([H:11])[H:12])([H:8])([H:9])[H:10]>>[C:1]([C-:2]([N+:3]1=[C:4]([H:13])[C:5]([H:11])([H:14])[N:6]=[C:7]1[H:15])[H:12])([H:8])([H:9])[H:10]"
C       -2.14196588       0.27136590       0.07277701
C       -0.83585004      -0.43021643      -0.17528976
N        0.24027102      -0.00220222       0.63824401
C        1.33599405      -0.83575938       0.64765597
C        2.02788737      -0.31650481      -0.49542051
N        1.93561476       1.10900563      -0.32003732
C        0.82532682       1.24956939       0.30137961
H       -2.92895387      -0.19221081      -0.52344227
H       -2.47267160       0.20948709       1.11501058
H       -2.11435413       1.32858836      -0.20059738
H        0.60711245      -0.50231810      -1.39763909
H       -0.94027749      -1.51392297      -0.19398612
H        1.20707149      -1.85933714       0.96197627
H        3.02893273      -0.66459146      -0.73147715
H        0.22586232       2.14904696       0.30084616
15
Frame=11 idx=011883 GeodesicLength=0.8321644691523021 rxn_smarts="[C:1]([C:2]([n:3]1[c:4]([H:13])[c:5]([H:14])[n:6][c:7]1[H:15])([H:11])[H:12])([H:8])([H:9])[H:10]>>[C:1]([C-:2]([N+:3]1=[C:4]([H:13])[C:5]([H:11])([H:14])[N:6]=[C:7]1[H:15])[H:12])([H:8])([H:9])[H:10]"
C       -2.14588006       0.27170854       0.07864311
C       -0.84328515      -0.42969638      -0.19255710
N        0.23650020      -0.00812297       0.61849460
C        1.33413361      -0.83797882       0.64310813
C        2.04175471      -0.31383467      -0.49108853
N        1.95175730       1.10799682      -0.29903350
C        0.82938023       1.24517169       0.30463891
H       -2.94728998      -0.20166722      -0.48998054
H       -2.45130826       0.22409013       1.12928662
H       -2.12979544       1.32524181      -0.20985928
H        0.59436087      -0.49251121      -1.42794105
H       -0.95394969      -1.51288573      -0.21195153
H        1.20904178      -1.85920681       0.96557005
H        3.05079525      -0.65861407      -0.69809571
H        0.22378461       2.14030891       0.28076581
15
Frame=12 idx=011883 GeodesicLength=0.9077447884974492 rxn_smarts="[C:1]([C:2]([n:3]1[c:4]([H:13])[c:5]([H:14])[n:6][c:7]1[H:15])([H:11])[H:12])([H:8])([H:9])[H:10]>>[C:1]([C-:2]([N+:3]1=[C:4]([H:13])[C:5]([H:11])([H:14])[N:6]=[C:7]1[H:15])[H:12])([H:8])([H:9])[H:10]"
C       -2.14961853       0.27185369       0.08464674
C       -0.85085576      -0.42909655      -0.20993596
N        0.23295589      -0.01393375       0.59805361
C        1.33218630      -0.84017736       0.63847240
C        2.05608495      -0.31112680      -0.48616462
N        1.96759709       1.10681685      -0.27776102
C        0.83324068       1.24072279       0.30756073
H       -2.96454351      -0.21101270      -0.45605629
H       -2.42946923       0.23815134       1.14291035
H       -2.14576656       1.32159555      -0.21813687
H        0.58060210      -0.48180078      -1.45909851
H       -0.96771128      -1.51173385      -0.23019106
H        1.21075653      -1.85875772       0.96966934
H        3.07214678      -0.65295838      -0.66389415
H        0.22239456       2.13145766       0.25992529
15
Frame=13 idx=011883 GeodesicLength=0.9832897907764065 rxn_smarts="[C:1]([C:2]([n:3]1[c:4]([H:13])[c:5]([H:14])[n:6][c:7]1[H:15])([H:11])[H:12])([H:8])([H:9])[H:10]>>[C:1]([C-:2]([N+:3]1=[C:4]([H:13])[C:5]([H:11])([H:14])[N:6]=[C:7]1[H:15])[H:12])([H:8])([H:9])[H:10]"
C       -2.15316832       0.27178371       0.09081773
C       -0.85857430      -0.42840101      -0.22747145
N        0.22965071      -0.01962930       0.57683531
C        1.33012649      -0.84235422       0.63373135
C        2.07089978      -0.30840469      -0.48060413
N        1.98314319       1.10545924      -0.25622824
C        0.83690732       1.23622652       0.31007958
H       -2.98071705      -0.22031514      -0.42162474
H       -2.40710660       0.25164009       1.15592490
H       -2.16227175       1.31764379      -0.22536965
H        0.56575295      -0.47010541      -1.49119284
H       -0.98156565      -1.51045214      -0.24876836
H        1.21214448      -1.85795024       0.97430930
H        3.09302839      -0.64762784      -0.62871650
H        0.22175037       2.12248666       0.23827774
15
Frame=14 idx=011883 GeodesicLength=1.0588059752729586 rxn_smarts="[C:1]([C:2]([n:3]1[c:4]([H:13])[c:5]([H:14])[n:6][c:7]1[H:15])([H:11])[H:12])([H:8])([H:9])[H:10]>>[C:1]([C-:2]([N+:3]1=[C:4]([H:13])[C:5]([H:11])([H:14])[N:6]=[C:7]1[H:15])[H:12])([H:8])([H:9])[H:10]"
C       -2.15651466       0.27148012       0.09718135
C       -0.86645334      -0.42759854      -0.24521712
N        0.22659672      -0.02521187       0.55474474
C        1.32792687      -0.84452041       0.62885890
C        2.08623857      -0.30568444      -0.47433082
N        1.99839894       1.10392194      -0.23439806
C        0.84038317       1.23167822       0.31213299
H       -2.99579986      -0.22964911      -0.38659581
H       -2.38415353       0.26455131       1.16837136
H       -2.17931186       1.31337658      -0.23151865
H        0.54971757      -0.45733140      -1.52430939
H       -0.99552216      -1.50903066      -0.26775616
H        1.21312918      -1.85675067       0.97951926
H        3.11347735      -0.64262533      -0.59242392
H        0.22188703       2.11339426       0.21574132
15
Frame=15 idx=011883 GeodesicLength=1.1342811053681638 rxn_smarts="[C:1]([C:2]([n:3]1[c:4]([H:13])[c:5]([H:14])[n:6][c:7]1[H:15])([H:11])[H:12])([H:8])([H:9])[H:10]>>[C:1]([C-:2]([N+:3]1=[C:4]([H:13])[C:5]([H:11])([H:14])[N:6]=[C:7]1[H:15])[H:12])([H:8])([H:9])[H:10]"
C       -2.15964419       0.27091553       0.10377491
C       -0.87450154      -0.42667424      -0.26322756
N        0.22380909      -0.03067529       0.53168062
C        1.32555995      -0.84667799       0.62384390
C        2.10213834      -0.30299535      -0.46727235
N        2.01337644       1.10219662      -0.21226758
C        0.84367490       1.22707762       0.31364601
H       -3.00976868      -0.23906325      -0.35091939
H       -2.36055575       0.27683014       1.18029450
H       -2.19688743       1.30878558      -0.23650432
H        0.53239148      -0.44337842      -1.55852820
H       -1.00958050      -1.50745463      -0.28723384
H        1.21362761      -1.85511044       0.98535513
H        3.13352474      -0.63796867      -0.55487245
H        0.22283553       2.10419278       0.19223063
15
Frame=16 idx=011883 GeodesicLength=1.2096976902610854 rxn_smarts="[C:1]([C:2]([n:3]1[c:4]([H:13])[c:5]([H:14])[n:6][c:7]1[H:15])([H:11])[H:12])([H:8])([H:9])[H:10]>>[C:1]([C-:2]([N+:3]1=[C:4]([H:13])[C:5]([H:11])([H:14])[N:6]=[C:7]1[H:15])[H:12])([H:8])([H:9])[H:10]"
C       -2.16253544       0.27005455       0.11064738
C       -0.88273000      -0.42560286      -0.28156992
N        0.22130712      -0.03601066       0.50752047
C        1.32299070      -0.84882974       0.61866612
C        2.11863537      -0.30037058      -0.45934780
N        2.02809109       1.10027336      -0.18982618
C        0.84679086       1.22242711       0.31453183
H       -3.02258995      -0.24862173      -0.31452475
H       -2.33623968       0.28841114       1.19174063
H       -2.21500477       1.30385522      -0.24021424
H        0.51366762      -0.42813210      -1.59394320
H       -1.02373970      -1.50570073      -0.30730704
H        1.21353312      -1.85296654       0.99188010
H        3.15318627      -0.63367930      -0.51587461
H        0.22463740       2.09489286       0.16762122
