13
Frame=0 idx=009467 GeodesicLength=0.0 rxn_smarts="[O:1]([C@@:2]1([H:9])[C:3]([H:10])([H:11])[C@:4]1([O:5][C:6](=[O:7])[H:13])[H:12])[H:8]>>[O:1]=[C:2]([C:4](=[C:3]([H:10])[H:11])[H:12])[H:9].[O:5]=[C:6]([O:7][H:8])[H:13]"
O       -0.79606497       0.97817275       1.33999933
C       -0.86160764      -0.27234608       1.06787990
C       -1.13745247      -0.45105689      -0.98633735
C       -0.21402835      -0.89652220      -0.04524779
O        1.51912346      -0.53917171      -0.23794184
C        1.86931866       0.68013798      -0.29078752
O        1.21506095       1.66693806       0.07104716
H        0.00868917       1.38277778       0.79821978
H       -1.44788281      -0.88560551       1.74713291
H       -1.50681911      -1.12563366      -1.74789676
H       -1.43967776       0.58338148      -1.03958334
H       -0.08188627      -1.96740402       0.03149966
H        2.87322708       0.84633203      -0.70798413
13
Frame=1 idx=009467 GeodesicLength=0.08583762839872885 rxn_smarts="[O:1]([C@@:2]1([H:9])[C:3]([H:10])([H:11])[C@:4]1([O:5][C:6](=[O:7])[H:13])[H:12])[H:8]>>[O:1]=[C:2]([C:4](=[C:3]([H:10])[H:11])[H:12])[H:9].[O:5]=[C:6]([O:7][H:8])[H:13]"
O       -0.80569203       0.97468727       1.33568227
C       -0.88295159      -0.27508468       1.06117012
C       -1.14588602      -0.46286328      -0.97976920
C       -0.22209902      -0.91231699      -0.03987595
O        1.51826624      -0.52338945      -0.26412956
C        1.87543173       0.69398111      -0.29377733
O        1.23591606       1.67655400       0.10680585
H        0.02652161       1.38472660       0.81869663
H       -1.46240149      -0.88686231       1.74854399
H       -1.52911404      -1.13956444      -1.73241309
H       -1.38205228       0.58624455      -1.07200066
H       -0.09416350      -1.98315073       0.04516983
H        2.86822433       0.86703833      -0.73410290
13
Frame=2 idx=009467 GeodesicLength=0.17174218911817565 rxn_smarts="[O:1]([C@@:2]1([H:9])[C:3]([H:10])([H:11])[C@:4]1([O:5][C:6](=[O:7])[H:13])[H:12])[H:8]>>[O:1]=[C:2]([C:4](=[C:3]([H:10])[H:11])[H:12])[H:9].[O:5]=[C:6]([O:7][H:8])[H:13]"
O       -0.81491987       0.97218954       1.32962675
C       -0.90398647      -0.27701269       1.05381185
C       -1.15404162      -0.47424657      -0.97389797
C       -0.23021469      -0.92778387      -0.03480312
O        1.51668386      -0.50655153      -0.29200394
C        1.88226748       0.70799819      -0.29656077
O        1.26087432       1.68438651       0.14802751
H        0.04443182       1.38693884       0.83828166
H       -1.47715844      -0.88660363       1.74931552
H       -1.55128999      -1.15327885      -1.71701611
H       -1.32823276       0.58343450      -1.10297408
H       -0.10707443      -1.99853216       0.05895207
H        2.86266079       0.88906173      -0.76075937
13
Frame=3 idx=009467 GeodesicLength=0.25785399560085215 rxn_smarts="[O:1]([C@@:2]1([H:9])[C:3]([H:10])([H:11])[C@:4]1([O:5][C:6](=[O:7])[H:13])[H:12])[H:8]>>[O:1]=[C:2]([C:4](=[C:3]([H:10])[H:11])[H:12])[H:9].[O:5]=[C:6]([O:7][H:8])[H:13]"
O       -0.82360496       0.97072081       1.32175965
C       -0.92472682      -0.27807950       1.04572485
C       -1.16200165      -0.48555248      -0.96873825
C       -0.23835495      -0.94296116      -0.03002433
O        1.51430250      -0.48849122      -0.32173709
C        1.88977529       0.72220537      -0.29909594
O        1.29036668       1.68948627       0.19539252
H        0.06234300       1.38958773       0.85660704
H       -1.49202986      -0.88475252       1.74951337
H       -1.57338999      -1.16716240      -1.70166602
H       -1.27843328       0.57561806      -1.13282184
H       -0.12048787      -2.01354659       0.07302013
H        2.85624191       0.91292764      -0.78793409
13
Frame=4 idx=009467 GeodesicLength=0.3444291636055792 rxn_smarts="[O:1]([C@@:2]1([H:9])[C:3]([H:10])([H:11])[C@:4]1([O:5][C:6](=[O:7])[H:13])[H:12])[H:8]>>[O:1]=[C:2]([C:4](=[C:3]([H:10])[H:11])[H:12])[H:9].[O:5]=[C:6]([O:7][H:8])[H:13]"
O       -0.83173255       0.97050823       1.31172648
C       -0.94519678      -0.27810650       1.03673205
C       -1.17000075      -0.49722921      -0.96434073
C       -0.24650008      -0.95783388      -0.02559848
O        1.51095369      -0.46890663      -0.35389171
C        1.89779420       0.73672811      -0.30148404
O        1.32550234       1.69011419       0.25086977
H        0.08011978       1.39302824       0.87306156
H       -1.50671967      -0.88107018       1.74925745
H       -1.59591957      -1.18189071      -1.68601715
H       -1.23260391       0.56315560      -1.16229703
H       -0.13418830      -2.02811551       0.08759662
H        2.84849160       0.93961824      -0.81561479
13
Frame=5 idx=009467 GeodesicLength=0.4308344580526483 rxn_smarts="[O:1]([C@@:2]1([H:9])[C:3]([H:10])([H:11])[C@:4]1([O:5][C:6](=[O:7])[H:13])[H:12])[H:8]>>[O:1]=[C:2]([C:4](=[C:3]([H:10])[H:11])[H:12])[H:9].[O:5]=[C:6]([O:7][H:8])[H:13]"
O       -0.83860243       0.97122402       1.30003371
C       -0.96531661      -0.27720998       1.02696930
C       -1.17754644      -0.50905613      -0.96064654
C       -0.25460998      -0.97252895      -0.02131512
O        1.50670118      -0.44794118      -0.38786997
C        1.90696535       0.75084066      -0.30195599
O        1.36391381       1.68580129       0.31056480
H        0.09847889       1.39704090       0.88811484
H       -1.52155097      -0.87557512       1.74842718
H       -1.61777351      -1.19680173      -1.67067697
H       -1.19086659       0.54704528      -1.19068565
H       -0.14834167      -2.04232993       0.10278087
H        2.83854898       0.96949087      -0.84374047
13
Frame=6 idx=009467 GeodesicLength=0.516917592936468 rxn_smarts="[O:1]([C@@:2]1([H:9])[C:3]([H:10])([H:11])[C@:4]1([O:5][C:6](=[O:7])[H:13])[H:12])[H:8]>>[O:1]=[C:2]([C:4](=[C:3]([H:10])[H:11])[H:12])[H:9].[O:5]=[C:6]([O:7][H:8])[H:13]"
O       -0.84397041       0.97284286       1.28651116
C       -0.98467292      -0.27543890       1.01645910
C       -1.18570332      -0.52134075      -0.95730751
C       -0.26275950      -0.98690865      -0.01753620
O        1.50085668      -0.42469995      -0.42531920
C        1.91633393       0.76517229      -0.30237765
O        1.40480240       1.67564696       0.37297472
H        0.11744572       1.40181385       0.90125569
H       -1.53517730      -0.86847552       1.74758916
H       -1.64040876      -1.21240860      -1.65476881
H       -1.15362716       0.52748581      -1.21867073
H       -0.16254286      -2.05596795       0.11829413
H        2.82942349       1.00227855      -0.86710387
13
Frame=7 idx=009467 GeodesicLength=0.6031635513469648 rxn_smarts="[O:1]([C@@:2]1([H:9])[C:3]([H:10])([H:11])[C@:4]1([O:5][C:6](=[O:7])[H:13])[H:12])[H:8]>>[O:1]=[C:2]([C:4](=[C:3]([H:10])[H:11])[H:12])[H:9].[O:5]=[C:6]([O:7][H:8])[H:13]"
O       -0.84776265       0.97517856       1.27188237
C       -1.00361774      -0.27292079       1.00528664
C       -1.19375522      -0.53383514      -0.95451282
C       -0.27079795      -1.00121488      -0.01400194
O        1.49406140      -0.39950615      -0.46454930
C        1.92730435       0.77874850      -0.30055367
O        1.44609339       1.66049425       0.43478527
H        0.13786083       1.40686500       0.91431548
H       -1.54870049      -0.85987005       1.74625588
H       -1.66339380      -1.22827945      -1.63870945
H       -1.11974738       0.50533418      -1.24612986
H       -0.17701146      -2.06938590       0.13415864
H        2.81946673       1.03839188      -0.88822725
13
Frame=8 idx=009467 GeodesicLength=0.6880317576072418 rxn_smarts="[O:1]([C@@:2]1([H:9])[C:3]([H:10])([H:11])[C@:4]1([O:5][C:6](=[O:7])[H:13])[H:12])[H:8]>>[O:1]=[C:2]([C:4](=[C:3]([H:10])[H:11])[H:12])[H:9].[O:5]=[C:6]([O:7][H:8])[H:13]"
O       -0.84954959       0.97718948       1.25724202
C       -1.02199464      -0.27021610       0.99388729
C       -1.20102631      -0.54580098      -0.95188028
C       -0.27874166      -1.01549727      -0.01032121
O        1.48636578      -0.37271152      -0.50340596
C        1.93958990       0.79092543      -0.29696222
O        1.48453867       1.64309276       0.49009877
H        0.16004755       1.41104504       0.92867329
H       -1.56254125      -0.85053782       1.74424617
H       -1.68492673      -1.24285911      -1.62327020
H       -1.08819896       0.48183099      -1.27209114
H       -0.19227040      -2.08258977       0.15034168
H        2.80870764       1.07612887      -0.90655822
13
Frame=9 idx=009467 GeodesicLength=0.7726562596004884 rxn_smarts="[O:1]([C@@:2]1([H:9])[C:3]([H:10])([H:11])[C@:4]1([O:5][C:6](=[O:7])[H:13])[H:12])[H:8]>>[O:1]=[C:2]([C:4](=[C:3]([H:10])[H:11])[H:12])[H:9].[O:5]=[C:6]([O:7][H:8])[H:13]"
O       -0.84968270       0.97910885       1.24247848
C       -1.03997689      -0.26722529       0.98216624
C       -1.20784804      -0.55763750      -0.94952165
C       -0.28659470      -1.02979384      -0.00662148
O        1.47793990      -0.34408889      -0.54202132
C        1.95309802       0.80199375      -0.29249616
O        1.52138951       1.62364603       0.54082027
H        0.18377346       1.41453573       0.94431190
H       -1.57672849      -0.84041452       1.74160002
H       -1.70572256      -1.25690755      -1.60822757
H       -1.05898785       0.45688480      -1.29706723
H       -0.20820745      -2.09565167       0.16683380
H        2.79754779       1.11555011      -0.92225530
13
Frame=10 idx=009467 GeodesicLength=0.8571902283609215 rxn_smarts="[O:1]([C@@:2]1([H:9])[C:3]([H:10])([H:11])[C@:4]1([O:5][C:6](=[O:7])[H:13])[H:12])[H:8]>>[O:1]=[C:2]([C:4](=[C:3]([H:10])[H:11])[H:12])[H:9].[O:5]=[C:6]([O:7][H:8])[H:13]"
O       -0.84825056       0.98082585       1.22773066
C       -1.05758084      -0.26401340       0.97015379
C       -1.21427980      -0.56942082      -0.94740351
C       -0.29436269      -1.04413131      -0.00288485
O        1.46884713      -0.31357049      -0.58009038
C        1.96750227       0.81217201      -0.28790326
O        1.55680091       1.60280865       0.58703908
H        0.20885985       1.41723876       0.96129708
H       -1.59128243      -0.82963775       1.73830035
H       -1.72578577      -1.27053210      -1.59360991
H       -1.03200031       0.43070773      -1.32110689
H       -0.22484625      -2.10858972       0.18364532
H        2.78637849       1.15614258      -0.93516748
13
Frame=11 idx=009467 GeodesicLength=0.9414484540862798 rxn_smarts="[O:1]([C@@:2]1([H:9])[C:3]([H:10])([H:11])[C@:4]1([O:5][C:6](=[O:7])[H:13])[H:12])[H:8]>>[O:1]=[C:2]([C:4](=[C:3]([H:10])[H:11])[H:12])[H:9].[O:5]=[C:6]([O:7][H:8])[H:13]"
O       -0.84533240       0.98216677       1.21307843
C       -1.07474427      -0.26065985       0.95786905
C       -1.22039025      -0.58118916      -0.94545988
C       -0.30203061      -1.05846904       0.00088741
O        1.45897642      -0.28096750      -0.61755992
C        1.98224915       0.82182655      -0.28389352
O        1.59080820       1.58103696       0.62888579
H        0.23500866       1.41909224       0.97943990
H       -1.60601635      -0.81837214       1.73436525
H       -1.74519252      -1.28378570      -1.57929359
H       -1.00718570       0.40345830      -1.34427535
H       -0.24210789      -2.12130326       0.20078488
H        2.77595757       1.19716583      -0.94482846
13
Frame=12 idx=009467 GeodesicLength=1.026197293091282 rxn_smarts="[O:1]([C@@:2]1([H:9])[C:3]([H:10])([H:11])[C@:4]1([O:5][C:6](=[O:7])[H:13])[H:12])[H:8]>>[O:1]=[C:2]([C:4](=[C:3]([H:10])[H:11])[H:12])[H:9].[O:5]=[C:6]([O:7][H:8])[H:13]"
O       -0.84110101       0.98320662       1.19869461
C       -1.09167521      -0.25712110       0.94533310
C       -1.22615488      -0.59312389      -0.94380271
C       -0.30962469      -1.07293333       0.00473486
O        1.44866918      -0.24641970      -0.65419068
C        1.99739720       0.83118060      -0.28069030
O        1.62404657       1.55841005       0.66721296
H        0.26218422       1.42015948       0.99890302
H       -1.62134872      -0.80654294       1.72977785
H       -1.76414384      -1.29692935      -1.56535826
H       -0.98415345       0.37512162      -1.36678030
H       -0.26012134      -2.13393189       0.21830190
H        2.76602596       1.23892383      -0.95213604
13
Frame=13 idx=009467 GeodesicLength=1.109672064790939 rxn_smarts="[O:1]([C@@:2]1([H:9])[C:3]([H:10])([H:11])[C@:4]1([O:5][C:6](=[O:7])[H:13])[H:12])[H:8]>>[O:1]=[C:2]([C:4](=[C:3]([H:10])[H:11])[H:12])[H:9].[O:5]=[C:6]([O:7][H:8])[H:13]"
O       -0.83511734       0.98359102       1.18437595
C       -1.10821618      -0.25332070       0.93237571
C       -1.23062778      -0.60471899      -0.94229152
C       -0.31721727      -1.08754384       0.00922100
O        1.43806261      -0.21092464      -0.68838670
C        2.01227419       0.83987309      -0.27842339
O        1.65638434       1.53472588       0.70173418
H        0.29076478       1.41934438       1.02011361
H       -1.63771221      -0.79389068       1.72394753
H       -1.78096911      -1.30901189      -1.55220986
H       -0.96126951       0.34620009      -1.38836439
H       -0.27955930      -2.14635104       0.23687612
H        2.75320277       1.28202732      -0.95896824
13
Frame=14 idx=009467 GeodesicLength=1.1939179422565118 rxn_smarts="[O:1]([C@@:2]1([H:9])[C:3]([H:10])([H:11])[C@:4]1([O:5][C:6](=[O:7])[H:13])[H:12])[H:8]>>[O:1]=[C:2]([C:4](=[C:3]([H:10])[H:11])[H:12])[H:9].[O:5]=[C:6]([O:7][H:8])[H:13]"
O       -0.82800542       0.98331263       1.17103580
C       -1.12456912      -0.24957776       0.91945494
C       -1.23485276      -0.61645074      -0.94091320
C       -0.32488711      -1.10244243       0.01388823
O        1.42722741      -0.17374989      -0.72150836
C        2.02698983       0.84908192      -0.27777336
O        1.68782840       1.51160845       0.73231250
H        0.31989126       1.41777370       1.04232784
H       -1.65483212      -0.78112057       1.71762547
H       -1.79726254      -1.32089078      -1.53972775
H       -0.93972244       0.31652113      -1.40905445
H       -0.30000817      -2.15883999       0.25567143
H        2.74220278       1.32477434      -0.96333907
13
Frame=15 idx=009467 GeodesicLength=1.2776401934564585 rxn_smarts="[O:1]([C@@:2]1([H:9])[C:3]([H:10])([H:11])[C@:4]1([O:5][C:6](=[O:7])[H:13])[H:12])[H:8]>>[O:1]=[C:2]([C:4](=[C:3]([H:10])[H:11])[H:12])[H:9].[O:5]=[C:6]([O:7][H:8])[H:13]"
O       -0.81976887       0.98207805       1.15837490
C       -1.14044042      -0.24594781       0.90638501
C       -1.23854803      -0.62810022      -0.93953040
C       -0.33249835      -1.11748614       0.01883019
O        1.41579711      -0.13480817      -0.75353800
C        2.04096249       0.85871971      -0.27857859
O        1.71808839       1.48862486       0.75924856
H        0.34917297       1.41546639       1.06462345
H       -1.67212551      -0.76832110       1.71058850
H       -1.81299379      -1.33210944      -1.52736462
H       -0.91917411       0.28626157      -1.42883649
H       -0.32123343      -2.17110617       0.27484252
H        2.73276156       1.36672846      -0.96504504
13
Frame=16 idx=009467 GeodesicLength=1.3610271828856637 rxn_smarts="[O:1]([C@@:2]1([H:9])[C:3]([H:10])([H:11])[C@:4]1([O:5][C:6](=[O:7])[H:13])[H:12])[H:8]>>[O:1]=[C:2]([C:4](=[C:3]([H:10])[H:11])[H:12])[H:9].[O:5]=[C:6]([O:7][H:8])[H:13]"
O       -0.81031774       0.97987539       1.14674441
C       -1.15602507      -0.24233347       0.89326459
C       -1.24134963      -0.63952007      -0.93811902
C       -0.34027507      -1.13291757       0.02438463
O        1.40430240      -0.09508645      -0.78352923
C        2.05432206       0.86877403      -0.28084199
O        1.74759051       1.46617906       0.78262005
H        0.37907943       1.41188843       1.08770650
H       -1.69048519      -0.75527276       1.70259190
H       -1.82718322      -1.34243126      -1.51591057
H       -0.89857999       0.25562845      -1.44744593
H       -0.34392144      -2.18342182       0.29458278
H        2.72284296       1.40863803      -0.96604813
