12
Frame=0 idx=010553 GeodesicLength=0.0 rxn_smarts="[O:1]=[C:2]([C@@:3]1([H:9])[C:4]([H:10])([H:11])[N:5]=[C:6]([H:12])[O:7]1)[H:8]>>[O:1](/[C:2](=[C:3]1\[C:4]([H:10])([H:11])[N:5]=[C:6]([H:12])[O:7]1)[H:8])[H:9]"
O       -2.36002345       0.76766268      -0.19814445
C       -1.63875367      -0.27215075      -0.07451493
C       -0.32160674       0.05256820      -0.48295112
C        0.60110477       0.80750878       0.50232023
N        1.71604209      -0.12282324       0.69714201
C        1.56586234      -1.03861792      -0.15159797
O        0.47864897      -1.01813464      -0.96231173
H       -2.07257066      -1.21303396       0.26613835
H       -1.32070843       1.12391174      -0.81156053
H        1.00162053       1.73409936       0.08714444
H        0.10778815       1.04678872       1.44519448
H        2.24259610      -1.86777899      -0.31685881
12
Frame=1 idx=010553 GeodesicLength=0.03633792461725858 rxn_smarts="[O:1]=[C:2]([C@@:3]1([H:9])[C:4]([H:10])([H:11])[N:5]=[C:6]([H:12])[O:7]1)[H:8]>>[O:1](/[C:2](=[C:3]1\[C:4]([H:10])([H:11])[N:5]=[C:6]([H:12])[O:7]1)[H:8])[H:9]"
O       -2.36362988       0.76638089      -0.19401161
C       -1.63973639      -0.27124941      -0.05930675
C       -0.32336104       0.05115072      -0.47390859
C        0.60464319       0.80995068       0.50145301
N        1.72370255      -0.11641433       0.69047155
C        1.56615101      -1.03809355      -0.15057617
O        0.47186960      -1.02339175      -0.95177194
H       -2.07807987      -1.22561411       0.23435741
H       -1.31636910       1.13011689      -0.81175517
H        0.99770902       1.73728397       0.08058823
H        0.11787720       1.05064451       1.44745793
H        2.23922371      -1.87076451      -0.31299789
12
Frame=2 idx=010553 GeodesicLength=0.07262500885091644 rxn_smarts="[O:1]=[C:2]([C@@:3]1([H:9])[C:4]([H:10])([H:11])[N:5]=[C:6]([H:12])[O:7]1)[H:8]>>[O:1](/[C:2](=[C:3]1\[C:4]([H:10])([H:11])[N:5]=[C:6]([H:12])[O:7]1)[H:8])[H:9]"
O       -2.36718489       0.76480574      -0.18973717
C       -1.64083608      -0.27074086      -0.04412548
C       -0.32520590       0.04961114      -0.46476641
C        0.60802497       0.81227062       0.50062262
N        1.73121318      -0.11007997       0.68363298
C        1.56637701      -1.03758746      -0.14963240
O        0.46520180      -1.02849407      -0.94133849
H       -2.08267901      -1.23664135       0.20266331
H       -1.31202483       1.13600526      -0.81222480
H        0.99349051       1.74037464       0.07420405
H        0.12783933       1.05423835       1.44975451
H        2.23578389      -1.87376203      -0.30905272
12
Frame=3 idx=010553 GeodesicLength=0.10888524425666812 rxn_smarts="[O:1]=[C:2]([C@@:3]1([H:9])[C:4]([H:10])([H:11])[N:5]=[C:6]([H:12])[O:7]1)[H:8]>>[O:1](/[C:2](=[C:3]1\[C:4]([H:10])([H:11])[N:5]=[C:6]([H:12])[O:7]1)[H:8])[H:9]"
O       -2.37070787       0.76277635      -0.18518898
C       -1.64191289      -0.27075482      -0.02928503
C       -0.32705327       0.04814385      -0.45573843
C        0.61123286       0.81453306       0.49978429
N        1.73870414      -0.10364294       0.67630523
C        1.56679544      -1.03674655      -0.14929725
O        0.45887392      -1.03305614      -0.93148833
H       -2.08597463      -1.24630456       0.17143490
H       -1.30778230       1.14174032      -0.81281495
H        0.98879458       1.74360175       0.06818513
H        0.13763263       1.05731460       1.45210436
H        2.23139739      -1.87760494      -0.30400095
12
Frame=4 idx=010553 GeodesicLength=0.1450926725860561 rxn_smarts="[O:1]=[C:2]([C@@:3]1([H:9])[C:4]([H:10])([H:11])[N:5]=[C:6]([H:12])[O:7]1)[H:8]>>[O:1](/[C:2](=[C:3]1\[C:4]([H:10])([H:11])[N:5]=[C:6]([H:12])[O:7]1)[H:8])[H:9]"
O       -2.37414952       0.76073656      -0.18127309
C       -1.64329479      -0.27101778      -0.01516165
C       -0.32898210       0.04649378      -0.44680525
C        0.61412887       0.81644248       0.49912476
N        1.74558961      -0.09777690       0.66942134
C        1.56680511      -1.03639939      -0.14850569
O        0.45254288      -1.03779113      -0.92157560
H       -2.08842683      -1.25412086       0.14223555
H       -1.30322491       1.14731010      -0.81411082
H        0.98402573       1.74640206       0.06257839
H        0.14684904       1.06004506       1.45445390
H        2.22813690      -1.88032396      -0.30038183
12
Frame=5 idx=010553 GeodesicLength=0.18122626463322805 rxn_smarts="[O:1]=[C:2]([C@@:3]1([H:9])[C:4]([H:10])([H:11])[N:5]=[C:6]([H:12])[O:7]1)[H:8]>>[O:1](/[C:2](=[C:3]1\[C:4]([H:10])([H:11])[N:5]=[C:6]([H:12])[O:7]1)[H:8])[H:9]"
O       -2.37751896       0.75875021      -0.17797595
C       -1.64497931      -0.27143477      -0.00169988
C       -0.33098126       0.04467357      -0.43792233
C        0.61673008       0.81800128       0.49862597
N        1.75192017      -0.09245619       0.66298050
C        1.56644291      -1.03652703      -0.14718455
O        0.44620820      -1.04271811      -0.91146867
H       -2.09025097      -1.26029797       0.11494754
H       -1.29832867       1.15271057      -0.81609584
H        0.97919437       1.74874152       0.05733652
H        0.15550594       1.06246341       1.45675280
H        2.22605748      -1.88190649      -0.29829610
12
Frame=6 idx=010553 GeodesicLength=0.21737462565693744 rxn_smarts="[O:1]=[C:2]([C@@:3]1([H:9])[C:4]([H:10])([H:11])[N:5]=[C:6]([H:12])[O:7]1)[H:8]>>[O:1](/[C:2](=[C:3]1\[C:4]([H:10])([H:11])[N:5]=[C:6]([H:12])[O:7]1)[H:8])[H:9]"
O       -2.38083145       0.75667115      -0.17508494
C       -1.64682214      -0.27209637       0.01109780
C       -0.33299534       0.04283800      -0.42920524
C        0.61909398       0.81935293       0.49824671
N        1.75789297      -0.08742918       0.65666824
C        1.56593479      -1.03679683      -0.14581557
O        0.43999486      -1.04755312      -0.90154040
H       -2.09129283      -1.26530609       0.08936454
H       -1.29319260       1.15806951      -0.81858815
H        0.97420083       1.75091893       0.05252133
H        0.16373115       1.06449542       1.45908927
H        2.22428579      -1.88316434      -0.29675359
12
Frame=7 idx=010553 GeodesicLength=0.25352633612668163 rxn_smarts="[O:1]=[C:2]([C@@:3]1([H:9])[C:4]([H:10])([H:11])[N:5]=[C:6]([H:12])[O:7]1)[H:8]>>[O:1](/[C:2](=[C:3]1\[C:4]([H:10])([H:11])[N:5]=[C:6]([H:12])[O:7]1)[H:8])[H:9]"
O       -2.38411436       0.75429740      -0.17227661
C       -1.64864820      -0.27310789       0.02326815
C       -0.33496830       0.04115940      -0.42075472
C        0.62129191       0.82062780       0.49790374
N        1.76375318      -0.08240006       0.65005771
C        1.56554669      -1.03679878      -0.14496119
O        0.43405895      -1.05191167      -0.89220098
H       -2.09135155      -1.26955349       0.06509133
H       -1.28798291       1.16348639      -0.82131638
H        0.96890440       1.75320430       0.04818691
H        0.17170318       1.06600959       1.46148998
H        2.22180701      -1.88501297      -0.29448793
12
Frame=8 idx=010553 GeodesicLength=0.28969545840061517 rxn_smarts="[O:1]=[C:2]([C@@:3]1([H:9])[C:4]([H:10])([H:11])[N:5]=[C:6]([H:12])[O:7]1)[H:8]>>[O:1](/[C:2](=[C:3]1\[C:4]([H:10])([H:11])[N:5]=[C:6]([H:12])[O:7]1)[H:8])[H:9]"
O       -2.38735812       0.75170344      -0.16956168
C       -1.65048590      -0.27441368       0.03489912
C       -0.33691623       0.03959500      -0.41251744
C        0.62333932       0.82182100       0.49760092
N        1.76948205      -0.07739846       0.64321683
C        1.56521681      -1.03662846      -0.14448191
O        0.42833474      -1.05591357      -0.88331442
H       -2.09063329      -1.27312172       0.04199509
H       -1.28265671       1.16894486      -0.82431054
H        0.96336057       1.75554980       0.04427027
H        0.17945256       1.06709080       1.46394651
H        2.21886421      -1.88722901      -0.29174276
12
Frame=9 idx=010553 GeodesicLength=0.32588696279753615 rxn_smarts="[O:1]=[C:2]([C@@:3]1([H:9])[C:4]([H:10])([H:11])[N:5]=[C:6]([H:12])[O:7]1)[H:8]>>[O:1](/[C:2](=[C:3]1\[C:4]([H:10])([H:11])[N:5]=[C:6]([H:12])[O:7]1)[H:8])[H:9]"
O       -2.39057292       0.74883075      -0.16680869
C       -1.65227316      -0.27604639       0.04603900
C       -0.33882276       0.03819594      -0.40451644
C        0.62527148       0.82298114       0.49730461
N        1.77517615      -0.07231075       0.63597569
C        1.56502634      -1.03616239      -0.14456332
O        0.42286238      -1.05944664      -0.87501191
H       -2.08912604      -1.27618551       0.01986073
H       -1.27727034       1.17448416      -0.82746744
H        0.95752592       1.75804969       0.04077509
H        0.18707150       1.06770268       1.46647091
H        2.21513146      -1.89009267      -0.28805823
12
Frame=10 idx=010553 GeodesicLength=0.36212077272679377 rxn_smarts="[O:1]=[C:2]([C@@:3]1([H:9])[C:4]([H:10])([H:11])[N:5]=[C:6]([H:12])[O:7]1)[H:8]>>[O:1](/[C:2](=[C:3]1\[C:4]([H:10])([H:11])[N:5]=[C:6]([H:12])[O:7]1)[H:8])[H:9]"
O       -2.39375922       0.74568734      -0.16393842
C       -1.65399239      -0.27800747       0.05675190
C       -0.34068856       0.03696051      -0.39673995
C        0.62711075       0.82413059       0.49700105
N        1.78088817      -0.06708654       0.62825986
C        1.56499848      -1.03539332      -0.14524701
O        0.41763587      -1.06252410      -0.86730461
H       -2.08691085      -1.27883273      -0.00149971
H       -1.27184422       1.18011419      -0.83075830
H        0.95137995       1.76074287       0.03768094
H        0.19462631       1.06785652       1.46907905
H        2.21055569      -1.89364787      -0.28328481
12
Frame=11 idx=010553 GeodesicLength=0.39842892817076814 rxn_smarts="[O:1]=[C:2]([C@@:3]1([H:9])[C:4]([H:10])([H:11])[N:5]=[C:6]([H:12])[O:7]1)[H:8]>>[O:1](/[C:2](=[C:3]1\[C:4]([H:10])([H:11])[N:5]=[C:6]([H:12])[O:7]1)[H:8])[H:9]"
O       -2.39693087       0.74202063      -0.16060089
C       -1.65544016      -0.28048730       0.06701915
C       -0.34244465       0.03606162      -0.38934021
C        0.62892999       0.82539229       0.49659876
N        1.78685480      -0.06141402       0.61954304
C        1.56539307      -1.03390260      -0.14722064
O        0.41283281      -1.06472227      -0.86074887
H       -2.08368364      -1.28139191      -0.02240148
H       -1.26656196       1.18598296      -0.83387999
H        0.94476394       1.76393839       0.03509676
H        0.20231312       1.06733238       1.47181617
H        2.20397354      -1.89881017      -0.27588179
12
Frame=12 idx=010553 GeodesicLength=0.4346651816569464 rxn_smarts="[O:1]=[C:2]([C@@:3]1([H:9])[C:4]([H:10])([H:11])[N:5]=[C:6]([H:12])[O:7]1)[H:8]>>[O:1](/[C:2](=[C:3]1\[C:4]([H:10])([H:11])[N:5]=[C:6]([H:12])[O:7]1)[H:8])[H:9]"
O       -2.40002560       0.73846461      -0.15765553
C       -1.65709464      -0.28296975       0.07698703
C       -0.34425547       0.03505235      -0.38190820
C        0.63059600       0.82642965       0.49629324
N        1.79246045      -0.05606862       0.61108487
C        1.56549464      -1.03274724      -0.14874726
O        0.40795158      -1.06710531      -0.85391387
H       -2.08041551      -1.28321077      -0.04220323
H       -1.26089497       1.19170924      -0.83754745
H        0.93817163       1.76678109       0.03273070
H        0.20973297       1.06666392       1.47449703
H        2.19827891      -1.90299918      -0.26961733
12
Frame=13 idx=010553 GeodesicLength=0.47097526727995187 rxn_smarts="[O:1]=[C:2]([C@@:3]1([H:9])[C:4]([H:10])([H:11])[N:5]=[C:6]([H:12])[O:7]1)[H:8]>>[O:1](/[C:2](=[C:3]1\[C:4]([H:10])([H:11])[N:5]=[C:6]([H:12])[O:7]1)[H:8])[H:9]"
O       -2.40308853       0.73477535      -0.15475439
C       -1.65874009      -0.28567117       0.08662804
C       -0.34605514       0.03413036      -0.37463655
C        0.63217698       0.82742572       0.49601890
N        1.79797535      -0.05071960       0.60236458
C        1.56560538      -1.03152487      -0.15057660
O        0.40319445      -1.06926227      -0.84745666
H       -2.07672817      -1.28471324      -0.06118568
H       -1.25507167       1.19751850      -0.84148410
H        0.93140357       1.76971234       0.03070729
H        0.21708516       1.06567806       1.47726146
H        2.19224273      -1.90734917      -0.26288628
12
Frame=14 idx=010553 GeodesicLength=0.5074194198548827 rxn_smarts="[O:1]=[C:2]([C@@:3]1([H:9])[C:4]([H:10])([H:11])[N:5]=[C:6]([H:12])[O:7]1)[H:8]>>[O:1](/[C:2](=[C:3]1\[C:4]([H:10])([H:11])[N:5]=[C:6]([H:12])[O:7]1)[H:8])[H:9]"
O       -2.40608471       0.73095895      -0.15161240
C       -1.66035330      -0.28865558       0.09605928
C       -0.34784830       0.03327558      -0.36747700
C        0.63370517       0.82842788       0.49573996
N        1.80349084      -0.04525363       0.59323765
C        1.56573225      -1.03025182      -0.15268591
O        0.39857245      -1.07120242      -0.84137530
H       -2.07270334      -1.28592599      -0.07985734
H       -1.24915084       1.20336434      -0.84563872
H        0.92440029       1.77279562       0.02893719
H        0.22448281       1.06442132       1.48011879
H        2.18575669      -1.91195424      -0.25544618
12
Frame=15 idx=010553 GeodesicLength=0.5437116805783331 rxn_smarts="[O:1]=[C:2]([C@@:3]1([H:9])[C:4]([H:10])([H:11])[N:5]=[C:6]([H:12])[O:7]1)[H:8]>>[O:1](/[C:2](=[C:3]1\[C:4]([H:10])([H:11])[N:5]=[C:6]([H:12])[O:7]1)[H:8])[H:9]"
O       -2.40907706       0.72673516      -0.14830493
C       -1.66178885      -0.29194565       0.10510704
C       -0.34956162       0.03265639      -0.36059007
C        0.63521368       0.82937650       0.49536819
N        1.80909054      -0.03955958       0.58335826
C        1.56607224      -1.02850240      -0.15563552
O        0.39422755      -1.07245514      -0.83606396
H       -2.06802287      -1.28694677      -0.09785972
H       -1.24318417       1.20933493      -0.84972052
H        0.91713037       1.77599823       0.02764079
H        0.23196262       1.06251785       1.48293122
H        2.17793760      -1.91720952      -0.24623077
12
Frame=16 idx=010553 GeodesicLength=0.5800924951211947 rxn_smarts="[O:1]=[C:2]([C@@:3]1([H:9])[C:4]([H:10])([H:11])[N:5]=[C:6]([H:12])[O:7]1)[H:8]>>[O:1](/[C:2](=[C:3]1\[C:4]([H:10])([H:11])[N:5]=[C:6]([H:12])[O:7]1)[H:8])[H:9]"
O       -2.41202804       0.72251246      -0.14516495
C       -1.66328335      -0.29534982       0.11393755
C       -0.35130161       0.03203949      -0.35377678
C        0.63663216       0.83025164       0.49506437
N        1.81447890      -0.03400277       0.57346644
C        1.56626340      -1.02693091      -0.15852190
O        0.38988779      -1.07371758      -0.83086159
H       -2.06318316      -1.28766977      -0.11506239
H       -1.23694998       1.21534117      -0.85421810
H        0.90980934       1.77916534       0.02660040
H        0.23935129       1.06046528       1.48581032
H        2.17032325      -1.92210453      -0.23727337
