16
Frame=0 idx=000671 GeodesicLength=0.0 rxn_smarts="[C:1]([C:2]([C:3]([H:11])([H:12])[H:13])([C:4](=[O:5])[C:6]([H:14])([H:15])[H:16])[H:10])([H:7])([H:8])[H:9]>>[C:1]([C:2]([C:3]([H:11])([H:12])[H:13])([H:10])[H:16])([H:7])([H:8])[H:9].[C:4](=[O:5])=[C:6]([H:14])[H:15]"
C       -1.29882649       0.35070938      -0.85536733
C       -0.38439474      -0.35859902       0.13826955
C       -0.75456685      -0.09473055       1.58194495
C        1.18472193       0.53736794      -0.21744720
O        1.26010846       1.58310992       0.37373151
C        1.99734430      -0.29123787      -0.96462491
H       -1.03690951       0.11780500      -1.88737035
H       -1.24052251       1.43057441      -0.71399906
H       -2.33254740       0.03809170      -0.68484467
H       -0.41669464      -1.43680740      -0.08234951
H       -0.59285127       0.95843745       1.81474756
H       -0.15806690      -0.69337524       2.27280627
H       -1.80745707      -0.33034832       1.75076675
H        1.54929522      -1.10449237      -1.51890362
H        3.01935711      -0.00743497      -1.18699421
H        1.01201032      -0.69907004       0.17963423
16
Frame=1 idx=000671 GeodesicLength=0.10943088154332643 rxn_smarts="[C:1]([C:2]([C:3]([H:11])([H:12])[H:13])([C:4](=[O:5])[C:6]([H:14])([H:15])[H:16])[H:10])([H:7])([H:8])[H:9]>>[C:1]([C:2]([C:3]([H:11])([H:12])[H:13])([H:10])[H:16])([H:7])([H:8])[H:9].[C:4](=[O:5])=[C:6]([H:14])[H:15]"
C       -1.30180654       0.35189812      -0.85208694
C       -0.38599439      -0.35969885       0.13991933
C       -0.76305487      -0.09701703       1.58324711
C        1.19823922       0.54720429      -0.22481432
O        1.27245186       1.59400224       0.36162885
C        2.01152120      -0.29793585      -0.95544602
H       -1.04230561       0.12142872      -1.88538749
H       -1.24251537       1.43163254      -0.70946873
H       -2.33670313       0.04168016      -0.68488496
H       -0.43202412      -1.43740747      -0.08053812
H       -0.60135601       0.95564211       1.81858663
H       -0.17177857      -0.69883187       2.27582585
H       -1.81648328      -0.33227704       1.74956906
H        1.56442842      -1.11002216      -1.51283839
H        3.01863829       0.00467355      -1.21774053
H        1.02874289      -0.71497147       0.19442867
16
Frame=2 idx=000671 GeodesicLength=0.2188710942625492 rxn_smarts="[C:1]([C:2]([C:3]([H:11])([H:12])[H:13])([C:4](=[O:5])[C:6]([H:14])([H:15])[H:16])[H:10])([H:7])([H:8])[H:9]>>[C:1]([C:2]([C:3]([H:11])([H:12])[H:13])([H:10])[H:16])([H:7])([H:8])[H:9].[C:4](=[O:5])=[C:6]([H:14])[H:15]"
C       -1.30516397       0.35318383      -0.84873451
C       -0.38759537      -0.36070669       0.14130455
C       -0.77125995      -0.09951979       1.58439457
C        1.21159632       0.55796757      -0.23333793
O        1.28463246       1.60560551       0.34871011
C        2.02587380      -0.30385921      -0.94620105
H       -1.04832605       0.12531422      -1.88341862
H       -1.24502369       1.43277394      -0.70472221
H       -2.34114276       0.04522800      -0.68462360
H       -0.44733471      -1.43773195      -0.07912115
H       -0.60984998       0.95263137       1.82241238
H       -0.18490132      -0.70444521       2.27842582
H       -1.82512633      -0.33469473       1.74843916
H        1.57997202      -1.11502988      -1.50657734
H        3.01768993       0.01422940      -1.24627197
H        1.04595960      -0.73094637       0.20932178
16
Frame=3 idx=000671 GeodesicLength=0.3283173412242092 rxn_smarts="[C:1]([C:2]([C:3]([H:11])([H:12])[H:13])([C:4](=[O:5])[C:6]([H:14])([H:15])[H:16])[H:10])([H:7])([H:8])[H:9]>>[C:1]([C:2]([C:3]([H:11])([H:12])[H:13])([H:10])[H:16])([H:7])([H:8])[H:9].[C:4](=[O:5])=[C:6]([H:14])[H:15]"
C       -1.30894248       0.35458218      -0.84529461
C       -0.38922444      -0.36162603       0.14240642
C       -0.77916879      -0.10224660       1.58538326
C        1.22475297       0.56966685      -0.24313222
O        1.29662824       1.61791354       0.33489845
C        2.04031035      -0.30900246      -0.93694744
H       -1.05504555       0.12947643      -1.88145209
H       -1.24806704       1.43401179      -0.69974098
H       -2.34591240       0.04876642      -0.68401881
H       -0.46267850      -1.43778435      -0.07811241
H       -0.61828917       0.94939026       1.82622408
H       -0.19741950      -0.71024617       2.28058713
H       -1.83337555      -0.33758362       1.74739744
H        1.59591077      -1.11959463      -1.50010584
H        3.01685908       0.02132398      -1.27238736
H        1.06366201      -0.74704759       0.22429498
16
Frame=4 idx=000671 GeodesicLength=0.4377766504231255 rxn_smarts="[C:1]([C:2]([C:3]([H:11])([H:12])[H:13])([C:4](=[O:5])[C:6]([H:14])([H:15])[H:16])[H:10])([H:7])([H:8])[H:9]>>[C:1]([C:2]([C:3]([H:11])([H:12])[H:13])([H:10])[H:16])([H:7])([H:8])[H:9].[C:4](=[O:5])=[C:6]([H:14])[H:15]"
C       -1.31318747       0.35610775      -0.84175280
C       -0.39091018      -0.36246258       0.14320714
C       -0.78676744      -0.10520419       1.58621129
C        1.23767032       0.58230677      -0.25432083
O        1.30841527       1.63091833       0.32010469
C        2.05474676      -0.31337195      -0.92772205
H       -1.06254432       0.13392753      -1.87947755
H       -1.25166504       1.43535912      -0.69451020
H       -2.35106204       0.05232699      -0.68302767
H       -0.47811151      -1.43757029      -0.07752110
H       -0.62662461       0.94590560       1.83002012
H       -0.20931642      -0.71626432       2.28229497
H       -1.84122128      -0.34092385       1.74646819
H        1.61222470      -1.12377145      -1.49343321
H        3.01650150       0.02605670      -1.29587785
H        1.08185178      -0.76334014       0.23933686
16
Frame=5 idx=000671 GeodesicLength=0.5472514043283004 rxn_smarts="[C:1]([C:2]([C:3]([H:11])([H:12])[H:13])([C:4](=[O:5])[C:6]([H:14])([H:15])[H:16])[H:10])([H:7])([H:8])[H:9]>>[C:1]([C:2]([C:3]([H:11])([H:12])[H:13])([H:10])[H:16])([H:7])([H:8])[H:9].[C:4](=[O:5])=[C:6]([H:14])[H:15]"
C       -1.31792567       0.35777456      -0.83809794
C       -0.39267879      -0.36322612       0.14369519
C       -0.79405149      -0.10839721       1.58687889
C        1.25031950       0.59587602      -0.26701350
O        1.31997356       1.64459706       0.30425233
C        2.06911724      -0.31699647      -0.91851192
H       -1.07087676       0.13867574      -1.87748472
H       -1.25581421       1.43682771      -0.68901931
H       -2.35662591       0.05594803      -0.68161991
H       -0.49369122      -1.43709770      -0.07734807
H       -0.63481134       0.94216506       1.83380075
H       -0.22059606      -0.72252817       2.28354309
H       -1.84866578      -0.34468632       1.74566819
H        1.62890408      -1.12761074      -1.48655163
H        3.01689364       0.02858984      -1.31665254
H        1.10052922      -0.77991130       0.25446109
16
Frame=6 idx=000671 GeodesicLength=0.6567399855415758 rxn_smarts="[C:1]([C:2]([C:3]([H:11])([H:12])[H:13])([C:4](=[O:5])[C:6]([H:14])([H:15])[H:16])[H:10])([H:7])([H:8])[H:9]>>[C:1]([C:2]([C:3]([H:11])([H:12])[H:13])([H:10])[H:16])([H:7])([H:8])[H:9].[C:4](=[O:5])=[C:6]([H:14])[H:15]"
C       -1.32316845       0.35959674      -0.83432149
C       -0.39455284      -0.36392880       0.14386269
C       -0.80102174      -0.11182937       1.58738658
C        1.26267993       0.61035391      -0.28131145
O        1.33128332       1.65891839       0.28727315
C        2.08337007      -0.31991339      -0.90926521
H       -1.08007605       0.14372798      -1.87546337
H       -1.26049397       1.43842889      -0.68326029
H       -2.36262434       0.05967211      -0.67977499
H       -0.50947255      -1.43637482      -0.07758993
H       -0.64280684       0.93815640       1.83756706
H       -0.23127514      -0.72906558       2.28432915
H       -1.85571782      -0.34883676       1.74500727
H        1.64595217      -1.13115587      -1.47943367
H        3.01822944       0.02911769      -1.33470369
H        1.11969480      -0.79686752       0.26969817
16
Frame=7 idx=000671 GeodesicLength=0.7662419430352692 rxn_smarts="[C:1]([C:2]([C:3]([H:11])([H:12])[H:13])([C:4](=[O:5])[C:6]([H:14])([H:15])[H:16])[H:10])([H:7])([H:8])[H:9]>>[C:1]([C:2]([C:3]([H:11])([H:12])[H:13])([H:10])[H:16])([H:7])([H:8])[H:9].[C:4](=[O:5])=[C:6]([H:14])[H:15]"
C       -1.32892384       0.36158932      -0.83041540
C       -0.39655266      -0.36458296       0.14370034
C       -0.80767555      -0.11550495       1.58773350
C        1.27473300       0.62571974      -0.29732414
O        1.34231623       1.67385288       0.26908818
C        2.09745709      -0.32215285      -0.89991342
H       -1.09017219       0.14909392      -1.87340350
H       -1.26568212       1.44017482      -0.67722439
H       -2.36907395       0.06354185      -0.67747327
H       -0.52550737      -1.43540854      -0.07824475
H       -0.65056304       0.93386658       1.84131932
H       -0.24136743      -0.73590548       2.28464836
H       -1.86238285      -0.35334083       1.74449408
H        1.66338041      -1.13443604      -1.47204770
H        3.02066366       0.02782172      -1.35001760
H        1.13935063      -0.81432917       0.28508041
16
Frame=8 idx=000671 GeodesicLength=0.8757557647525243 rxn_smarts="[C:1]([C:2]([C:3]([H:11])([H:12])[H:13])([C:4](=[O:5])[C:6]([H:14])([H:15])[H:16])[H:10])([H:7])([H:8])[H:9]>>[C:1]([C:2]([C:3]([H:11])([H:12])[H:13])([H:10])[H:16])([H:7])([H:8])[H:9].[C:4](=[O:5])=[C:6]([H:14])[H:15]"
C       -1.33519715       0.36376863      -0.82637160
C       -0.39869666      -0.36520103       0.14319655
C       -0.81400550      -0.11942872       1.58791707
C        1.28646149       0.64195233      -0.31517150
O        1.35303229       1.68937336       0.24960373
C        2.11132928      -0.32373534      -0.89037478
H       -1.10119338       0.15478645      -1.87129487
H       -1.27135509       1.44207858      -0.67090134
H       -2.37598791       0.06760059      -0.67469441
H       -0.54184508      -1.43420394      -0.07931301
H       -0.65802455       0.92928157       1.84505674
H       -0.25088182      -0.74307775       2.28449205
H       -1.86866131      -0.35816363       1.74413699
H        1.68120871      -1.13746720      -1.46435819
H        3.02431752       0.02487021      -1.36256106
H        1.15949916      -0.83243411       0.30063763
16
Frame=9 idx=000671 GeodesicLength=0.9852772429645474 rxn_smarts="[C:1]([C:2]([C:3]([H:11])([H:12])[H:13])([C:4](=[O:5])[C:6]([H:14])([H:15])[H:16])[H:10])([H:7])([H:8])[H:9]>>[C:1]([C:2]([C:3]([H:11])([H:12])[H:13])([H:10])[H:16])([H:7])([H:8])[H:9].[C:4](=[O:5])=[C:6]([H:14])[H:15]"
C       -1.34198698       0.36615308      -0.82218218
C       -0.40100129      -0.36579631       0.14233896
C       -0.82000185      -0.12360596       1.58793334
C        1.29785297       0.65902509      -0.33497881
O        1.36338012       1.70545310       0.22871251
C        2.12493724      -0.32467651      -0.88054535
H       -1.11315926       0.16082207      -1.86912626
H       -1.27748270       1.44415461      -0.66427963
H       -2.38337267       0.07189524      -0.67142002
H       -0.55853406      -1.43276469      -0.08079576
H       -0.66512921       0.92438578       1.84877777
H       -0.25982769      -0.75061441       2.28384884
H       -1.87455188      -0.36326702       1.74394235
H        1.69947099      -1.14025816      -1.45631361
H        3.02926529       0.02043970      -1.37231091
H        1.18014098      -0.85134561       0.31639877
16
Frame=10 idx=000671 GeodesicLength=1.0948053524871335 rxn_smarts="[C:1]([C:2]([C:3]([H:11])([H:12])[H:13])([C:4](=[O:5])[C:6]([H:14])([H:15])[H:16])[H:10])([H:7])([H:8])[H:9]>>[C:1]([C:2]([C:3]([H:11])([H:12])[H:13])([H:10])[H:16])([H:7])([H:8])[H:9].[C:4](=[O:5])=[C:6]([H:14])[H:15]"
C       -1.34931035       0.36876326      -0.81783429
C       -0.40348583      -0.36637999       0.14110417
C       -0.82563403      -0.12804323       1.58777446
C        1.30888325       0.67692061      -0.35691449
O        1.37327526       1.72208143       0.20624985
C        2.13820751      -0.32496279      -0.87034464
H       -1.12612255       0.16722436      -1.86688486
H       -1.28405690       1.44641980      -0.65734087
H       -2.39124929       0.07646937      -0.66761179
H       -0.57562437      -1.43109122      -0.08270417
H       -0.67178999       0.91916272       1.85247600
H       -0.26818040      -0.75854843       2.28269268
H       -1.88002938      -0.36861709       1.74392932
H        1.71819452      -1.14278352      -1.44790634
H        3.03564645       0.01463043      -1.37904448
H        1.20127611      -0.87124571       0.33235944
16
Frame=11 idx=000671 GeodesicLength=1.204335922469725 rxn_smarts="[C:1]([C:2]([C:3]([H:11])([H:12])[H:13])([C:4](=[O:5])[C:6]([H:14])([H:15])[H:16])[H:10])([H:7])([H:8])[H:9]>>[C:1]([C:2]([C:3]([H:11])([H:12])[H:13])([H:10])[H:16])([H:7])([H:8])[H:9].[C:4](=[O:5])=[C:6]([H:14])[H:15]"
C       -1.35717516       0.37162346      -0.81331478
C       -0.40616869      -0.36696563       0.13946818
C       -0.83086873      -0.13274729       1.58743148
C        1.31953553       0.69560864      -0.38115260
O        1.38261521       1.73924680       0.18202586
C        2.15106057      -0.32457887      -0.85966303
H       -1.14012414       0.17402238      -1.86455571
H       -1.29105861       1.44889358      -0.65006452
H       -2.39963039       0.08137400      -0.66323360
H       -0.59316931      -1.42918343      -0.08504847
H       -0.67790806       0.91359409       1.85614384
H       -0.27591706      -0.76691633       2.28099474
H       -1.88506718      -0.37417238       1.74411589
H        1.73742629      -1.14501480      -1.43910820
H        3.04355013       0.00757463      -1.38254774
H        1.22289959      -0.89235885       0.34850867
16
Frame=12 idx=000671 GeodesicLength=1.3138653861205656 rxn_smarts="[C:1]([C:2]([C:3]([H:11])([H:12])[H:13])([C:4](=[O:5])[C:6]([H:14])([H:15])[H:16])[H:10])([H:7])([H:8])[H:9]>>[C:1]([C:2]([C:3]([H:11])([H:12])[H:13])([H:10])[H:16])([H:7])([H:8])[H:9].[C:4](=[O:5])=[C:6]([H:14])[H:15]"
C       -1.36559042       0.37476211      -0.80860798
C       -0.40906998      -0.36756862       0.13740216
C       -0.83566122      -0.13772545       1.58689343
C        1.32979456       0.71504958      -0.40788962
O        1.39126746       1.75694391       0.15580044
C        2.16339857      -0.32349665      -0.84837855
H       -1.15521009       0.18125297      -1.86212122
H       -1.29846862       1.45159876      -0.64242506
H       -2.40852888       0.08666559      -0.65824236
H       -0.61122813      -1.42704032      -0.08784150
H       -0.68336129       0.90765965       1.85977072
H       -0.28300246      -0.77575929       2.27871803
H       -1.88962752      -0.37988467       1.74452568
H        1.75722695      -1.14690894      -1.42989425
H        3.05306014      -0.00059303      -1.38252155
H        1.24500093      -0.91495559       0.36481165
16
Frame=13 idx=000671 GeodesicLength=1.4233902884900798 rxn_smarts="[C:1]([C:2]([C:3]([H:11])([H:12])[H:13])([C:4](=[O:5])[C:6]([H:14])([H:15])[H:16])[H:10])([H:7])([H:8])[H:9]>>[C:1]([C:2]([C:3]([H:11])([H:12])[H:13])([H:10])[H:16])([H:7])([H:8])[H:9].[C:4](=[O:5])=[C:6]([H:14])[H:15]"
C       -1.37456588       0.37821321      -0.80369483
C       -0.41221259      -0.36820720       0.13487164
C       -0.83995358      -0.14298577       1.58614689
C        1.33964776       0.73518869      -0.43734689
O        1.39906267       1.77517407       0.12727015
C        2.17510192      -0.32167592      -0.83635168
H       -1.17143156       0.18896294      -1.85956009
H       -1.30626600       1.45456249      -0.63439038
H       -2.41795772       0.09240897      -0.65258657
H       -0.62986894      -1.42466006      -0.09109869
H       -0.68799810       0.90133637       1.86334204
H       -0.28938803      -0.78512509       2.27581543
H       -1.89365989      -0.38569591       1.74518915
H        1.77767822      -1.14840907      -1.42023921
H        3.06425026      -0.00972382      -1.37856852
H        1.26756146      -0.93936389       0.38120156
16
Frame=14 idx=000671 GeodesicLength=1.532908125347344 rxn_smarts="[C:1]([C:2]([C:3]([H:11])([H:12])[H:13])([C:4](=[O:5])[C:6]([H:14])([H:15])[H:16])[H:10])([H:7])([H:8])[H:9]>>[C:1]([C:2]([C:3]([H:11])([H:12])[H:13])([H:10])[H:16])([H:7])([H:8])[H:9].[C:4](=[O:5])=[C:6]([H:14])[H:15]"
C       -1.38411099       0.38201738      -0.79855258
C       -0.41562366      -0.36890391       0.13183592
C       -0.84367283      -0.14853699       1.58517584
C        1.34908745       0.75594943      -0.46977161
O        1.40578981       1.79394512       0.09605592
C        2.18602347      -0.31906353      -0.82341969
H       -1.18884365       0.19721048      -1.85684660
H       -1.31442472       1.45781700      -0.62592121
H       -2.42792905       0.09867991      -0.64620562
H       -0.64917225      -1.42204079      -0.09483729
H       -0.69163154       0.89459816       1.86683780
H       -0.29501012      -0.79506877       2.27222836
H       -1.89709922      -0.39153555       1.74614547
H        1.79889090      -1.14944324      -1.41011402
H        3.07717445      -0.01964293      -1.37017866
H        1.29055196      -0.96598177       0.39756797
16
Frame=15 idx=000671 GeodesicLength=1.642419517662654 rxn_smarts="[C:1]([C:2]([C:3]([H:11])([H:12])[H:13])([C:4](=[O:5])[C:6]([H:14])([H:15])[H:16])[H:10])([H:7])([H:8])[H:9]>>[C:1]([C:2]([C:3]([H:11])([H:12])[H:13])([H:10])[H:16])([H:7])([H:8])[H:9].[C:4](=[O:5])=[C:6]([H:14])[H:15]"
C       -1.39423596       0.38622459      -0.79315339
C       -0.41933688      -0.36968734       0.12824600
C       -0.84672750      -0.15438980       1.58396064
C        1.35811211       0.77722368      -0.50544352
O        1.41118736       1.81327038       0.06167974
C        2.19598288      -0.31559256      -0.80939008
H       -1.20750766       0.20606988      -1.85394928
H       -1.32291209       1.46140175      -0.61696789
H       -2.43845534       0.10557035      -0.63902663
H       -0.66923595      -1.41918085      -0.09907763
H       -0.69402817       0.88741340       1.87023075
H       -0.29978743      -0.80565749       2.26788245
H       -1.89986257      -0.39731699       1.74744475
H        1.82101975      -1.14992673      -1.39947711
H        3.09185716      -0.03013479      -1.35670187
H        1.31393028      -0.99528747       0.41374308
16
Frame=16 idx=000671 GeodesicLength=1.7519296947330776 rxn_smarts="[C:1]([C:2]([C:3]([H:11])([H:12])[H:13])([C:4](=[O:5])[C:6]([H:14])([H:15])[H:16])[H:10])([H:7])([H:8])[H:9]>>[C:1]([C:2]([C:3]([H:11])([H:12])[H:13])([H:10])[H:16])([H:7])([H:8])[H:9].[C:4](=[O:5])=[C:6]([H:14])[H:15]"
C       -1.40495163       0.39089716      -0.78746335
C       -0.42339594      -0.37059476       0.12404234
C       -0.84900398      -0.16055824       1.58247721
C        1.36672823       0.79885669      -0.54468105
O        1.41493554       1.83316266       0.02353995
C        2.20475860      -0.31118111      -0.79403239
H       -1.22749232       0.21563599      -1.85082994
H       -1.33168398       1.46536543      -0.60746800
H       -2.44954912       0.11319529      -0.63096113
H       -0.69018211      -1.41607918      -0.10384378
H       -0.69489592       0.87974185       1.87348382
H       -0.30361803      -0.81697461       2.26268347
H       -1.90184467      -0.40293365       1.74915157
H        1.84428350      -1.14976278      -1.38826220
H        3.10827406      -0.04092145      -1.33731887
H        1.33763777      -1.02784928       0.42948233
