12
Frame=0 idx=004775 GeodesicLength=0.0 rxn_smarts="[C:1]([C:2]([C:3]([C:4]#[N:5])([H:11])[H:12])([H:9])[H:10])([H:6])([H:7])[H:8]>>[C:1]([C:2]([N:5]=[C:4]=[C:3]([H:11])[H:12])([H:9])[H:10])([H:6])([H:7])[H:8]"
C       -1.91042330       0.74548614      -0.07741386
C       -0.50116136       0.32506653      -0.01760124
C        1.73898294      -1.34684234       0.14580771
C        1.98967801      -0.01564451       0.02480707
N        1.87349501       1.14999887      -0.08315469
H       -1.95100204       1.73506916      -0.55153241
H       -2.49062184       0.08599031      -0.72944271
H       -2.38357168       0.81253675       0.90003402
H        0.00020434       0.06448641      -0.92717527
H       -0.00239114       0.23846764       0.92504090
H        1.81767552      -1.81436452       1.11785113
H        1.81913554      -1.98025041      -0.72722070
12
Frame=1 idx=004775 GeodesicLength=0.06597572415028363 rxn_smarts="[C:1]([C:2]([C:3]([C:4]#[N:5])([H:11])[H:12])([H:9])[H:10])([H:6])([H:7])[H:8]>>[C:1]([C:2]([N:5]=[C:4]=[C:3]([H:11])[H:12])([H:9])[H:10])([H:6])([H:7])[H:8]"
C       -1.89748277       0.73350980      -0.08049213
C       -0.47619609       0.34165830      -0.00760668
C        1.70745144      -1.34364798       0.14374823
C        2.00029519      -0.01922479       0.02683540
N        1.87888235       1.14571839      -0.08661999
H       -1.95658835       1.72751333      -0.54199652
H       -2.45790959       0.06979747      -0.74533682
H       -2.38497032       0.77460793       0.89155091
H       -0.00481548       0.05759246      -0.92766622
H       -0.00096945       0.30932008       0.95216407
H        1.81672245      -1.82188620       1.10779966
H        1.77558060      -1.97495880      -0.73237990
12
Frame=2 idx=004775 GeodesicLength=0.13211357414037794 rxn_smarts="[C:1]([C:2]([C:3]([C:4]#[N:5])([H:11])[H:12])([H:9])[H:10])([H:6])([H:7])[H:8]>>[C:1]([C:2]([N:5]=[C:4]=[C:3]([H:11])[H:12])([H:9])[H:10])([H:6])([H:7])[H:8]"
C       -1.88421614       0.72133691      -0.08309097
C       -0.45144001       0.35789539       0.00077561
C        1.67662148      -1.33983424       0.14241438
C        2.01057423      -0.02322659       0.02973753
N        1.88446901       1.14119530      -0.08808147
H       -1.96285584       1.71867046      -0.53308379
H       -2.42622889       0.05329524      -0.75874529
H       -2.38314276       0.73734104       0.88409526
H       -0.00970690       0.05156289      -0.92846119
H       -0.00068071       0.38062905       0.97429859
H        1.81326546      -1.83029965       1.09711451
H        1.73334106      -1.96856581      -0.73697317
12
Frame=3 idx=004775 GeodesicLength=0.1983792995757274 rxn_smarts="[C:1]([C:2]([C:3]([C:4]#[N:5])([H:11])[H:12])([H:9])[H:10])([H:6])([H:7])[H:8]>>[C:1]([C:2]([N:5]=[C:4]=[C:3]([H:11])[H:12])([H:9])[H:10])([H:6])([H:7])[H:8]"
C       -1.87070416       0.70906294      -0.08524023
C       -0.42700037       0.37363336       0.00785374
C        1.64660496      -1.33549774       0.14162409
C        2.02049681      -0.02763085       0.03353180
N        1.89012389       1.13643419      -0.08758792
H       -1.96947309       1.70867896      -0.52480014
H       -2.39563714       0.03658668      -0.76990645
H       -2.37851499       0.70098941       0.87763211
H       -0.01454758       0.04607405      -0.92931152
H       -0.00160366       0.45228465       0.99164533
H        1.80771137      -1.83953603       1.08580692
H        1.69254395      -1.96107962      -0.74124774
12
Frame=4 idx=004775 GeodesicLength=0.2647083835264607 rxn_smarts="[C:1]([C:2]([C:3]([C:4]#[N:5])([H:11])[H:12])([H:9])[H:10])([H:6])([H:7])[H:8]>>[C:1]([C:2]([N:5]=[C:4]=[C:3]([H:11])[H:12])([H:9])[H:10])([H:6])([H:7])[H:8]"
C       -1.85707408       0.69684141      -0.08698709
C       -0.40301797       0.38859420       0.01399108
C        1.61758782      -1.33073990       0.14121405
C        2.03004227      -0.03239877       0.03821520
N        1.89562151       1.13145719      -0.08512331
H       -1.97606274       1.69773982      -0.51728610
H       -2.36632441       0.01981463      -0.77902072
H       -2.37154580       0.66600562       0.87212442
H       -0.01946155       0.04075016      -0.92990986
H       -0.00385109       0.52403283       1.00440466
H        1.80066396      -1.84956240       1.07380247
H        1.65342208      -1.95253479      -0.74542481
12
Frame=5 idx=004775 GeodesicLength=0.33119931882359505 rxn_smarts="[C:1]([C:2]([C:3]([C:4]#[N:5])([H:11])[H:12])([H:9])[H:10])([H:6])([H:7])[H:8]>>[C:1]([C:2]([N:5]=[C:4]=[C:3]([H:11])[H:12])([H:9])[H:10])([H:6])([H:7])[H:8]"
C       -1.84329998       0.68453852      -0.08824163
C       -0.37934951       0.40306309       0.01912533
C        1.58937793      -1.32570635       0.14102521
C        2.03923392      -0.03755581       0.04404578
N        1.90121166       1.12627033      -0.08046438
H       -1.98294038       1.68550988      -0.51070457
H       -2.33800063       0.00244005      -0.78578096
H       -2.36218519       0.63251418       0.86777717
H       -0.02420553       0.03601810      -0.93053885
H       -0.00727766       0.59629980       1.01252485
H        1.79145550      -1.86046919       1.06101537
H        1.61597988      -1.94292259      -0.74978332
12
Frame=6 idx=004775 GeodesicLength=0.3977236569446744 rxn_smarts="[C:1]([C:2]([C:3]([C:4]#[N:5])([H:11])[H:12])([H:9])[H:10])([H:6])([H:7])[H:8]>>[C:1]([C:2]([N:5]=[C:4]=[C:3]([H:11])[H:12])([H:9])[H:10])([H:6])([H:7])[H:8]"
C       -1.82950365       0.67232538      -0.08908963
C       -0.35614483       0.41683152       0.02370725
C        1.56210557      -1.32046532       0.14094161
C        2.04806516      -0.04309151       0.05090124
N        1.90667895       1.12087409      -0.07357293
H       -1.98967384       1.67230668      -0.50521536
H       -2.31084782      -0.01538055      -0.79045775
H       -2.35100027       0.60091059       0.86447524
H       -0.02895952       0.03149499      -0.93072637
H       -0.01203766       0.66868782       1.01612420
H        1.78112027      -1.87222041       1.04738125
H        1.58019765      -1.93227327      -0.75446877
12
Frame=7 idx=004775 GeodesicLength=0.4643445231950285 rxn_smarts="[C:1]([C:2]([C:3]([C:4]#[N:5])([H:11])[H:12])([H:9])[H:10])([H:6])([H:7])[H:8]>>[C:1]([C:2]([N:5]=[C:4]=[C:3]([H:11])[H:12])([H:9])[H:10])([H:6])([H:7])[H:8]"
C       -1.81563178       0.66004825      -0.08948318
C       -0.33324359       0.43035640       0.02778667
C        1.53548552      -1.31506995       0.14082375
C        2.05657579      -0.04910871       0.05892748
N        1.91233320       1.11519969      -0.06421985
H       -1.99654095       1.65784413      -0.50098328
H       -2.28447580      -0.03422272      -0.79283091
H       -2.33800930       0.57113755       0.86235826
H       -0.03352288       0.02760898      -0.93051544
H       -0.01797532       0.74156687       1.01505880
H        1.76921232      -1.88485133       1.03277983
H        1.54579280      -1.92050916      -0.75970212
12
Frame=8 idx=004775 GeodesicLength=0.5311148199352586 rxn_smarts="[C:1]([C:2]([C:3]([C:4]#[N:5])([H:11])[H:12])([H:9])[H:10])([H:6])([H:7])[H:8]>>[C:1]([C:2]([N:5]=[C:4]=[C:3]([H:11])[H:12])([H:9])[H:10])([H:6])([H:7])[H:8]"
C       -1.80165117       0.64756098      -0.08940094
C       -0.31046966       0.44415727       0.03138214
C        1.50922966      -1.30953178       0.14058768
C        2.06481306      -0.05575947       0.06819303
N        1.91849143       1.10912466      -0.05214239
H       -2.00388741       1.64190732      -0.49810701
H       -2.25857798      -0.05459853      -0.79283332
H       -2.32318623       0.54296752       0.86158446
H       -0.03771373       0.02483612      -0.92988204
H       -0.02487595       0.81531397       1.00913182
H        1.75541808      -1.89838087       1.01707504
H        1.51240988      -1.90759720      -0.76558847
12
Frame=9 idx=004775 GeodesicLength=0.5981442215550198 rxn_smarts="[C:1]([C:2]([C:3]([C:4]#[N:5])([H:11])[H:12])([H:9])[H:10])([H:6])([H:7])[H:8]>>[C:1]([C:2]([N:5]=[C:4]=[C:3]([H:11])[H:12])([H:9])[H:10])([H:6])([H:7])[H:8]"
C       -1.78754178       0.63499431      -0.08868224
C       -0.28798109       0.45763541       0.03436663
C        1.48345025      -1.30399247       0.14005884
C        2.07252309      -0.06286983       0.07911712
N        1.92463613       1.10280556      -0.03685579
H       -2.01134276       1.62430837      -0.49678159
H       -2.23324194      -0.07643494      -0.78981867
H       -2.30653216       0.51746005       0.86237514
H       -0.04154768       0.02283519      -0.92936159
H       -0.03298484       0.88959946       0.99792506
H        1.73976462      -1.91292503       1.00013034
H        1.48079816      -1.89341608      -0.77247325
12
Frame=10 idx=004775 GeodesicLength=0.6655550475754518 rxn_smarts="[C:1]([C:2]([C:3]([C:4]#[N:5])([H:11])[H:12])([H:9])[H:10])([H:6])([H:7])[H:8]>>[C:1]([C:2]([N:5]=[C:4]=[C:3]([H:11])[H:12])([H:9])[H:10])([H:6])([H:7])[H:8]"
C       -1.77311519       0.62188772      -0.08731359
C       -0.26533147       0.47216010       0.03666000
C        1.45741191      -1.29828781       0.13918853
C        2.07984779      -0.07085726       0.09166644
N        1.93163382       1.09589401      -0.01806153
H       -2.01975095       1.60456541      -0.49682053
H       -2.20763421      -0.10069688      -0.78390832
H       -2.28770703       0.49334674       0.86494009
H       -0.04463739       0.02276029      -0.92880353
H       -0.04176301       0.96541414       0.98092978
H        1.72121946      -1.92834275       0.98184659
H        1.44982628      -1.87784370      -0.78032394
12
Frame=11 idx=004775 GeodesicLength=0.7334448549909967 rxn_smarts="[C:1]([C:2]([C:3]([C:4]#[N:5])([H:11])[H:12])([H:9])[H:10])([H:6])([H:7])[H:8]>>[C:1]([C:2]([N:5]=[C:4]=[C:3]([H:11])[H:12])([H:9])[H:10])([H:6])([H:7])[H:8]"
C       -1.75827227       0.60822919      -0.08516733
C       -0.24255139       0.48763043       0.03821683
C        1.43101632      -1.29240008       0.13782150
C        2.08658519      -0.07975427       0.10608243
N        1.93923137       1.08836262       0.00473470
H       -2.02895612       1.58242092      -0.49823528
H       -2.18152826      -0.12749107      -0.77471939
H       -2.26660078       0.47099997       0.86948808
H       -0.04697081       0.02461407      -0.92842006
H       -0.05123411       1.04268034       0.95748568
H        1.69954940      -1.94458464       0.96205144
H        1.41973144      -1.86070749      -0.78933860
12
Frame=12 idx=004775 GeodesicLength=0.8017892083109759 rxn_smarts="[C:1]([C:2]([C:3]([C:4]#[N:5])([H:11])[H:12])([H:9])[H:10])([H:6])([H:7])[H:8]>>[C:1]([C:2]([N:5]=[C:4]=[C:3]([H:11])[H:12])([H:9])[H:10])([H:6])([H:7])[H:8]"
C       -1.74307971       0.59419735      -0.08219002
C       -0.21978372       0.50359846       0.03922021
C        1.40450444      -1.28635033       0.13581917
C        2.09261210      -0.08952534       0.12236357
N        1.94690572       1.08017886       0.03198187
H       -2.03855795       1.55797999      -0.50115017
H       -2.15507383      -0.15660233      -0.76201403
H       -2.24353588       0.45115804       0.87603979
H       -0.04873567       0.02801416      -0.92811681
H       -0.06144418       1.12083818       0.92717415
H        1.67523024      -1.96156687       0.94050951
H        1.39095843      -1.84192017      -0.79963725
12
Frame=13 idx=004775 GeodesicLength=0.8702697909078191 rxn_smarts="[C:1]([C:2]([C:3]([C:4]#[N:5])([H:11])[H:12])([H:9])[H:10])([H:6])([H:7])[H:8]>>[C:1]([C:2]([N:5]=[C:4]=[C:3]([H:11])[H:12])([H:9])[H:10])([H:6])([H:7])[H:8]"
C       -1.72806363       0.58064125      -0.07846237
C       -0.19768704       0.51814690       0.04045416
C        1.37910944      -1.28044751       0.13303412
C        2.09790014      -0.09968547       0.14014095
N        1.95309281       1.07151195       0.06404107
H       -2.04717658       1.53226599      -0.50621841
H       -2.12962841      -0.18673058      -0.74560213
H       -2.21992248       0.43621146       0.88419234
H       -0.05070141       0.03114881      -0.92740953
H       -0.07280317       1.19795821       0.89033264
H        1.65094768      -1.97935630       0.91685763
H        1.36493265      -1.82166472      -0.81136048
12
Frame=14 idx=004775 GeodesicLength=0.9388261607987366 rxn_smarts="[C:1]([C:2]([C:3]([C:4]#[N:5])([H:11])[H:12])([H:9])[H:10])([H:6])([H:7])[H:8]>>[C:1]([C:2]([N:5]=[C:4]=[C:3]([H:11])[H:12])([H:9])[H:10])([H:6])([H:7])[H:8]"
C       -1.71304289       0.56726207      -0.07382021
C       -0.17601252       0.53206491       0.04193312
C        1.35434381      -1.27458037       0.12935938
C        2.10241210      -0.11048696       0.15957409
N        1.95820458       1.06221443       0.10150644
H       -2.05530792       1.50475700      -0.51318853
H       -2.10440827      -0.21844272      -0.72522216
H       -2.19553710       0.42554714       0.89416129
H       -0.05264991       0.03481638      -0.92625388
H       -0.08488084       1.27439708       0.84566972
H        1.62577432      -1.99785170       0.89091881
H        1.34110464      -1.79969725      -0.82463807
12
Frame=15 idx=004775 GeodesicLength=1.0071210649396223 rxn_smarts="[C:1]([C:2]([C:3]([C:4]#[N:5])([H:11])[H:12])([H:9])[H:10])([H:6])([H:7])[H:8]>>[C:1]([C:2]([N:5]=[C:4]=[C:3]([H:11])[H:12])([H:9])[H:10])([H:6])([H:7])[H:8]"
C       -1.69837177       0.55454666      -0.06828448
C       -0.15509831       0.54446101       0.04422764
C        1.33087171      -1.26892195       0.12470913
C        2.10621549      -0.12164096       0.18030453
N        1.96140085       1.05233783       0.14476625
H       -2.06233174       1.47606513      -0.52230947
H       -2.08008012      -0.25094423      -0.70076641
H       -2.17134948       0.42037384       0.90565181
H       -0.05503698       0.03811797      -0.92419345
H       -0.09758755       1.34870591       0.79296743
H        1.60129677      -2.01699768       0.86244184
H        1.32007114      -1.77610353      -0.83951483
12
Frame=16 idx=004775 GeodesicLength=1.0748858093900604 rxn_smarts="[C:1]([C:2]([C:3]([C:4]#[N:5])([H:11])[H:12])([H:9])[H:10])([H:6])([H:7])[H:8]>>[C:1]([C:2]([N:5]=[C:4]=[C:3]([H:11])[H:12])([H:9])[H:10])([H:6])([H:7])[H:8]"
C       -1.68438861       0.54294655      -0.06184147
C       -0.13522422       0.55470788       0.04788947
C        1.30929238      -1.26365329       0.11898738
C        2.10938547      -0.13287948       0.20208980
N        1.96186654       1.04180771       0.19434065
H       -2.06786312       1.44663895      -0.53391172
H       -2.05721426      -0.28359657      -0.67190409
H       -2.14826615       0.42188131       0.91837090
H       -0.05827946       0.04030268      -0.92080826
H       -0.11062617       1.41953166       0.73185927
H        1.57892676      -2.03680584       0.83103266
H        1.30239083      -1.75088156      -0.85610459
