12
Frame=0 idx=007491 GeodesicLength=0.0 rxn_smarts="[O:1]=[C:2]([C:3]#[C:4][H:8])[C@@:5]1([H:9])[C:6]([H:10])([H:11])[N:7]1[H:12]>>[O:1]=[C:2]=[C:3]=[C:4]([C:6](/[C:5](=[N:7]\[H:12])[H:9])([H:10])[H:11])[H:8]"
O        0.46697102       1.22332870       2.26055871
C        0.62347569       0.66996539       1.22708067
C        1.66411106      -0.20108934       0.68039532
C        1.47845988      -0.91088397      -0.33590300
C       -0.43300952       0.77844222      -0.02732582
C       -0.39029448      -0.48082140      -0.79064343
N       -1.79114003       0.76911722       0.07245416
H        1.87234474      -1.67405579      -0.98122960
H       -0.06848198       1.63911620      -0.59869918
H       -0.79143254      -1.36931002      -0.31374713
H       -0.55759941      -0.43486720      -1.86168372
H       -2.07340443      -0.00894197       0.66874307
12
Frame=1 idx=007491 GeodesicLength=0.08020035050289474 rxn_smarts="[O:1]=[C:2]([C:3]#[C:4][H:8])[C@@:5]1([H:9])[C:6]([H:10])([H:11])[N:7]1[H:12]>>[O:1]=[C:2]=[C:3]=[C:4]([C:6](/[C:5](=[N:7]\[H:12])[H:9])([H:10])[H:11])[H:8]"
O        0.46549532       1.20021499       2.27593460
C        0.63693288       0.67357055       1.23085269
C        1.66759881      -0.19829327       0.68065220
C        1.48808621      -0.91203820      -0.33492701
C       -0.43740468       0.78447284      -0.03640101
C       -0.40474254      -0.48240275      -0.78928423
N       -1.79442934       0.76877350       0.05988525
H        1.89816024      -1.66674282      -0.98021533
H       -0.06795148       1.64010890      -0.61114434
H       -0.80563865      -1.36967458      -0.30942256
H       -0.56956853      -0.44396665      -1.86134737
H       -2.07653824       0.00597751       0.67541711
12
Frame=2 idx=007491 GeodesicLength=0.16040122653996752 rxn_smarts="[O:1]=[C:2]([C:3]#[C:4][H:8])[C@@:5]1([H:9])[C:6]([H:10])([H:11])[N:7]1[H:12]>>[O:1]=[C:2]=[C:3]=[C:4]([C:6](/[C:5](=[N:7]\[H:12])[H:9])([H:10])[H:11])[H:8]"
O        0.46424643       1.17655229       2.29089206
C        0.65038788       0.67682311       1.23505374
C        1.67115432      -0.19543152       0.68082670
C        1.49795233      -0.91329202      -0.33389051
C       -0.44192310       0.79038438      -0.04561487
C       -0.41948083      -0.48410860      -0.78769671
N       -1.79781173       0.76866199       0.04737771
H        1.92477746      -1.65856013      -0.97938653
H       -0.06728393       1.64077865      -0.62375055
H       -0.82026130      -1.37000260      -0.30469898
H       -0.58170558      -0.45340700      -1.86074772
H       -2.08005194       0.02160145       0.68163567
12
Frame=3 idx=007491 GeodesicLength=0.24058812921243566 rxn_smarts="[O:1]=[C:2]([C:3]#[C:4][H:8])[C@@:5]1([H:9])[C:6]([H:10])([H:11])[N:7]1[H:12]>>[O:1]=[C:2]=[C:3]=[C:4]([C:6](/[C:5](=[N:7]\[H:12])[H:9])([H:10])[H:11])[H:8]"
O        0.46334142       1.15257260       2.30537689
C        0.66380417       0.67962473       1.23973774
C        1.67475385      -0.19255637       0.68094309
C        1.50807728      -0.91463047      -0.33282007
C       -0.44657733       0.79615831      -0.05494976
C       -0.43450592      -0.48591313      -0.78591501
N       -1.80130299       0.76873895       0.03495918
H        1.95213068      -1.64955408      -0.97867326
H       -0.06649657       1.64113112      -0.63645495
H       -0.83530474      -1.37029440      -0.29966892
H       -0.59397931      -0.46310801      -1.85991637
H       -2.08394055       0.03783072       0.68738145
12
Frame=4 idx=007491 GeodesicLength=0.3207527473060344 rxn_smarts="[O:1]=[C:2]([C:3]#[C:4][H:8])[C@@:5]1([H:9])[C:6]([H:10])([H:11])[N:7]1[H:12]>>[O:1]=[C:2]=[C:3]=[C:4]([C:6](/[C:5](=[N:7]\[H:12])[H:9])([H:10])[H:11])[H:8]"
O        0.46287065       1.12846021       2.31937741
C        0.67716640       0.68191695       1.24493407
C        1.67838932      -0.18969635       0.68100502
C        1.51849816      -0.91600598      -0.33177035
C       -0.45138223       0.80178658      -0.06439425
C       -0.44981039      -0.48778094      -0.78398508
N       -1.80492312       0.76895412       0.02266334
H        1.98012190      -1.63985273      -0.97794809
H       -0.06562785       1.64119137      -0.64920176
H       -0.85075409      -1.37054693      -0.29443427
H       -0.60636533      -0.47298039      -1.85889601
H       -2.08818340       0.05455409       0.69264998
12
Frame=5 idx=007491 GeodesicLength=0.4008947314123898 rxn_smarts="[O:1]=[C:2]([C:3]#[C:4][H:8])[C@@:5]1([H:9])[C:6]([H:10])([H:11])[N:7]1[H:12]>>[O:1]=[C:2]=[C:3]=[C:4]([C:6](/[C:5](=[N:7]\[H:12])[H:9])([H:10])[H:11])[H:8]"
O        0.46282729       1.10427632       2.33290377
C        0.69050257       0.68366364       1.25061726
C        1.68207471      -0.18680809       0.68095145
C        1.52930377      -0.91723524      -0.33091131
C       -0.45637423       0.80729603      -0.07394493
C       -0.46536576      -0.48963886      -0.78196337
N       -1.80869200       0.76924274       0.01054530
H        2.00857773      -1.62983655      -0.97690122
H       -0.06477623       1.64103742      -0.66194472
H       -0.86653993      -1.37073269      -0.28910422
H       -0.61882872      -0.48289503      -1.85774153
H       -2.09270921       0.07163030       0.69749353
12
Frame=6 idx=007491 GeodesicLength=0.4810397642372581 rxn_smarts="[O:1]=[C:2]([C:3]#[C:4][H:8])[C@@:5]1([H:9])[C:6]([H:10])([H:11])[N:7]1[H:12]>>[O:1]=[C:2]=[C:3]=[C:4]([C:6](/[C:5](=[N:7]\[H:12])[H:9])([H:10])[H:11])[H:8]"
O        0.46323072       1.08007770       2.34601842
C        0.70382306       0.68487233       1.25680015
C        1.68580198      -0.18394277       0.68081928
C        1.54050481      -0.91834468      -0.33023257
C       -0.46154889       0.81267904      -0.08361738
C       -0.48118778      -0.49149816      -0.77985621
N       -1.81262109       0.76961451      -0.00140825
H        2.03752940      -1.61944239      -0.97559071
H       -0.06392408       1.64065380      -0.67470029
H       -0.88269275      -1.37085464      -0.28368060
H       -0.63138701      -0.49287546      -1.85645957
H       -2.09752836       0.08906072       0.70190772
12
Frame=7 idx=007491 GeodesicLength=0.5611297979534839 rxn_smarts="[O:1]=[C:2]([C:3]#[C:4][H:8])[C@@:5]1([H:9])[C:6]([H:10])([H:11])[N:7]1[H:12]>>[O:1]=[C:2]=[C:3]=[C:4]([C:6](/[C:5](=[N:7]\[H:12])[H:9])([H:10])[H:11])[H:8]"
O        0.46407318       1.05579890       2.35875736
C        0.71713945       0.68554153       1.26342165
C        1.68958820      -0.18103331       0.68052665
C        1.55218262      -0.91913736      -0.32985007
C       -0.46692178       0.81796711      -0.09343251
C       -0.49726488      -0.49330667      -0.77771570
N       -1.81671768       0.77002474      -0.01315952
H        2.06682516      -1.60898283      -0.97370469
H       -0.06316240       1.64011458      -0.68745228
H       -0.89915779      -1.37089548      -0.27824796
H       -0.64404933      -0.50284090      -1.85508138
H       -2.10253474       0.10674970       0.70593847
12
Frame=8 idx=007491 GeodesicLength=0.6411949824885858 rxn_smarts="[O:1]=[C:2]([C:3]#[C:4][H:8])[C@@:5]1([H:9])[C:6]([H:10])([H:11])[N:7]1[H:12]>>[O:1]=[C:2]=[C:3]=[C:4]([C:6](/[C:5](=[N:7]\[H:12])[H:9])([H:10])[H:11])[H:8]"
O        0.46528757       1.03138969       2.37116670
C        0.73048851       0.68570846       1.27051643
C        1.69341018      -0.17816497       0.68015739
C        1.56428991      -0.91977041      -0.32969677
C       -0.47247075       0.82313949      -0.10340657
C       -0.51362296      -0.49512462      -0.77547261
N       -1.82097393       0.77055222      -0.02477672
H        2.09666158      -1.59812246      -0.97155863
H       -0.06238237       1.63933640      -0.70027353
H       -0.91600288      -1.37085887      -0.27265953
H       -0.65685080      -0.51292790      -1.85355065
H       -2.10783406       0.12484297       0.70955448
12
Frame=9 idx=007491 GeodesicLength=0.7212656589277995 rxn_smarts="[O:1]=[C:2]([C:3]#[C:4][H:8])[C@@:5]1([H:9])[C:6]([H:10])([H:11])[N:7]1[H:12]>>[O:1]=[C:2]=[C:3]=[C:4]([C:6](/[C:5](=[N:7]\[H:12])[H:9])([H:10])[H:11])[H:8]"
O        0.46683237       1.00673930       2.38329282
C        0.74391137       0.68540314       1.27800847
C        1.69733057      -0.17515854       0.67955269
C        1.57698728      -0.91989365      -0.33002496
C       -0.47826088       0.82826405      -0.11355676
C       -0.53022761      -0.49683157      -0.77322240
N       -1.82543406       0.77110326      -0.03617514
H        2.12679585      -1.58759655      -0.96858748
H       -0.06179361       1.63847474      -0.71312542
H       -0.93310698      -1.37069024      -0.26707859
H       -0.66977379      -0.52295448      -1.85194976
H       -2.11326052       0.14314054       0.71286653
12
Frame=10 idx=007491 GeodesicLength=0.8013157766131798 rxn_smarts="[O:1]=[C:2]([C:3]#[C:4][H:8])[C@@:5]1([H:9])[C:6]([H:10])([H:11])[N:7]1[H:12]>>[O:1]=[C:2]=[C:3]=[C:4]([C:6](/[C:5](=[N:7]\[H:12])[H:9])([H:10])[H:11])[H:8]"
O        0.46869094       0.98179273       2.39515771
C        0.75742174       0.68462602       1.28591595
C        1.70131522      -0.17209793       0.67877817
C        1.59022947      -0.91961045      -0.33074862
C       -0.48426174       0.83331939      -0.12390608
C       -0.54711247      -0.49849120      -0.77091037
N       -1.83008319       0.77174559      -0.04741227
H        2.15737926      -1.57705975      -0.96502777
H       -0.06129376       1.63745426      -0.72606983
H       -0.95055019      -1.37040747      -0.26139103
H       -0.68285299      -0.53304686      -1.85022201
H       -2.11888229       0.16177568       0.71583616
12
Frame=11 idx=007491 GeodesicLength=0.8813718357832092 rxn_smarts="[O:1]=[C:2]([C:3]#[C:4][H:8])[C@@:5]1([H:9])[C:6]([H:10])([H:11])[N:7]1[H:12]>>[O:1]=[C:2]=[C:3]=[C:4]([C:6](/[C:5](=[N:7]\[H:12])[H:9])([H:10])[H:11])[H:8]"
O        0.47077648       0.95642253       2.40680431
C        0.77103270       0.68336478       1.29424760
C        1.70533957      -0.16905086       0.67788759
C        1.60400724      -0.91901304      -0.33179376
C       -0.49044233       0.83829299      -0.13450523
C       -0.56431741      -0.50015582      -0.76847731
N       -1.83489952       0.77255584      -0.05855888
H        2.18856584      -1.56617301      -0.96109738
H       -0.06079925       1.63619039      -0.73920457
H       -0.96842162      -1.36999175      -0.25546188
H       -0.69614142      -0.54335053      -1.84830140
H       -2.12470028       0.18090847       0.71846089
12
Frame=12 idx=007491 GeodesicLength=0.9614033530313411 rxn_smarts="[O:1]=[C:2]([C:3]#[C:4][H:8])[C@@:5]1([H:9])[C:6]([H:10])([H:11])[N:7]1[H:12]>>[O:1]=[C:2]=[C:3]=[C:4]([C:6](/[C:5](=[N:7]\[H:12])[H:9])([H:10])[H:11])[H:8]"
O        0.47300070       0.93047017       2.41823108
C        0.78476089       0.68160248       1.30299938
C        1.70938278      -0.16603795       0.67688613
C        1.61832084      -0.91810550      -0.33315044
C       -0.49678134       0.84318121      -0.14539251
C       -0.58186403      -0.50185407      -0.76586795
N       -1.83985497       0.77358700      -0.06966481
H        2.22043530      -1.55474539      -0.95688377
H       -0.06026284       1.63463315      -0.75259556
H       -0.98676838      -1.36942133      -0.24917857
H       -0.70966957      -0.55396671      -1.84611356
H       -2.13069939       0.20065693       0.72073059
12
Frame=13 idx=007491 GeodesicLength=1.0414809734084534 rxn_smarts="[O:1]=[C:2]([C:3]#[C:4][H:8])[C@@:5]1([H:9])[C:6]([H:10])([H:11])[N:7]1[H:12]>>[O:1]=[C:2]=[C:3]=[C:4]([C:6](/[C:5](=[N:7]\[H:12])[H:9])([H:10])[H:11])[H:8]"
O        0.47537746       0.90388024       2.42947461
C        0.79863685       0.67934813       1.31217601
C        1.71348408      -0.16299149       0.67572435
C        1.63325184      -0.91676461      -0.33490887
C       -0.50331092       0.84800340      -0.15658301
C       -0.59975705      -0.50354917      -0.76311727
N       -1.84499595       0.77481643      -0.08070757
H        2.25296136      -1.54301886      -0.95219986
H       -0.05975314       1.63282259      -0.76625095
H       -1.00557664      -1.36867290      -0.24258582
H       -0.72345273      -0.56485186      -1.84369775
H       -2.13686515       0.22097808       0.72267613
12
Frame=14 idx=007491 GeodesicLength=1.121534858434123 rxn_smarts="[O:1]=[C:2]([C:3]#[C:4][H:8])[C@@:5]1([H:9])[C:6]([H:10])([H:11])[N:7]1[H:12]>>[O:1]=[C:2]=[C:3]=[C:4]([C:6](/[C:5](=[N:7]\[H:12])[H:9])([H:10])[H:11])[H:8]"
O        0.47789058       0.87657781       2.44050384
C        0.81266478       0.67659117       1.32176676
C        1.71761405      -0.15989801       0.67439032
C        1.64880374      -0.91494603      -0.33707362
C       -0.51002547       0.85275772      -0.16809971
C       -0.61800269      -0.50523560      -0.76020853
N       -1.85030294       0.77624385      -0.09169346
H        2.28612446      -1.53097159      -0.94700728
H       -0.05927005       1.63074845      -0.78019067
H       -1.02485946      -1.36773047      -0.23566655
H       -0.73749451      -0.57601741      -1.84101347
H       -2.14314251       0.24188011       0.72429237
12
Frame=15 idx=007491 GeodesicLength=1.2016063159113752 rxn_smarts="[O:1]=[C:2]([C:3]#[C:4][H:8])[C@@:5]1([H:9])[C:6]([H:10])([H:11])[N:7]1[H:12]>>[O:1]=[C:2]=[C:3]=[C:4]([C:6](/[C:5](=[N:7]\[H:12])[H:9])([H:10])[H:11])[H:8]"
O        0.48047754       0.84849601       2.45132802
C        0.82686138       0.67326584       1.33180799
C        1.72174343      -0.15686790       0.67295146
C        1.66498350      -0.91272621      -0.33959337
C       -0.51689586       0.85741736      -0.17998625
C       -0.63664307      -0.50696013      -0.75707996
N       -1.85576076       0.77793706      -0.10268651
H        2.32007789      -1.51823587      -0.94151290
H       -0.05872483       1.62830848      -0.79450083
H       -1.04472128      -1.36656704      -0.22829173
H       -0.75183724      -0.58759332      -1.83799044
H       -2.14956070       0.26352573       0.72555452
12
Frame=16 idx=007491 GeodesicLength=1.281709050215467 rxn_smarts="[O:1]=[C:2]([C:3]#[C:4][H:8])[C@@:5]1([H:9])[C:6]([H:10])([H:11])[N:7]1[H:12]>>[O:1]=[C:2]=[C:3]=[C:4]([C:6](/[C:5](=[N:7]\[H:12])[H:9])([H:10])[H:11])[H:8]"
O        0.48313781       0.81956884       2.46194820
C        0.84124356       0.66935671       1.34231344
C        1.72587154      -0.15388437       0.67139760
C        1.68183215      -0.91005126      -0.34249124
C       -0.52393195       0.86198416      -0.19226702
C       -0.65569167      -0.50871376      -0.75372850
N       -1.86138118       0.77990140      -0.11369232
H        2.35482235      -1.50483533      -0.93566378
H       -0.05813961       1.62549576      -0.80920786
H       -1.06517703      -1.36516246      -0.22045245
H       -0.76649377      -0.59959271      -1.83461565
H       -2.15609220       0.28593301       0.72645958
