13
Frame=0 idx=008560 GeodesicLength=0.0 rxn_smarts="[N:1](=[C:2](/[O:3][C:4]([C:5]([C:6]#[N:7])([H:12])[H:13])([H:10])[H:11])[H:9])\[H:8]>>[N:1]([C:2](=[O+:3][C-:4]([H:10])[H:11])[H:9])([C:6]1=[N:7][C:5]1([H:12])[H:13])[H:8]"
N       -0.78791375       1.11443944      -0.39657703
C       -1.61780184       0.07952349      -0.29647182
O       -1.35398563      -1.10225324       0.00991390
C        0.02640610      -1.63141341       0.22869030
C        1.51192927       0.29726319       0.50448873
C        0.59377058       1.17599234      -0.09065174
N        1.41826797       2.09273256      -0.04955228
H       -1.19383529       1.99471231      -0.68174843
H       -2.66515507       0.28829320      -0.49790050
H        0.42516096      -1.70419391      -0.78977538
H       -0.18950785      -2.64127474       0.58113427
H        1.58012032       0.23517382       1.57921190
H        2.25254417      -0.19899500      -0.10076189
13
Frame=1 idx=008560 GeodesicLength=0.11442192113466422 rxn_smarts="[N:1](=[C:2](/[O:3][C:4]([C:5]([C:6]#[N:7])([H:12])[H:13])([H:10])[H:11])[H:9])\[H:8]>>[N:1]([C:2](=[O+:3][C-:4]([H:10])[H:11])[H:9])([C:6]1=[N:7][C:5]1([H:12])[H:13])[H:8]"
N       -0.79266883       1.10605411      -0.42014234
C       -1.62816017       0.08194432      -0.27037668
O       -1.35111956      -1.10254474       0.03168069
C        0.02991601      -1.62367486       0.19269644
C        1.50021564       0.28992234       0.52605696
C        0.62133776       1.17496982      -0.12059720
N        1.45669074       2.07832008      -0.07711159
H       -1.20068403       1.97523617      -0.73575293
H       -2.68529345       0.29079765      -0.40938244
H        0.40667090      -1.67050925      -0.83502414
H       -0.15523011      -2.64142192       0.53784131
H        1.52227578       0.25771102       1.60481461
H        2.27604933      -0.21680474      -0.02470270
13
Frame=2 idx=008560 GeodesicLength=0.22874007469248725 rxn_smarts="[N:1](=[C:2](/[O:3][C:4]([C:5]([C:6]#[N:7])([H:12])[H:13])([H:10])[H:11])[H:9])\[H:8]>>[N:1]([C:2](=[O+:3][C-:4]([H:10])[H:11])[H:9])([C:6]1=[N:7][C:5]1([H:12])[H:13])[H:8]"
N       -0.79860732       1.09777865      -0.44112934
C       -1.63706558       0.08356333      -0.24847423
O       -1.34701124      -1.10324246       0.05060218
C        0.03262208      -1.61496253       0.15861409
C        1.48801512       0.28300871       0.54565496
C        0.64882334       1.17376282      -0.14782781
N        1.49592593       2.06258147      -0.10353842
H       -1.20975118       1.95478424      -0.78540035
H       -2.70010692       0.29348528      -0.32367244
H        0.38910331      -1.63755915      -0.87654405
H       -0.12250518      -2.63941002       0.49648457
H        1.46666813       0.28027291       1.62569584
H        2.29388950      -0.23406324       0.04953499
13
Frame=3 idx=008560 GeodesicLength=0.3430912216656429 rxn_smarts="[N:1](=[C:2](/[O:3][C:4]([C:5]([C:6]#[N:7])([H:12])[H:13])([H:10])[H:11])[H:9])\[H:8]>>[N:1]([C:2](=[O+:3][C-:4]([H:10])[H:11])[H:9])([C:6]1=[N:7][C:5]1([H:12])[H:13])[H:8]"
N       -0.80562020       1.08968679      -0.46036942
C       -1.64512328       0.08441672      -0.23013286
O       -1.34196333      -1.10430446       0.06725661
C        0.03468245      -1.60547175       0.12634541
C        1.47546612       0.27647437       0.56350340
C        0.67645019       1.17232136      -0.17311212
N        1.53632227       2.04530583      -0.12946138
H       -1.22125271       1.93454228      -0.82903487
H       -2.71018592       0.29567164      -0.24208396
H        0.37221846      -1.60545809      -0.91482323
H       -0.09097222      -2.63552030       0.45718134
H        1.41323780       0.30327609       1.64243921
H        2.30674037      -0.25094049       0.12229188
13
Frame=4 idx=008560 GeodesicLength=0.4575305437292242 rxn_smarts="[N:1](=[C:2](/[O:3][C:4]([C:5]([C:6]#[N:7])([H:12])[H:13])([H:10])[H:11])[H:9])\[H:8]>>[N:1]([C:2](=[O+:3][C-:4]([H:10])[H:11])[H:9])([C:6]1=[N:7][C:5]1([H:12])[H:13])[H:8]"
N       -0.81370451       1.08186519      -0.47796868
C       -1.65279671       0.08466827      -0.21415688
O       -1.33618339      -1.10567185       0.08218520
C        0.03623288      -1.59530143       0.09558807
C        1.46266963       0.27028863       0.57989137
C        0.70434060       1.17068832      -0.19662924
N        1.57798019       2.02644565      -0.15468902
H       -1.23479517       1.91449897      -0.86816802
H       -2.71626792       0.29711325      -0.16438732
H        0.35574482      -1.57393323      -0.95048906
H       -0.06025541      -2.63001649       0.41943353
H        1.36193796       0.32676795       1.65559520
H        2.31509702      -0.26741325       0.19379485
13
Frame=5 idx=008560 GeodesicLength=0.5719094869539029 rxn_smarts="[N:1](=[C:2](/[O:3][C:4]([C:5]([C:6]#[N:7])([H:12])[H:13])([H:10])[H:11])[H:9])\[H:8]>>[N:1]([C:2](=[O+:3][C-:4]([H:10])[H:11])[H:9])([C:6]1=[N:7][C:5]1([H:12])[H:13])[H:8]"
N       -0.82274203       1.07416398      -0.49461334
C       -1.66018779       0.08435908      -0.20016361
O       -1.32971232      -1.10733476       0.09533873
C        0.03740994      -1.58449151       0.06614097
C        1.44951255       0.26444115       0.59504522
C        0.73261657       1.16869987      -0.21888116
N        1.62094722       2.00565812      -0.17947557
H       -1.25028756       1.89506792      -0.90268943
H       -2.71863962       0.29771408      -0.08991270
H        0.33973534      -1.54288867      -0.98388400
H       -0.03015256      -2.62293798       0.38305904
H        1.31230865       0.35095443       1.66554121
H        2.31919159      -0.28340572       0.26449464
13
Frame=6 idx=008560 GeodesicLength=0.6863684534554642 rxn_smarts="[N:1](=[C:2](/[O:3][C:4]([C:5]([C:6]#[N:7])([H:12])[H:13])([H:10])[H:11])[H:9])\[H:8]>>[N:1]([C:2](=[O+:3][C-:4]([H:10])[H:11])[H:9])([C:6]1=[N:7][C:5]1([H:12])[H:13])[H:8]"
N       -0.83283637       1.06679202      -0.50977964
C       -1.66757974       0.08369482      -0.18696209
O       -1.32272881      -1.10920430       0.10741712
C        0.03825347      -1.57306889       0.03783968
C        1.43624973       0.25891782       0.60909711
C        0.76139977       1.16653260      -0.23967144
N        1.66528851       1.98309877      -0.20330205
H       -1.26740990       1.87567641      -0.93450590
H       -2.71815662       0.29726907      -0.01908751
H        0.32380458      -1.51201021      -1.01540002
H       -0.00043272      -2.61447233       0.34759841
H        1.26475389       0.37568596       1.67260863
H        2.31939419      -0.29891173       0.33414769
13
Frame=7 idx=008560 GeodesicLength=0.8008641340962637 rxn_smarts="[N:1](=[C:2](/[O:3][C:4]([C:5]([C:6]#[N:7])([H:12])[H:13])([H:10])[H:11])[H:9])\[H:8]>>[N:1]([C:2](=[O+:3][C-:4]([H:10])[H:11])[H:9])([C:6]1=[N:7][C:5]1([H:12])[H:13])[H:8]"
N       -0.84395541       1.05972424      -0.52368818
C       -1.67499161       0.08271589      -0.17424427
O       -1.31526324      -1.11126095       0.11850443
C        0.03883783      -1.56103947       0.01056964
C        1.42288629       0.25373265       0.62218897
C        0.79082663       1.16412495      -0.25923652
N        1.71109903       1.95854070      -0.22628646
H       -1.28614829       1.85641100      -0.96369587
H       -2.71528176       0.29566977       0.04826013
H        0.30792662      -1.48118351      -1.04523334
H        0.02902622      -2.60464070       0.31287166
H        1.21916034       0.40110573       1.67705408
H        2.31587735      -0.31390030       0.40293571
13
Frame=8 idx=008560 GeodesicLength=0.9154067352865132 rxn_smarts="[N:1](=[C:2](/[O:3][C:4]([C:5]([C:6]#[N:7])([H:12])[H:13])([H:10])[H:11])[H:9])\[H:8]>>[N:1]([C:2](=[O+:3][C-:4]([H:10])[H:11])[H:9])([C:6]1=[N:7][C:5]1([H:12])[H:13])[H:8]"
N       -0.85610096       1.05297646      -0.53642565
C       -1.68246468       0.08144968      -0.16175162
O       -1.30736334      -1.11349340       0.12870431
C        0.03921732      -1.54841263      -0.01578538
C        1.40945837       0.24891099       0.63444341
C        0.82104328       1.16145530      -0.27770453
N        1.75846131       1.93184157      -0.24838271
H       -1.30646487       1.83718284      -0.99066400
H       -2.71047965       0.29288192       0.11241546
H        0.29206361      -1.45029661      -1.07356838
H        0.05833106      -2.59348113       0.27866858
H        1.17550290       0.42731851       1.67909637
H        2.30879564      -0.32833349       0.47095412
13
Frame=9 idx=008560 GeodesicLength=1.0299703121653767 rxn_smarts="[N:1](=[C:2](/[O:3][C:4]([C:5]([C:6]#[N:7])([H:12])[H:13])([H:10])[H:11])[H:9])\[H:8]>>[N:1]([C:2](=[O+:3][C-:4]([H:10])[H:11])[H:9])([C:6]1=[N:7][C:5]1([H:12])[H:13])[H:8]"
N       -0.86927931       1.04650665      -0.54820249
C       -1.68998075       0.07990961      -0.14938912
O       -1.29904318      -1.11590830       0.13794421
C        0.03945976      -1.53517814      -0.04135408
C        1.39591217       0.24448457       0.64597743
C        0.85216730       1.15844355      -0.29523526
N        1.80740341       1.90274292      -0.26957202
H       -1.32836318       1.81791971      -1.01572132
H       -2.70388442       0.28897637       0.17404097
H        0.27626463      -1.41923805      -1.10055816
H        0.08756355      -2.58098017       0.24479142
H        1.13357398       0.45441850       1.67887616
H        2.29820602      -0.34209724       0.53840226
13
Frame=10 idx=008560 GeodesicLength=1.1445776959615068 rxn_smarts="[N:1](=[C:2](/[O:3][C:4]([C:5]([C:6]#[N:7])([H:12])[H:13])([H:10])[H:11])[H:9])\[H:8]>>[N:1]([C:2](=[O+:3][C-:4]([H:10])[H:11])[H:9])([C:6]1=[N:7][C:5]1([H:12])[H:13])[H:8]"
N       -0.88353225       1.04039939      -0.55887172
C       -1.69757606       0.07812610      -0.13686468
O       -1.29033543      -1.11846077       0.14647341
C        0.03958694      -1.52131179      -0.06618818
C        1.38235036       0.24048597       0.65685048
C        0.88436803       1.15509800      -0.31183718
N        1.85802115       1.87112777      -0.28973525
H       -1.35184758       1.79843099      -1.03921879
H       -2.69605040       0.28380952       0.23291611
H        0.26041564      -1.38787314      -1.12631172
H        0.11679399      -2.56713530       0.21108185
H        1.09358183       0.48248193       1.67654171
H        2.28422379      -0.35517867       0.60516395
13
Frame=11 idx=008560 GeodesicLength=1.2592272048684903 rxn_smarts="[N:1](=[C:2](/[O:3][C:4]([C:5]([C:6]#[N:7])([H:12])[H:13])([H:10])[H:11])[H:9])\[H:8]>>[N:1]([C:2](=[O+:3][C-:4]([H:10])[H:11])[H:9])([C:6]1=[N:7][C:5]1([H:12])[H:13])[H:8]"
N       -0.89889150       1.03463724      -0.56855519
C       -1.70524087       0.07609110      -0.12412374
O       -1.28124488      -1.12115457       0.15425473
C        0.03964759      -1.50678767      -0.09039293
C        1.36873813       0.23696774       0.66714621
C        0.91779325       1.15134669      -0.32760567
N        1.91036307       1.83673307      -0.30880801
H       -1.37696821       1.77858961      -1.06138800
H       -2.68710602       0.27742380       0.28952354
H        0.24454761      -1.35608839      -1.15094300
H        0.14608917      -2.55190967       0.17736349
H        1.05542765       0.51163343       1.67217757
H        2.26684502      -0.36748238       0.67135101
13
Frame=12 idx=008560 GeodesicLength=1.3739240394252514 rxn_smarts="[N:1](=[C:2](/[O:3][C:4]([C:5]([C:6]#[N:7])([H:12])[H:13])([H:10])[H:11])[H:9])\[H:8]>>[N:1]([C:2](=[O+:3][C-:4]([H:10])[H:11])[H:9])([C:6]1=[N:7][C:5]1([H:12])[H:13])[H:8]"
N       -0.91540457       1.02921062      -0.57733546
C       -1.71297853       0.07378371      -0.11112481
O       -1.27177668      -1.12398865       0.16127586
C        0.03968198      -1.49157459      -0.11405354
C        1.35505592       0.23398984       0.67692287
C        0.95261164       1.14710315      -0.34262009
N        1.96447696       1.79928642      -0.32670226
H       -1.40380071       1.75830294      -1.08234446
H       -2.67719022       0.26981715       0.34416970
H        0.22867582      -1.32378312      -1.17454386
H        0.17551718      -2.53524899       0.14350748
H        1.01908828       0.54201360       1.66582996
H        2.24604293      -0.37891208       0.73701861
13
Frame=13 idx=008560 GeodesicLength=1.4886660801275868 rxn_smarts="[N:1](=[C:2](/[O:3][C:4]([C:5]([C:6]#[N:7])([H:12])[H:13])([H:10])[H:11])[H:9])\[H:8]>>[N:1]([C:2](=[O+:3][C-:4]([H:10])[H:11])[H:9])([C:6]1=[N:7][C:5]1([H:12])[H:13])[H:8]"
N       -0.93312937       1.02408679      -0.58531937
C       -1.72079055       0.07116254      -0.09787434
O       -1.26192800      -1.12697127       0.16748938
C        0.03973955      -1.47563972      -0.13724437
C        1.34126295       0.23162895       0.68621978
C        0.98900450       1.14224301      -0.35696697
N        2.02042042       1.75841558      -0.34337213
H       -1.43245822       1.73759929      -1.10197856
H       -2.66640042       0.26095077       0.39707917
H        0.21284755      -1.29087972      -1.19718759
H        0.20515581      -2.51707780       0.10943298
H        0.98452999       0.57380723       1.65748950
H        2.22174578      -0.38932567       0.80223252
13
Frame=14 idx=008560 GeodesicLength=1.6034743288342808 rxn_smarts="[N:1](=[C:2](/[O:3][C:4]([C:5]([C:6]#[N:7])([H:12])[H:13])([H:10])[H:11])[H:9])\[H:8]>>[N:1]([C:2](=[O+:3][C-:4]([H:10])[H:11])[H:9])([C:6]1=[N:7][C:5]1([H:12])[H:13])[H:8]"
N       -0.95214422       1.01927464      -0.59250983
C       -1.72868120       0.06820797      -0.08428534
O       -1.25169378      -1.13009756       0.17292693
C        0.03984299      -1.45893507      -0.16004441
C        1.32735962       0.22996478       0.69505748
C        1.02718630       1.13666562      -0.37068292
N        2.07821822       1.71384172      -0.35860958
H       -1.46302914       1.71630156      -1.12047141
H       -2.65485085       0.25079263       0.44846334
H        0.19703702      -1.25724474      -1.21895811
H        0.23506414      -2.49731623       0.07500881
H        0.95181085       0.60714516       1.64713907
H        2.19388005      -0.39860048       0.86696596
13
Frame=15 idx=008560 GeodesicLength=1.7183626197728072 rxn_smarts="[N:1](=[C:2](/[O:3][C:4]([C:5]([C:6]#[N:7])([H:12])[H:13])([H:10])[H:11])[H:9])\[H:8]>>[N:1]([C:2](=[O+:3][C-:4]([H:10])[H:11])[H:9])([C:6]1=[N:7][C:5]1([H:12])[H:13])[H:8]"
N       -0.97254234       1.01473698      -0.59897912
C       -1.73664742       0.06488657      -0.07033864
O       -1.24105691      -1.13336048       0.17752590
C        0.04003526      -1.44139596      -0.18254069
C        1.31330163       0.22908638       0.70342831
C        1.06738284       1.13019885      -0.38381911
N        2.13786141       1.66517297      -0.37217778
H       -1.49565071       1.69429644      -1.13784297
H       -2.64249380       0.23934165       0.49863952
H        0.18127929      -1.22275204      -1.23991785
H        0.26532156      -2.47583351       0.04013791
H        0.92090235       0.64218261       1.63465998
H        2.16230684      -0.40656046       0.93122454
13
Frame=16 idx=008560 GeodesicLength=1.833357100131322 rxn_smarts="[N:1](=[C:2](/[O:3][C:4]([C:5]([C:6]#[N:7])([H:12])[H:13])([H:10])[H:11])[H:9])\[H:8]>>[N:1]([C:2](=[O+:3][C-:4]([H:10])[H:11])[H:9])([C:6]1=[N:7][C:5]1([H:12])[H:13])[H:8]"
N       -0.99443675       1.01043577      -0.60477668
C       -1.74469612       0.06113629      -0.05602083
O       -1.22999353      -1.13676971       0.18123634
C        0.04035582      -1.42296041      -0.20481841
C        1.29904712       0.22911101       0.71131663
C        1.10985539       1.12264156      -0.39641843
N        2.19936460       1.61195439      -0.38385657
H       -1.53048489       1.67154614      -1.15398380
H       -2.62931975       0.22653169       0.54780233
H        0.16559690      -1.18727325      -1.26013424
H        0.29602630      -2.45249344       0.00473586
H        0.89184962       0.67914314       1.61991083
H        2.12683528      -0.41300318       0.99500696
