11
Frame=0 idx=000618 GeodesicLength=0.0 rxn_smarts="[O:1]([C:2]([C:3]([C:4](=[O:5])[H:11])([H:9])[H:10])([H:7])[H:8])[H:6]>>[O:1]([C:2]([C:3]([C:4][O:5][H:11])([H:9])[H:10])([H:7])[H:8])[H:6]"
O       -1.49337831       0.45634556      -0.79355049
C       -0.90113532      -0.22906266       0.29457632
C        0.44079124      -0.75511784      -0.17157147
C        1.53398137       0.26387531      -0.22431915
O        1.34141548       1.39187883       0.38860418
H       -2.16366035       1.05334383      -0.46072330
H       -1.53257965      -1.06534569       0.61717400
H       -0.75711013       0.44043293       1.14947199
H        0.35681242      -1.22580243      -1.15409551
H        0.81711653      -1.53713986       0.50001160
H        2.35774676       1.20659206      -0.14557821
11
Frame=1 idx=000618 GeodesicLength=0.08269824623043028 rxn_smarts="[O:1]([C:2]([C:3]([C:4](=[O:5])[H:11])([H:9])[H:10])([H:7])[H:8])[H:6]>>[O:1]([C:2]([C:3]([C:4][O:5][H:11])([H:9])[H:10])([H:7])[H:8])[H:6]"
O       -1.50337064       0.45088293      -0.80212929
C       -0.91110480      -0.23000963       0.28885078
C        0.43820220      -0.74535167      -0.16655668
C        1.50738068       0.29320281      -0.25614690
O        1.42497244       1.35079657       0.48369064
H       -2.17857370       1.04416287      -0.47255226
H       -1.53909267      -1.07205382       0.60375525
H       -0.78060598       0.43569700       1.14875400
H        0.35732750      -1.23624954      -1.13973473
H        0.82303362      -1.51038724       0.51907132
H        2.36183134       1.21930972      -0.20700213
11
Frame=2 idx=000618 GeodesicLength=0.163861469877228 rxn_smarts="[O:1]([C:2]([C:3]([C:4](=[O:5])[H:11])([H:9])[H:10])([H:7])[H:8])[H:6]>>[O:1]([C:2]([C:3]([C:4][O:5][H:11])([H:9])[H:10])([H:7])[H:8])[H:6]"
O       -1.51389033       0.44424973      -0.81060577
C       -0.92079397      -0.23029734       0.28394607
C        0.43558864      -0.73520939      -0.16127672
C        1.47985729       0.32335089      -0.27807566
O        1.51609978       1.29892718       0.56336340
H       -2.19493890       1.03302153      -0.48493712
H       -1.54473242      -1.07757799       0.59334009
H       -0.80215126       0.43418721       1.14650055
H        0.36023988      -1.24164386      -1.12717033
H        0.82657123      -1.48634200       0.53561147
H        2.35815007       1.23733406      -0.26069599
11
Frame=3 idx=000618 GeodesicLength=0.2431240063359107 rxn_smarts="[O:1]([C:2]([C:3]([C:4](=[O:5])[H:11])([H:9])[H:10])([H:7])[H:8])[H:6]>>[O:1]([C:2]([C:3]([C:4][O:5][H:11])([H:9])[H:10])([H:7])[H:8])[H:6]"
O       -1.52416793       0.43722744      -0.81883631
C       -0.93037318      -0.23024161       0.27977584
C        0.43302287      -0.72473271      -0.15531796
C        1.45235671       0.35380831      -0.29086901
O        1.61250132       1.23887473       0.62631492
H       -2.21208861       1.02049806      -0.49769875
H       -1.55003779      -1.08238216       0.58478084
H       -0.82261435       0.43449805       1.14362694
H        0.36528567      -1.24273067      -1.11583681
H        0.82779571      -1.46484676       0.55065701
H        2.34831957       1.26002732      -0.30659672
11
Frame=4 idx=000618 GeodesicLength=0.3207391810745682 rxn_smarts="[O:1]([C:2]([C:3]([C:4](=[O:5])[H:11])([H:9])[H:10])([H:7])[H:8])[H:6]>>[O:1]([C:2]([C:3]([C:4][O:5][H:11])([H:9])[H:10])([H:7])[H:8])[H:6]"
O       -1.53345073       0.43102422      -0.82652973
C       -0.94020579      -0.23022732       0.27627410
C        0.43047161      -0.71385054      -0.14800810
C        1.42521494       0.38436780      -0.29463093
O        1.71268902       1.17448857       0.67117054
H       -2.22995038       1.00683707      -0.51040774
H       -1.55570440      -1.08741159       0.57592196
H       -0.84324715       0.43474624       1.14135995
H        0.37247521      -1.23976722      -1.10504927
H        0.82690124      -1.44543838       0.56540832
H        2.33480642       1.28523115      -0.34550909
11
Frame=5 idx=000618 GeodesicLength=0.39667986035241776 rxn_smarts="[O:1]([C:2]([C:3]([C:4](=[O:5])[H:11])([H:9])[H:10])([H:7])[H:8])[H:6]>>[O:1]([C:2]([C:3]([C:4][O:5][H:11])([H:9])[H:10])([H:7])[H:8])[H:6]"
O       -1.54258233       0.42450409      -0.83426670
C       -0.95020637      -0.22977215       0.27325774
C        0.42795827      -0.70190508      -0.13982718
C        1.39848776       0.41594399      -0.29127739
O        1.81746849       1.10257117       0.70007791
H       -2.24941740       0.99088529      -0.52407542
H       -1.56106233      -1.09184230       0.56855353
H       -0.86449622       0.43629591       1.13883206
H        0.38132439      -1.23318944      -1.09467663
H        0.82421287      -1.42715583       0.57971696
H        2.31831288       1.31366435      -0.37631489
11
Frame=6 idx=000618 GeodesicLength=0.47106642966718987 rxn_smarts="[O:1]([C:2]([C:3]([C:4](=[O:5])[H:11])([H:9])[H:10])([H:7])[H:8])[H:6]>>[O:1]([C:2]([C:3]([C:4][O:5][H:11])([H:9])[H:10])([H:7])[H:8])[H:6]"
O       -1.55023832       0.41986886      -0.84127018
C       -0.96118326      -0.23012537       0.27068768
C        0.42543276      -0.68902080      -0.12919903
C        1.37165118       0.44861082      -0.27855584
O        1.92436011       1.03004950       0.70955065
H       -2.26870464       0.97494461      -0.53736917
H       -1.56754860      -1.09816766       0.55795360
H       -0.88861947       0.43494782       1.13842847
H        0.39275379      -1.22257297      -1.08353390
H        0.82010852      -1.40938864       0.59568458
H        2.30198794       1.34085383      -0.40237687
11
Frame=7 idx=000618 GeodesicLength=0.5432385590847789 rxn_smarts="[O:1]([C:2]([C:3]([C:4](=[O:5])[H:11])([H:9])[H:10])([H:7])[H:8])[H:6]>>[O:1]([C:2]([C:3]([C:4][O:5][H:11])([H:9])[H:10])([H:7])[H:8])[H:6]"
O       -1.55747191       0.41557471      -0.84829228
C       -0.97261274      -0.22994547       0.26854788
C        0.42296619      -0.67406348      -0.11711652
C        1.34543785       0.48341925      -0.25713208
O        2.03435974       0.95033380       0.70109185
H       -2.29085102       0.95511937      -0.55209885
H       -1.57362563      -1.10427623       0.54796386
H       -0.91515765       0.43420860       1.13829734
H        0.40632931      -1.20727410      -1.07220478
H        0.81440537      -1.39161970       0.61201069
H        2.28622049       1.36852325      -0.42106710
11
Frame=8 idx=000618 GeodesicLength=0.6126428575147246 rxn_smarts="[O:1]([C:2]([C:3]([C:4](=[O:5])[H:11])([H:9])[H:10])([H:7])[H:8])[H:6]>>[O:1]([C:2]([C:3]([C:4][O:5][H:11])([H:9])[H:10])([H:7])[H:8])[H:6]"
O       -1.56140085       0.41518064      -0.85406648
C       -0.98551543      -0.23202915       0.26657468
C        0.42073447      -0.65827556      -0.10065113
C        1.31906471       0.51941422      -0.22235143
O        2.14208574       0.87495474       0.67085683
H       -2.30881799       0.93956127      -0.56576347
H       -1.58172136      -1.11458562       0.53025220
H       -0.94742568       0.42604015       1.14221791
H        0.42393165      -1.18749924      -1.05825181
H        0.80788794      -1.37359823       0.63260071
H        2.27117680       1.39083680      -0.44141801
11
Frame=9 idx=000618 GeodesicLength=0.678365456138141 rxn_smarts="[O:1]([C:2]([C:3]([C:4](=[O:5])[H:11])([H:9])[H:10])([H:7])[H:8])[H:6]>>[O:1]([C:2]([C:3]([C:4][O:5][H:11])([H:9])[H:10])([H:7])[H:8])[H:6]"
O       -1.56237939       0.41719257      -0.85958069
C       -0.99830848      -0.23358034       0.26499099
C        0.41898142      -0.64071703      -0.08149826
C        1.29540387       0.55594499      -0.17465306
O        2.24806304       0.79300488       0.61888854
H       -2.32764227       0.92100815      -0.58152488
H       -1.58924972      -1.12468472       0.51112024
H       -0.98267325       0.41694498       1.14710078
H        0.44455153      -1.16269901      -1.04285089
H        0.79965116      -1.35598764       0.65501417
H        2.25360211       1.41357316      -0.45700693
11
Frame=10 idx=000618 GeodesicLength=0.7401807325122515 rxn_smarts="[O:1]([C:2]([C:3]([C:4](=[O:5])[H:11])([H:9])[H:10])([H:7])[H:8])[H:6]>>[O:1]([C:2]([C:3]([C:4][O:5][H:11])([H:9])[H:10])([H:7])[H:8])[H:6]"
O       -1.55494559       0.42643664      -0.86365463
C       -1.01074497      -0.23720280       0.26323476
C        0.41824512      -0.62551185      -0.05656590
C        1.27584730       0.58729142      -0.11035715
O        2.34562419       0.71704098       0.54103919
H       -2.33679313       0.91085155      -0.59740308
H       -1.59888541      -1.13717742       0.48234093
H       -1.02160085       0.39960051       1.15557305
H        0.46906868      -1.13695491      -1.02269270
H        0.79030261      -1.34100728       0.68389153
H        2.22388206       1.43663317      -0.47540599
11
Frame=11 idx=000618 GeodesicLength=0.7977841881418729 rxn_smarts="[O:1]([C:2]([C:3]([C:4](=[O:5])[H:11])([H:9])[H:10])([H:7])[H:8])[H:6]>>[O:1]([C:2]([C:3]([C:4][O:5][H:11])([H:9])[H:10])([H:7])[H:8])[H:6]"
O       -1.54015455       0.44138005      -0.86615675
C       -1.02074323      -0.24006570       0.26174564
C        0.41880840      -0.61220075      -0.02915939
C        1.26404747       0.61139983      -0.03502153
O        2.42593625       0.64536792       0.44251684
H       -2.34123544       0.90192464      -0.61498405
H       -1.60744051      -1.14773146       0.45061913
H       -1.05953400       0.38053204       1.16482349
H        0.49492028      -1.11119345      -1.00025893
H        0.78013851      -1.32938742       0.71489448
H        2.18525682       1.45997430      -0.48901893
11
Frame=12 idx=000618 GeodesicLength=0.8542303283232248 rxn_smarts="[O:1]([C:2]([C:3]([C:4](=[O:5])[H:11])([H:9])[H:10])([H:7])[H:8])[H:6]>>[O:1]([C:2]([C:3]([C:4][O:5][H:11])([H:9])[H:10])([H:7])[H:8])[H:6]"
O       -1.51570719       0.46330576      -0.86645395
C       -1.02714640      -0.24230694       0.26035457
C        0.42097331      -0.60434372       0.00032984
C        1.26174236       0.62290446       0.04691179
O        2.48382898       0.58654504       0.32778269
H       -2.33648407       0.89844353      -0.63407406
H       -1.61568235      -1.15509182       0.41544616
H       -1.09351337       0.35986244       1.17440186
H        0.52041962      -1.09083403      -0.97516967
H        0.76977910      -1.32365908       0.74827429
H        2.13179001       1.48517435      -0.49780353
11
Frame=13 idx=000618 GeodesicLength=0.9118334054969399 rxn_smarts="[O:1]([C:2]([C:3]([C:4](=[O:5])[H:11])([H:9])[H:10])([H:7])[H:8])[H:6]>>[O:1]([C:2]([C:3]([C:4][O:5][H:11])([H:9])[H:10])([H:7])[H:8])[H:6]"
O       -1.48431791       0.48965022      -0.86436709
C       -1.02942339      -0.24261338       0.25948951
C        0.42451288      -0.60152113       0.02887647
C        1.26913944       0.62197934       0.12670006
O        2.51670143       0.54157705       0.20716893
H       -2.32583537       0.89617757      -0.65528111
H       -1.62237622      -1.15743754       0.38160299
H       -1.12049694       0.34183467       1.18299928
H        0.54311889      -1.07734144      -0.94996273
H        0.75976791      -1.32339410       0.78058248
H        2.06920928       1.51108873      -0.49780880
11
Frame=14 idx=000618 GeodesicLength=0.9726657862063581 rxn_smarts="[O:1]([C:2]([C:3]([C:4](=[O:5])[H:11])([H:9])[H:10])([H:7])[H:8])[H:6]>>[O:1]([C:2]([C:3]([C:4][O:5][H:11])([H:9])[H:10])([H:7])[H:8])[H:6]"
O       -1.44723805       0.51845680      -0.86034465
C       -1.02792887      -0.24106706       0.25923342
C        0.42917416      -0.60386889       0.05581472
C        1.28503488       0.60936285       0.20058267
O        2.52696211       0.51065903       0.08384177
H       -2.30888821       0.89527532      -0.67917674
H       -1.62790621      -1.15478141       0.35053618
H       -1.14007298       0.32769240       1.19030314
H        0.56237217      -1.07201158      -0.92511846
H        0.75017963      -1.32800992       0.81161464
H        1.99831137       1.53829245      -0.48728668
11
Frame=15 idx=000618 GeodesicLength=1.03712307830871 rxn_smarts="[O:1]([C:2]([C:3]([C:4](=[O:5])[H:11])([H:9])[H:10])([H:7])[H:8])[H:6]>>[O:1]([C:2]([C:3]([C:4][O:5][H:11])([H:9])[H:10])([H:7])[H:8])[H:6]"
O       -1.40679072       0.54758104      -0.85490705
C       -1.02339046      -0.23781084       0.25968127
C        0.43457733      -0.61002668       0.08036074
C        1.30785608       0.58778279       0.26535867
O        2.51671779       0.49190949      -0.03853955
H       -2.28710723       0.89428671      -0.70582845
H       -1.63214468      -1.14790265       0.32359025
H       -1.15264862       0.31821990       1.19629472
H        0.57786461      -1.07402903      -0.90143787
H        0.74117510      -1.33566288       0.84079202
H        1.92389081       1.56565214      -0.46536474
11
Frame=16 idx=000618 GeodesicLength=1.105469459181222 rxn_smarts="[O:1]([C:2]([C:3]([C:4](=[O:5])[H:11])([H:9])[H:10])([H:7])[H:8])[H:6]>>[O:1]([C:2]([C:3]([C:4][O:5][H:11])([H:9])[H:10])([H:7])[H:8])[H:6]"
O       -1.36353273       0.57602990      -0.84867375
C       -1.01620324      -0.23309388       0.26077406
C        0.44053072      -0.61988338       0.10247308
C        1.33667178       0.55810600       0.32014027
O        2.48813892       0.48551966      -0.15871245
H       -2.26020148       0.89335267      -0.73547169
H       -1.63563379      -1.13714511       0.30125004
H       -1.15851308       0.31373953       1.20098616
H        0.58984702      -1.08317474      -0.87911716
H        0.73269525      -1.34577190       0.86843231
H        1.84620062       1.59232126      -0.43208087
