9
Frame=0 idx=001710 GeodesicLength=0.0 rxn_smarts="[O:1]([C:2]([C:3]#[C:4][C:5]#[N:6])([H:8])[H:9])[H:7]>>[O:1]([C:2]([C:3](=[C:4])[C:5]#[N:6])([H:8])[H:9])[H:7]"
O       -1.24370765       0.76856164      -0.87043001
C       -0.96719790      -0.00685498       0.25650731
C        0.31840877      -0.77535524       0.13893081
C        1.07015772      -1.81953740       0.10090930
C        1.64426021      -0.13691236      -0.04783469
N        2.51110486       0.61411517      -0.19870770
H       -0.63686306       1.51214216      -0.90859295
H       -1.76537749      -0.74216461       0.35342309
H       -0.93078545       0.58600564       1.17579485
9
Frame=1 idx=001710 GeodesicLength=0.07039334986922337 rxn_smarts="[O:1]([C:2]([C:3]#[C:4][C:5]#[N:6])([H:8])[H:9])[H:7]>>[O:1]([C:2]([C:3](=[C:4])[C:5]#[N:6])([H:8])[H:9])[H:7]"
O       -1.25429862       0.76198280      -0.87166237
C       -0.97530721      -0.00633943       0.25948843
C        0.31896568      -0.75998043       0.15593936
C        1.05689601      -1.80758216       0.07965069
C        1.67015766      -0.13663713      -0.04547429
N        2.54823332       0.60071313      -0.19679720
H       -0.65036911       1.50772312      -0.91322302
H       -1.76616237      -0.74986217       0.35510156
H       -0.94811535       0.58998227       1.17697685
9
Frame=2 idx=001710 GeodesicLength=0.14076448324941127 rxn_smarts="[O:1]([C:2]([C:3]#[C:4][C:5]#[N:6])([H:8])[H:9])[H:7]>>[O:1]([C:2]([C:3](=[C:4])[C:5]#[N:6])([H:8])[H:9])[H:7]"
O       -1.26547152       0.75559277      -0.87265489
C       -0.98344663      -0.00595909       0.26230427
C        0.31956808      -0.74415436       0.17195375
C        1.04341423      -1.79417096       0.05977662
C        1.69641639      -0.13672550      -0.04433287
N        2.58622919       0.58629658      -0.19417957
H       -0.66449568       1.50348776      -0.91767823
H       -1.76668491      -0.75782559       0.35667891
H       -0.96552915       0.59345840       1.17813202
9
Frame=3 idx=001710 GeodesicLength=0.21109160790202103 rxn_smarts="[O:1]([C:2]([C:3]#[C:4][C:5]#[N:6])([H:8])[H:9])[H:7]>>[O:1]([C:2]([C:3](=[C:4])[C:5]#[N:6])([H:8])[H:9])[H:7]"
O       -1.27713365       0.74953754      -0.87339422
C       -0.99166337      -0.00572632       0.26489877
C        0.32017382      -0.72784727       0.18689445
C        1.02993043      -1.77938947       0.04169931
C        1.72306165      -0.13715783      -0.04405620
N        2.62497253       0.57079586      -0.19148286
H       -0.67918161       1.49961953      -0.92174043
H       -1.76697962      -0.76609533       0.35787579
H       -0.98318018       0.59626329       1.17930539
9
Frame=4 idx=001710 GeodesicLength=0.2813809462677319 rxn_smarts="[O:1]([C:2]([C:3]#[C:4][C:5]#[N:6])([H:8])[H:9])[H:7]>>[O:1]([C:2]([C:3](=[C:4])[C:5]#[N:6])([H:8])[H:9])[H:7]"
O       -1.28945107       0.74376329      -0.87389060
C       -0.99996583      -0.00558732       0.26728669
C        0.32076071      -0.71097142       0.20062676
C        1.01658670      -1.76333141       0.02532419
C        1.75008038      -0.13794293      -0.04490715
N        2.66457683       0.55410930      -0.18821663
H       -0.69462993       1.49608829      -0.92554941
H       -1.76701394      -0.77462746       0.35885408
H       -1.00094387       0.59849964       1.18047207
9
Frame=5 idx=001710 GeodesicLength=0.35165066354932606 rxn_smarts="[O:1]([C:2]([C:3]#[C:4][C:5]#[N:6])([H:8])[H:9])[H:7]>>[O:1]([C:2]([C:3](=[C:4])[C:5]#[N:6])([H:8])[H:9])[H:7]"
O       -1.30241898       0.73830608      -0.87416974
C       -1.00837185      -0.00553071       0.26945760
C        0.32131355      -0.69348770       0.21314665
C        1.00351823      -1.74609044       0.01072096
C        1.77749275      -0.13907811      -0.04680577
N        2.70497939       0.53619079      -0.18448395
H       -0.71087808       1.49296105      -0.92907787
H       -1.76677643      -0.78342418       0.35955883
H       -1.01885858       0.60015323       1.18165330
9
Frame=6 idx=001710 GeodesicLength=0.42193309349121644 rxn_smarts="[O:1]([C:2]([C:3]#[C:4][C:5]#[N:6])([H:8])[H:9])[H:7]>>[O:1]([C:2]([C:3](=[C:4])[C:5]#[N:6])([H:8])[H:9])[H:7]"
O       -1.31634993       0.73297671      -0.87424168
C       -1.01685887      -0.00546879       0.27147645
C        0.32185270      -0.67525846       0.22430857
C        0.99079565      -1.72769804      -0.00255874
C        1.80526969      -0.14055038      -0.05039445
N        2.74642172       0.51684775      -0.17913795
H       -0.72829078       1.49006653      -0.93265310
H       -1.76618162      -0.79240298       0.36040510
H       -1.03665857       0.60148766       1.18279580
9
Frame=7 idx=001710 GeodesicLength=0.4921473114636004 rxn_smarts="[O:1]([C:2]([C:3]#[C:4][C:5]#[N:6])([H:8])[H:9])[H:7]>>[O:1]([C:2]([C:3](=[C:4])[C:5]#[N:6])([H:8])[H:9])[H:7]"
O       -1.33079381       0.72796394      -0.87414627
C       -1.02549513      -0.00547073       0.27327809
C        0.32234993      -0.65626839       0.23451865
C        0.97855367      -1.70818332      -0.01419584
C        1.83352872      -0.14235286      -0.05438987
N        2.78844591       0.49614400      -0.17397919
H       -0.74643727       1.48763789      -0.93584535
H       -1.76529467      -0.80167550       0.36077602
H       -1.05485734       0.60220497       1.18398377
9
Frame=8 idx=001710 GeodesicLength=0.5622728651200426 rxn_smarts="[O:1]([C:2]([C:3]#[C:4][C:5]#[N:6])([H:8])[H:9])[H:7]>>[O:1]([C:2]([C:3](=[C:4])[C:5]#[N:6])([H:8])[H:9])[H:7]"
O       -1.34591515       0.72314783      -0.87389436
C       -1.03426213      -0.00548392       0.27490256
C        0.32281943      -0.63640216       0.24372813
C        0.96683537      -1.68756882      -0.02450842
C        1.86227273      -0.14449680      -0.05905240
N        2.83112985       0.47397202      -0.16842159
H       -0.76552295       1.48557556      -0.93884390
H       -1.76404511      -0.81119475       0.36089990
H       -1.07331204       0.60245104       1.18519009
9
Frame=9 idx=001710 GeodesicLength=0.6323932724983663 rxn_smarts="[O:1]([C:2]([C:3]#[C:4][C:5]#[N:6])([H:8])[H:9])[H:7]>>[O:1]([C:2]([C:3](=[C:4])[C:5]#[N:6])([H:8])[H:9])[H:7]"
O       -1.36212732       0.71838639      -0.87345357
C       -1.04308735      -0.00545524       0.27635122
C        0.32327755      -0.61560662       0.25142052
C        0.95567033      -1.66569980      -0.03368057
C        1.89141424      -0.14691987      -0.06494801
N        2.87480518       0.45000373      -0.16130284
H       -0.78607664       1.48376518      -0.94191764
H       -1.76228055      -0.82087902       0.36117591
H       -1.09159543       0.60240526       1.18635497
9
Frame=10 idx=001710 GeodesicLength=0.7023968814716948 rxn_smarts="[O:1]([C:2]([C:3]#[C:4][C:5]#[N:6])([H:8])[H:9])[H:7]>>[O:1]([C:2]([C:3](=[C:4])[C:5]#[N:6])([H:8])[H:9])[H:7]"
O       -1.37901599       0.71373926      -0.87289259
C       -1.05203434      -0.00540833       0.27763772
C        0.32370926      -0.59378810       0.25821230
C        0.94513185      -1.64270450      -0.04182487
C        1.92111952      -0.14969909      -0.07113564
N        2.91897594       0.42443565      -0.15391437
H       -0.80764948       1.48228062      -0.94484348
H       -1.76006523      -0.83079294       0.36122089
H       -1.11017152       0.60193744       1.18754005
9
Frame=11 idx=001710 GeodesicLength=0.772304509669699 rxn_smarts="[O:1]([C:2]([C:3]#[C:4][C:5]#[N:6])([H:8])[H:9])[H:7]>>[O:1]([C:2]([C:3](=[C:4])[C:5]#[N:6])([H:8])[H:9])[H:7]"
O       -1.39675118       0.70909852      -0.87220140
C       -1.06105332      -0.00530144       0.27879422
C        0.32413229      -0.57088388       0.26393537
C        0.93522775      -1.61854507      -0.04923563
C        1.95140817      -0.15287704      -0.07785787
N        2.96360967       0.39719278      -0.14564421
H       -0.83044393       1.48101330      -0.94780352
H       -1.75731249      -0.84087469       0.36128259
H       -1.12881697       0.60117753       1.18873046
9
Frame=12 idx=001710 GeodesicLength=0.8420927726861871 rxn_smarts="[O:1]([C:2]([C:3]#[C:4][C:5]#[N:6])([H:8])[H:9])[H:7]>>[O:1]([C:2]([C:3](=[C:4])[C:5]#[N:6])([H:8])[H:9])[H:7]"
O       -1.41489380       0.70463678      -0.87143741
C       -1.07018142      -0.00520692       0.27973533
C        0.32445012      -0.54697343       0.26893668
C        0.92600672      -1.59324730      -0.05555443
C        1.98239516      -0.15659620      -0.08372951
N        3.00823382       0.36857549      -0.13826188
H       -0.85401664       1.48014858      -0.95044438
H       -1.75408126      -0.85117746       0.36081473
H       -1.14791269       0.59984047       1.18994087
9
Frame=13 idx=001710 GeodesicLength=0.9117724704427896 rxn_smarts="[O:1]([C:2]([C:3]#[C:4][C:5]#[N:6])([H:8])[H:9])[H:7]>>[O:1]([C:2]([C:3](=[C:4])[C:5]#[N:6])([H:8])[H:9])[H:7]"
O       -1.43371450       0.70019568      -0.87057636
C       -1.07935849      -0.00506263       0.28051736
C        0.32468699      -0.52195953       0.27300096
C        0.91744471      -1.56677609      -0.06124366
C        2.01407667      -0.16092753      -0.08920544
N        3.05295351       0.33850282      -0.13080696
H       -0.87868142       1.47952271      -0.95303298
H       -1.75026255      -0.86161704       0.36019589
H       -1.16714494       0.59812162       1.19115120
9
Frame=14 idx=001710 GeodesicLength=0.9813786661224201 rxn_smarts="[O:1]([C:2]([C:3]#[C:4][C:5]#[N:6])([H:8])[H:9])[H:7]>>[O:1]([C:2]([C:3](=[C:4])[C:5]#[N:6])([H:8])[H:9])[H:7]"
O       -1.45365716       0.69554200      -0.86954874
C       -1.08849913      -0.00478052       0.28121749
C        0.32490179      -0.49569719       0.27571229
C        0.90955199      -1.53900424      -0.06694386
C        2.04643043      -0.16583550      -0.09511324
N        3.09795594       0.30665340      -0.12172976
H       -0.90495708       1.47890041      -0.95592638
H       -1.74568789      -0.87209315       0.35998544
H       -1.18603889       0.59631480       1.19234677
9
Frame=15 idx=001710 GeodesicLength=1.0509080074528805 rxn_smarts="[O:1]([C:2]([C:3]#[C:4][C:5]#[N:6])([H:8])[H:9])[H:7]>>[O:1]([C:2]([C:3](=[C:4])[C:5]#[N:6])([H:8])[H:9])[H:7]"
O       -1.47479752       0.69060182      -0.86833358
C       -1.09756925      -0.00433906       0.28184661
C        0.32509090      -0.46811956       0.27697176
C        0.90235441      -1.50983181      -0.07290982
C        2.07949010      -0.17136581      -0.10128329
N        3.14316481       0.27294671      -0.11091731
H       -0.93296533       1.47821007      -0.95918046
H       -1.74027903      -0.88257509       0.36026812
H       -1.20448909       0.59447273       1.19353798
9
Frame=16 idx=001710 GeodesicLength=1.120337636335438 rxn_smarts="[O:1]([C:2]([C:3]#[C:4][C:5]#[N:6])([H:8])[H:9])[H:7]>>[O:1]([C:2]([C:3](=[C:4])[C:5]#[N:6])([H:8])[H:9])[H:7]"
O       -1.49694717       0.68541401      -0.86695296
C       -1.10657555      -0.00376395       0.28235929
C        0.32518367      -0.43921959       0.27692701
C        0.89588471      -1.47920013      -0.07907677
C        2.11330805      -0.17764577      -0.10682181
N        3.18836965       0.23751278      -0.09930426
H       -0.96254788       1.47749746      -0.96264446
H       -1.73401859      -0.89306828       0.36079325
H       -1.22265690       0.59247347       1.19472071
