11
Frame=0 idx=003067 GeodesicLength=0.0 rxn_smarts="[C:1](/[C:2](=[N:3]\[O:4][H:10])[C:5]#[C:6][H:11])([H:7])([H:8])[H:9]>>[C:1](/[C:2](=[N:3]\[O:4][H:10])[C:6](=[C:5])[H:11])([H:7])([H:8])[H:9]"
C       -0.62949150      -1.06446925      -0.02984154
C        0.30909420       0.08661087      -0.19553560
N       -0.05492664       1.31730707      -0.16677074
O       -1.40056221       1.44116879       0.02724532
C        1.78333668      -0.26028607      -1.04745796
C        1.89524435      -0.01900743       0.18606856
H       -1.41413946      -1.01434657      -0.78626356
H       -0.09299904      -2.00369432      -0.12752342
H       -1.11570275      -1.02029972       0.94797565
H       -1.54167972       2.39160914       0.01236995
H        2.26182605       0.14540745       1.17973331
11
Frame=1 idx=003067 GeodesicLength=0.09772375841283452 rxn_smarts="[C:1](/[C:2](=[N:3]\[O:4][H:10])[C:5]#[C:6][H:11])([H:7])([H:8])[H:9]>>[C:1](/[C:2](=[N:3]\[O:4][H:10])[C:6](=[C:5])[H:11])([H:7])([H:8])[H:9]"
C       -0.63085880      -1.05594860      -0.01466642
C        0.30680910       0.09762377      -0.17587587
N       -0.06942817       1.32373523      -0.13012599
O       -1.42195213       1.44031249       0.01757563
C        1.79096376      -0.15254889      -1.06313042
C        1.90785984      -0.06582663       0.18701399
H       -1.40995480      -1.01450003      -0.77728434
H       -0.09297085      -1.99520145      -0.10433932
H       -1.12690757      -1.01207651       0.95813508
H       -1.57517589       2.38521690      -0.06634665
H        2.32161551       0.04921372       1.16904430
11
Frame=2 idx=003067 GeodesicLength=0.19474454353013468 rxn_smarts="[C:1](/[C:2](=[N:3]\[O:4][H:10])[C:5]#[C:6][H:11])([H:7])([H:8])[H:9]>>[C:1](/[C:2](=[N:3]\[O:4][H:10])[C:6](=[C:5])[H:11])([H:7])([H:8])[H:9]"
C       -0.63209760      -1.04672043       0.00094816
C        0.30452125       0.10946776      -0.15720627
N       -0.08632803       1.33014663      -0.09659370
O       -1.44399194       1.43935629       0.00584379
C        1.80142921      -0.04001771      -1.06491515
C        1.91959836      -0.11193977       0.18289872
H       -1.40480096      -1.01531834      -0.76858702
H       -0.09375017      -1.98665316      -0.07843447
H       -1.13843875      -1.00215232       0.96833562
H       -1.60497009       2.37504110      -0.14197207
H        2.37882872      -0.05121006       1.14968239
11
Frame=3 idx=003067 GeodesicLength=0.29050062893466966 rxn_smarts="[C:1](/[C:2](=[N:3]\[O:4][H:10])[C:5]#[C:6][H:11])([H:7])([H:8])[H:9]>>[C:1](/[C:2](=[N:3]\[O:4][H:10])[C:6](=[C:5])[H:11])([H:7])([H:8])[H:9]"
C       -0.63318218      -1.03680847       0.01713720
C        0.30235120       0.12222216      -0.13802924
N       -0.10557965       1.33665533      -0.06617909
O       -1.46677490       1.43811302      -0.00798767
C        1.81421094       0.07582087      -1.05189172
C        1.93096367      -0.15643890       0.17330572
H       -1.39781669      -1.01673645      -0.76077372
H       -0.09519608      -1.97796828      -0.04924209
H       -1.15123255      -0.99073266       0.97816655
H       -1.63187720       2.36176338      -0.21485564
H        2.43413345      -0.15589001       1.12034971
11
Frame=4 idx=003067 GeodesicLength=0.38470627930352796 rxn_smarts="[C:1](/[C:2](=[N:3]\[O:4][H:10])[C:5]#[C:6][H:11])([H:7])([H:8])[H:9]>>[C:1](/[C:2](=[N:3]\[O:4][H:10])[C:6](=[C:5])[H:11])([H:7])([H:8])[H:9]"
C       -0.63373557      -1.02636907       0.03361773
C        0.30040255       0.13556292      -0.12183012
N       -0.12677016       1.34312310      -0.04400754
O       -1.48994301       1.43608401      -0.02469976
C        1.83194314       0.19272122      -1.02278192
C        1.94136884      -0.19916750       0.15872657
H       -1.39011953      -1.01962685      -0.75253541
H       -0.09706700      -1.96925465      -0.01722524
H       -1.16299981      -0.97708815       0.98829791
H       -1.65678821       2.34720224      -0.27988339
H        2.48370878      -0.26318727       1.08232117
11
Frame=5 idx=003067 GeodesicLength=0.47677180930619306 rxn_smarts="[C:1](/[C:2](=[N:3]\[O:4][H:10])[C:5]#[C:6][H:11])([H:7])([H:8])[H:9]>>[C:1](/[C:2](=[N:3]\[O:4][H:10])[C:6](=[C:5])[H:11])([H:7])([H:8])[H:9]"
C       -0.63380659      -1.01547001       0.05084262
C        0.29872488       0.14966598      -0.10535097
N       -0.14978887       1.34973486      -0.02763361
O       -1.51382845       1.43298785      -0.04552819
C        1.85278783       0.30977477      -0.97648452
C        1.95158517      -0.23950218       0.13850197
H       -1.38016888      -1.02388835      -0.74482856
H       -0.09900206      -1.96024618       0.01870476
H       -1.17581716      -0.96167835       0.99803630
H       -1.68073546       2.33235627      -0.33924829
H        2.53004959      -0.37373466       1.03298848
11
Frame=6 idx=003067 GeodesicLength=0.5662898190383634 rxn_smarts="[C:1](/[C:2](=[N:3]\[O:4][H:10])[C:5]#[C:6][H:11])([H:7])([H:8])[H:9]>>[C:1](/[C:2](=[N:3]\[O:4][H:10])[C:6](=[C:5])[H:11])([H:7])([H:8])[H:9]"
C       -0.63296820      -1.00428530       0.06866323
C        0.29739888       0.16423607      -0.09170546
N       -0.17411829       1.35633175      -0.02230007
O       -1.53818552       1.42798865      -0.07217789
C        1.87881741       0.42484075      -0.91098230
C        1.96129420      -0.27706311       0.11303754
H       -1.36861756      -1.03073419      -0.73656276
H       -0.10039688      -1.95083023       0.05864894
H       -1.18784178      -0.94362620       1.00789957
H       -1.70556670       2.31978159      -0.38769941
H        2.57018443      -0.48663976       0.97317861
11
Frame=7 idx=003067 GeodesicLength=0.6527157518182303 rxn_smarts="[C:1](/[C:2](=[N:3]\[O:4][H:10])[C:5]#[C:6][H:11])([H:7])([H:8])[H:9]>>[C:1](/[C:2](=[N:3]\[O:4][H:10])[C:6](=[C:5])[H:11])([H:7])([H:8])[H:9]"
C       -0.63105503      -0.99273182       0.08740024
C        0.29644443       0.17938362      -0.08051929
N       -0.19929756       1.36296759      -0.02972190
O       -1.56293257       1.42060120      -0.10573819
C        1.90971137       0.53683768      -0.82290297
C        1.97079192      -0.31110771       0.08211136
H       -1.35496510      -1.04055869      -0.72747137
H       -0.10065802      -1.94044152       0.10337901
H       -1.19929273      -0.92253652       1.01787525
H       -1.73307938       2.31042034      -0.42507200
H        2.60433267      -0.60283418       0.90065986
11
Frame=8 idx=003067 GeodesicLength=0.7354560385993834 rxn_smarts="[C:1](/[C:2](=[N:3]\[O:4][H:10])[C:5]#[C:6][H:11])([H:7])([H:8])[H:9]>>[C:1](/[C:2](=[N:3]\[O:4][H:10])[C:6](=[C:5])[H:11])([H:7])([H:8])[H:9]"
C       -0.62818982      -0.98057921       0.10820138
C        0.29572238       0.19553310      -0.06824995
N       -0.22502404       1.36967540      -0.04836384
O       -1.58782139       1.41061855      -0.14793480
C        1.94344217       0.64609802      -0.70504819
C        1.98048020      -0.34069582       0.04376823
H       -1.33775113      -1.05327774      -0.71745048
H       -0.09932125      -1.92817520       0.15482547
H       -1.21219968      -0.89830692       1.02778098
H       -1.76352147       2.30334310      -0.45565283
H        2.63418405      -0.72423327       0.80812403
11
Frame=9 idx=003067 GeodesicLength=0.8133385963790966 rxn_smarts="[C:1](/[C:2](=[N:3]\[O:4][H:10])[C:5]#[C:6][H:11])([H:7])([H:8])[H:9]>>[C:1](/[C:2](=[N:3]\[O:4][H:10])[C:6](=[C:5])[H:11])([H:7])([H:8])[H:9]"
C       -0.62366494      -0.96743275       0.13128862
C        0.29507642       0.21212469      -0.06394009
N       -0.24959174       1.37553268      -0.09209375
O       -1.61214212       1.39688376      -0.20152506
C        1.98256751       0.75114249      -0.54017885
C        1.99037999      -0.36328834      -0.00314694
H       -1.31933924      -1.07139161      -0.70287030
H       -0.09488160      -1.91268715       0.21401550
H       -1.22190941      -0.86717047       1.03977122
H       -1.80040264       2.29895251      -0.47192428
H        2.65390777      -0.85266581       0.69060393
11
Frame=10 idx=003067 GeodesicLength=0.8792201358053257 rxn_smarts="[C:1](/[C:2](=[N:3]\[O:4][H:10])[C:5]#[C:6][H:11])([H:7])([H:8])[H:9]>>[C:1](/[C:2](=[N:3]\[O:4][H:10])[C:6](=[C:5])[H:11])([H:7])([H:8])[H:9]"
C       -0.61996699      -0.95467730       0.15796381
C        0.29303904       0.22678080      -0.06117669
N       -0.26910612       1.37827758      -0.15629052
O       -1.63182053       1.38108766      -0.26850411
C        2.01429189       0.83644906      -0.31770937
C        2.00222132      -0.37216520      -0.06152787
H       -1.30050278      -1.09387549      -0.68362719
H       -0.08808817      -1.89388279       0.28113386
H       -1.23420440      -0.83102475       1.05261966
H       -1.83537580       2.29541510      -0.47980399
H        2.66951254      -0.97238467       0.53692241
11
Frame=11 idx=003067 GeodesicLength=0.9348959060310638 rxn_smarts="[C:1](/[C:2](=[N:3]\[O:4][H:10])[C:5]#[C:6][H:11])([H:7])([H:8])[H:9]>>[C:1](/[C:2](=[N:3]\[O:4][H:10])[C:6](=[C:5])[H:11])([H:7])([H:8])[H:9]"
C       -0.61970171      -0.94490023       0.18508512
C        0.28744583       0.23654098      -0.05903233
N       -0.27729972       1.37706474      -0.23168360
O       -1.64241813       1.36968405      -0.32238785
C        2.02529044       0.87460149      -0.06123569
C        2.01572889      -0.35868595      -0.12164080
H       -1.28828175      -1.11484738      -0.66052332
H       -0.08097941      -1.87497147       0.34391658
H       -1.24736474      -0.79735492       1.06648574
H       -1.85774297       2.28849512      -0.49913854
H        2.68532327      -1.05562643       0.36015470
11
Frame=12 idx=003067 GeodesicLength=1.0021441524048835 rxn_smarts="[C:1](/[C:2](=[N:3]\[O:4][H:10])[C:5]#[C:6][H:11])([H:7])([H:8])[H:9]>>[C:1](/[C:2](=[N:3]\[O:4][H:10])[C:6](=[C:5])[H:11])([H:7])([H:8])[H:9]"
C       -0.62524832      -0.94089819       0.20808802
C        0.27830023       0.23684508      -0.06174103
N       -0.27422062       1.36692448      -0.31581079
O       -1.64240312       1.36219937      -0.37633774
C        2.01141140       0.85974443       0.16620892
C        2.03209150      -0.32820897      -0.17004302
H       -1.28358234      -1.13832685      -0.63960584
H       -0.07791490      -1.85924652       0.40272342
H       -1.26689747      -0.76622310       1.07414805
H       -1.86146007       2.28977136      -0.49164140
H        2.70992369      -1.08258109       0.20401141
11
Frame=13 idx=003067 GeodesicLength=1.0768793031156298 rxn_smarts="[C:1](/[C:2](=[N:3]\[O:4][H:10])[C:5]#[C:6][H:11])([H:7])([H:8])[H:9]>>[C:1](/[C:2](=[N:3]\[O:4][H:10])[C:6](=[C:5])[H:11])([H:7])([H:8])[H:9]"
C       -0.63421910      -0.94121573       0.22920264
C        0.26690473       0.23544926      -0.04840534
N       -0.26678446       1.35718056      -0.36639355
O       -1.63754432       1.36136525      -0.40257516
C        1.99086977       0.81422626       0.33946894
C        2.04614768      -0.29025745      -0.21018185
H       -1.28213956      -1.15338939      -0.62295742
H       -0.07873757      -1.84954229       0.44732940
H       -1.28994558      -0.74992934       1.08089986
H       -1.85191722       2.29011942      -0.51635313
H        2.73736563      -1.07400656       0.06996560
11
Frame=14 idx=003067 GeodesicLength=1.153995284499204 rxn_smarts="[C:1](/[C:2](=[N:3]\[O:4][H:10])[C:5]#[C:6][H:11])([H:7])([H:8])[H:9]>>[C:1](/[C:2](=[N:3]\[O:4][H:10])[C:6](=[C:5])[H:11])([H:7])([H:8])[H:9]"
C       -0.64455658      -0.94415037       0.24729570
C        0.25498027       0.23150864      -0.03541328
N       -0.25824495       1.34700488      -0.40159587
O       -1.63120205       1.36552122      -0.40859417
C        1.96928600       0.75295311       0.47450850
C        2.06028123      -0.24896259      -0.24194050
H       -1.28766220      -1.16306263      -0.60682440
H       -0.08212083      -1.84517886       0.47838213
H       -1.30868538      -0.74133154       1.08960393
H       -1.83719401       2.29123496      -0.55676342
H        2.76511849      -1.04553682      -0.03865861
11
Frame=15 idx=003067 GeodesicLength=1.2316960733370732 rxn_smarts="[C:1](/[C:2](=[N:3]\[O:4][H:10])[C:5]#[C:6][H:11])([H:7])([H:8])[H:9]>>[C:1](/[C:2](=[N:3]\[O:4][H:10])[C:6](=[C:5])[H:11])([H:7])([H:8])[H:9]"
C       -0.65518195      -0.94733048       0.26528227
C        0.24334816       0.22879324      -0.01544107
N       -0.24888374       1.34056240      -0.41718566
O       -1.62345435       1.37162479      -0.40764814
C        1.95257640       0.67897391       0.58551085
C        2.07303662      -0.20405410      -0.26970199
H       -1.29207880      -1.16890069      -0.59281584
H       -0.08691236      -1.84252034       0.50550445
H       -1.32841114      -0.73727627       1.09837870
H       -1.82253581       2.28788480      -0.61253471
H        2.78849697      -1.00775727      -0.13934885
11
Frame=16 idx=003067 GeodesicLength=1.3106478579811636 rxn_smarts="[C:1](/[C:2](=[N:3]\[O:4][H:10])[C:5]#[C:6][H:11])([H:7])([H:8])[H:9]>>[C:1](/[C:2](=[N:3]\[O:4][H:10])[C:6](=[C:5])[H:11])([H:7])([H:8])[H:9]"
C       -0.66645843      -0.95069276       0.28175152
C        0.23220627       0.22467946       0.00074887
N       -0.23885879       1.33312567      -0.43213997
O       -1.61457694       1.37970355      -0.40266326
C        1.93653392       0.59608800       0.67759981
C        2.08698570      -0.15592673      -0.29071929
H       -1.29990763      -1.17327167      -0.57865532
H       -0.09385735      -1.84152834       0.52865600
H       -1.34586578      -0.73310285       1.10771683
H       -1.80718314       2.28232354      -0.66564142
H        2.81098216      -0.96139788      -0.22665377
