13
Frame=0 idx=003280 GeodesicLength=0.0 rxn_smarts="[C:1]([C@@:2]1([C:5](=[O:6])[H:13])[C:3]([H:10])([H:11])[N:4]1[H:12])([H:7])([H:8])[H:9]>>[C:1]([C@@:2]1([C:5][O:6][H:13])[C:3]([H:10])([H:11])[N:4]1[H:12])([H:7])([H:8])[H:9]"
C        1.54838517      -0.53931264      -0.08171024
C        0.11221537      -0.09776806      -0.04990775
C       -0.25835937       1.34357785       0.11893215
N       -0.38530087       0.70200815      -1.16663130
C       -0.85709594      -1.00439781       0.59070172
O       -2.11156523      -0.86544707       0.25881398
H        1.66505504      -1.42075230      -0.71422792
H        2.17830460       0.25324550      -0.48455263
H        1.89048986      -0.79132295       0.92308544
H       -1.15868370       1.57441592       0.67822189
H        0.55326555       2.05600880       0.21559895
H       -1.36075497       0.46290231      -1.33439782
H       -1.81595545      -1.67315766       1.04607349
13
Frame=1 idx=003280 GeodesicLength=0.03202268167022937 rxn_smarts="[C:1]([C@@:2]1([C:5](=[O:6])[H:13])[C:3]([H:10])([H:11])[N:4]1[H:12])([H:7])([H:8])[H:9]>>[C:1]([C@@:2]1([C:5][O:6][H:13])[C:3]([H:10])([H:11])[N:4]1[H:12])([H:7])([H:8])[H:9]"
C        1.54800727      -0.53922448      -0.08209341
C        0.11159113      -0.09805122      -0.05350106
C       -0.25899459       1.34256298       0.11924132
N       -0.38344968       0.70518591      -1.16889295
C       -0.85668109      -1.01133599       0.57870582
O       -2.10973513      -0.86840464       0.25663494
H        1.66721972      -1.41924443      -0.71620251
H        2.17845028       0.25444950      -0.48192260
H        1.88737039      -0.79329558       0.92318015
H       -1.16017336       1.57165070       0.67785848
H        0.55234529       2.05486605       0.21933713
H       -1.35864392       0.46725409      -1.33914220
H       -1.81730630      -1.66641288       1.06679689
13
Frame=2 idx=003280 GeodesicLength=0.06412315359170329 rxn_smarts="[C:1]([C@@:2]1([C:5](=[O:6])[H:13])[C:3]([H:10])([H:11])[N:4]1[H:12])([H:7])([H:8])[H:9]>>[C:1]([C@@:2]1([C:5][O:6][H:13])[C:3]([H:10])([H:11])[N:4]1[H:12])([H:7])([H:8])[H:9]"
C        1.54745747      -0.53916685      -0.08236979
C        0.11087338      -0.09827215      -0.05696471
C       -0.25956864       1.34163330       0.11947459
N       -0.38166306       0.70828312      -1.17106604
C       -0.85639320      -1.01799152       0.56695945
O       -2.10797689      -0.87111710       0.25491856
H        1.66908704      -1.41785947      -0.71790693
H        2.17845778       0.25550590      -0.47932721
H        1.88409177      -0.79517528       0.92335712
H       -1.16152849       1.56912577       0.67739912
H        0.55153721       2.05375480       0.22283944
H       -1.35660372       0.47156412      -1.34368916
H       -1.81777064      -1.66028463       1.08637557
13
Frame=3 idx=003280 GeodesicLength=0.09618537182610344 rxn_smarts="[C:1]([C@@:2]1([C:5](=[O:6])[H:13])[C:3]([H:10])([H:11])[N:4]1[H:12])([H:7])([H:8])[H:9]>>[C:1]([C@@:2]1([C:5][O:6][H:13])[C:3]([H:10])([H:11])[N:4]1[H:12])([H:7])([H:8])[H:9]"
C        1.54683354      -0.53916650      -0.08257390
C        0.11009387      -0.09845848      -0.06033333
C       -0.26014617       1.34077715       0.11967028
N       -0.37994644       0.71133690      -1.17321540
C       -0.85617457      -1.02444474       0.55542539
O       -2.10628132      -0.87370700       0.25348473
H        1.67081454      -1.41659897      -0.71946310
H        2.17840920       0.25643012      -0.47676181
H        1.88076110      -0.79705492       0.92362174
H       -1.16287042       1.56679190       0.67691229
H        0.55076045       2.05267738       0.22620580
H       -1.35465521       0.47587131      -1.34814914
H       -1.81759857      -1.65445415       1.10517644
13
Frame=4 idx=003280 GeodesicLength=0.1282183733741476 rxn_smarts="[C:1]([C@@:2]1([C:5](=[O:6])[H:13])[C:3]([H:10])([H:11])[N:4]1[H:12])([H:7])([H:8])[H:9]>>[C:1]([C@@:2]1([C:5][O:6][H:13])[C:3]([H:10])([H:11])[N:4]1[H:12])([H:7])([H:8])[H:9]"
C        1.54607598      -0.53922111      -0.08266687
C        0.10922428      -0.09856713      -0.06356687
C       -0.26067897       1.34005631       0.11978749
N       -0.37830781       0.71433591      -1.17531924
C       -0.85610209      -1.03057126       0.54419000
O       -2.10467903      -0.87599528       0.25250999
H        1.67228729      -1.41551898      -0.72075116
H        2.17826491       0.25717190      -0.47426145
H        1.87733415      -0.79885167       0.92400991
H       -1.16411600       1.56478252       0.67633811
H        0.55009222       2.05167679       0.22933155
H       -1.35280807       0.48017824      -1.35246765
H       -1.81658686      -1.64947625       1.12286619
13
Frame=5 idx=003280 GeodesicLength=0.16023166203265143 rxn_smarts="[C:1]([C@@:2]1([C:5](=[O:6])[H:13])[C:3]([H:10])([H:11])[N:4]1[H:12])([H:7])([H:8])[H:9]>>[C:1]([C@@:2]1([C:5][O:6][H:13])[C:3]([H:10])([H:11])[N:4]1[H:12])([H:7])([H:8])[H:9]"
C        1.54523133      -0.53930786      -0.08268887
C        0.10830434      -0.09861776      -0.06669664
C       -0.26117813       1.33942654       0.11985093
N       -0.37671852       0.71728793      -1.17738837
C       -0.85608160      -1.03645144       0.53321315
O       -2.10311633      -0.87812034       0.25184435
H        1.67358404      -1.41454798      -0.72186267
H        2.17805430       0.25779123      -0.47181773
H        1.87384720      -0.80059272       0.92447333
H       -1.16529644       1.56300077       0.67571526
H        0.54949611       2.05072559       0.23227453
H       -1.35102598       0.48447758      -1.35667543
H       -1.81510032      -1.64507155       1.13975816
13
Frame=6 idx=003280 GeodesicLength=0.19204091308041119 rxn_smarts="[C:1]([C@@:2]1([C:5](=[O:6])[H:13])[C:3]([H:10])([H:11])[N:4]1[H:12])([H:7])([H:8])[H:9]>>[C:1]([C@@:2]1([C:5][O:6][H:13])[C:3]([H:10])([H:11])[N:4]1[H:12])([H:7])([H:8])[H:9]"
C        1.54424493      -0.53943766      -0.08259915
C        0.10729530      -0.09857650      -0.06968893
C       -0.26161700       1.33893930       0.11982905
N       -0.37518332       0.72019252      -1.17940958
C       -0.85622680      -1.04197710       0.52255094
O       -2.10163401      -0.87993407       0.25161184
H        1.67460614      -1.41374847      -0.72269449
H        2.17774822       0.25823278      -0.46945157
H        1.87025454      -0.80222927       0.92505575
H       -1.16636318       1.56154821       0.67499513
H        0.54902776       2.04986009       0.23494873
H       -1.34931999       0.48879028      -1.36074049
H       -1.81283260      -1.64166010       1.15559278
13
Frame=7 idx=003280 GeodesicLength=0.22384201963184336 rxn_smarts="[C:1]([C@@:2]1([C:5](=[O:6])[H:13])[C:3]([H:10])([H:11])[N:4]1[H:12])([H:7])([H:8])[H:9]>>[C:1]([C@@:2]1([C:5][O:6][H:13])[C:3]([H:10])([H:11])[N:4]1[H:12])([H:7])([H:8])[H:9]"
C        1.54317088      -0.53960459      -0.08242708
C        0.10623251      -0.09845654      -0.07256992
C       -0.26201125       1.33858065       0.11974219
N       -0.37370141       0.72306158      -1.18140548
C       -0.85644939      -1.04720912       0.51216097
O       -2.10020114      -0.88152195       0.25170414
H        1.67543424      -1.41309133      -0.72332028
H        2.17738234       0.25852888      -0.46715774
H        1.86661872      -0.80378810       0.92573418
H       -1.16735036       1.56038600       0.67420766
H        0.54865424       2.04907956       0.23741305
H       -1.34768921       0.49311581      -1.36470881
H       -1.81009018      -1.63908082       1.17062712
13
Frame=8 idx=003280 GeodesicLength=0.2556420508422379 rxn_smarts="[C:1]([C@@:2]1([C:5](=[O:6])[H:13])[C:3]([H:10])([H:11])[N:4]1[H:12])([H:7])([H:8])[H:9]>>[C:1]([C@@:2]1([C:5][O:6][H:13])[C:3]([H:10])([H:11])[N:4]1[H:12])([H:7])([H:8])[H:9]"
C        1.54200739      -0.53980380      -0.08218594
C        0.10511446      -0.09827398      -0.07536853
C       -0.26237067       1.33832321       0.11959965
N       -0.37224819       0.72590939      -1.18338274
C       -0.85676799      -1.05220158       0.50196127
O       -2.09880887      -0.88292906       0.25204539
H        1.67608973      -1.41254824      -0.72377783
H        2.17696008       0.25870658      -0.46490817
H        1.86290889      -0.80529252       0.92649113
H       -1.16827712       1.55945374       0.67335320
H        0.54835851       2.04836054       0.23971924
H       -1.34610043       0.49746378      -1.36860861
H       -1.80686578      -1.63716806       1.18506195
13
Frame=9 idx=003280 GeodesicLength=0.28746713902053594 rxn_smarts="[C:1]([C@@:2]1([C:5](=[O:6])[H:13])[C:3]([H:10])([H:11])[N:4]1[H:12])([H:7])([H:8])[H:9]>>[C:1]([C@@:2]1([C:5][O:6][H:13])[C:3]([H:10])([H:11])[N:4]1[H:12])([H:7])([H:8])[H:9]"
C        1.54076244      -0.54003441      -0.08188515
C        0.10394564      -0.09803759      -0.07810273
C       -0.26270411       1.33815121       0.11940744
N       -0.37081601       0.72874529      -1.18534800
C       -0.85717513      -1.05698490       0.49190439
O       -2.09745042      -0.88418565       0.25258708
H        1.67659730      -1.41209864      -0.72409928
H        2.17649042       0.25878308      -0.46267669
H        1.85911871      -0.80677077       0.92731430
H       -1.16916197       1.55871710       0.67243076
H        0.54812497       2.04769078       0.24189758
H       -1.34454314       0.50184069      -1.37246101
H       -1.80318869      -1.63581620       1.19903129
13
Frame=10 idx=003280 GeodesicLength=0.31931612180573643 rxn_smarts="[C:1]([C@@:2]1([C:5](=[O:6])[H:13])[C:3]([H:10])([H:11])[N:4]1[H:12])([H:7])([H:8])[H:9]>>[C:1]([C@@:2]1([C:5][O:6][H:13])[C:3]([H:10])([H:11])[N:4]1[H:12])([H:7])([H:8])[H:9]"
C        1.53943940      -0.54029489      -0.08153098
C        0.10272774      -0.09775316      -0.08078402
C       -0.26301717       1.33805453       0.11917020
N       -0.36939752       0.73157477      -1.18730548
C       -0.85767000      -1.06157960       0.48195655
O       -2.09611977      -0.88531295       0.25329843
H        1.67697028      -1.41173178      -0.72430149
H        2.17597627       0.25876768      -0.46045352
H        1.85524558      -0.80823241       0.92819647
H       -1.17001371       1.55815149       0.67144324
H        0.54794349       2.04706225       0.24397276
H       -1.34300656       0.50624822      -1.37628191
H       -1.79907802      -1.63495416       1.21261974
13
Frame=11 idx=003280 GeodesicLength=0.35116457818508084 rxn_smarts="[C:1]([C@@:2]1([C:5](=[O:6])[H:13])[C:3]([H:10])([H:11])[N:4]1[H:12])([H:7])([H:8])[H:9]>>[C:1]([C@@:2]1([C:5][O:6][H:13])[C:3]([H:10])([H:11])[N:4]1[H:12])([H:7])([H:8])[H:9]"
C        1.53805316      -0.54058665      -0.08113166
C        0.10146354      -0.09743019      -0.08342464
C       -0.26332006       1.33802279       0.11889624
N       -0.36798930       0.73439793      -1.18926477
C       -0.85825696      -1.06601311       0.47208781
O       -2.09482357      -0.88633880       0.25414350
H        1.67723868      -1.41143231      -0.72442437
H        2.17543782       0.25867495      -0.45821417
H        1.85129404      -0.80970328       0.92913107
H       -1.17085460       1.55773457       0.67039956
H        0.54780352       2.04647009       0.24597279
H       -1.34149060       0.51068097      -1.38009276
H       -1.79455567      -1.63447694       1.22592138
13
Frame=12 idx=003280 GeodesicLength=0.38310787227977317 rxn_smarts="[C:1]([C@@:2]1([C:5](=[O:6])[H:13])[C:3]([H:10])([H:11])[N:4]1[H:12])([H:7])([H:8])[H:9]>>[C:1]([C@@:2]1([C:5][O:6][H:13])[C:3]([H:10])([H:11])[N:4]1[H:12])([H:7])([H:8])[H:9]"
C        1.53658900      -0.54090480      -0.08068921
C        0.10015742      -0.09707070      -0.08603142
C       -0.26361074       1.33804434       0.11858110
N       -0.36658046       0.73722697      -1.19122033
C       -0.85889847      -1.07029542       0.46228070
O       -2.09353337      -0.88728402       0.25509198
H        1.67739143      -1.41117800      -0.72446836
H        2.17484660       0.25851563      -0.45595029
H        1.84724478      -0.81119590       0.93010362
H       -1.17167350       1.55744126       0.66928900
H        0.54769210       2.04589908       0.24789942
H       -1.33996933       0.51515341      -1.38389183
H       -1.78965547      -1.63435186       1.23900562
13
Frame=13 idx=003280 GeodesicLength=0.41490036948850084 rxn_smarts="[C:1]([C@@:2]1([C:5](=[O:6])[H:13])[C:3]([H:10])([H:11])[N:4]1[H:12])([H:7])([H:8])[H:9]>>[C:1]([C@@:2]1([C:5][O:6][H:13])[C:3]([H:10])([H:11])[N:4]1[H:12])([H:7])([H:8])[H:9]"
C        1.53503510      -0.54125175      -0.08019134
C        0.09879830      -0.09666345      -0.08858270
C       -0.26387943       1.33814133       0.11821815
N       -0.36517523       0.74004942      -1.19316449
C       -0.85964502      -1.07438957       0.45259269
O       -2.09225572      -0.88810048       0.25619813
H        1.67739429      -1.41099761      -0.72439898
H        2.17419834       0.25827261      -0.45368109
H        1.84309280      -0.81268318       0.93113118
H       -1.17245639       1.55731739       0.66809682
H        0.54763269       2.04537018       0.24972006
H       -1.33845096       0.51965266      -1.38766102
H       -1.78428876      -1.63471757       1.25172258
13
Frame=14 idx=003280 GeodesicLength=0.4467188827072853 rxn_smarts="[C:1]([C@@:2]1([C:5](=[O:6])[H:13])[C:3]([H:10])([H:11])[N:4]1[H:12])([H:7])([H:8])[H:9]>>[C:1]([C@@:2]1([C:5][O:6][H:13])[C:3]([H:10])([H:11])[N:4]1[H:12])([H:7])([H:8])[H:9]"
C        1.53342352      -0.54162392      -0.07964878
C        0.09739948      -0.09621263      -0.09109292
C       -0.26413347       1.33830749       0.11781670
N       -0.36377622       0.74286819      -1.19511260
C       -0.86046978      -1.07831331       0.44299521
O       -2.09100507      -0.88881801       0.25742014
H        1.67729390      -1.41088127      -0.72424608
H        2.17352633       0.25795415      -0.45140948
H        1.83887420      -0.81417007       0.93220967
H       -1.17322445       1.55734597       0.66684707
H        0.54761983       2.04488002       0.25145860
H       -1.33694822       0.52418084      -1.39142208
H       -1.77858005      -1.63551746       1.26418454
13
Frame=15 idx=003280 GeodesicLength=0.47854570571242677 rxn_smarts="[C:1]([C@@:2]1([C:5](=[O:6])[H:13])[C:3]([H:10])([H:11])[N:4]1[H:12])([H:7])([H:8])[H:9]>>[C:1]([C@@:2]1([C:5][O:6][H:13])[C:3]([H:10])([H:11])[N:4]1[H:12])([H:7])([H:8])[H:9]"
C        1.53174349      -0.54202091      -0.07906333
C        0.09595752      -0.09572417      -0.09357397
C       -0.26437592       1.33853242       0.11737835
N       -0.36237693       0.74569257      -1.19706382
C       -0.86137519      -1.08208778       0.43345604
O       -2.08976908      -0.88944911       0.25874003
H        1.67708640      -1.41082564      -0.72400667
H        2.17281739       0.25756424      -0.44913028
H        1.83456488      -0.81565850       0.93333602
H       -1.17397790       1.55750533       0.66553511
H        0.54764526       2.04441585       0.25313490
H       -1.33544694       0.52874644      -1.39518041
H       -1.77249297      -1.63669073       1.27643803
13
Frame=16 idx=003280 GeodesicLength=0.510380537187772 rxn_smarts="[C:1]([C@@:2]1([C:5](=[O:6])[H:13])[C:3]([H:10])([H:11])[N:4]1[H:12])([H:7])([H:8])[H:9]>>[C:1]([C@@:2]1([C:5][O:6][H:13])[C:3]([H:10])([H:11])[N:4]1[H:12])([H:7])([H:8])[H:9]"
C        1.52999534      -0.54244405      -0.07843625
C        0.09447249      -0.09520072      -0.09603037
C       -0.26460936       1.33881193       0.11690493
N       -0.36097475       0.74852437      -1.19901973
C       -0.86236129      -1.08572290       0.42396014
O       -2.08854688      -0.89000188       0.26014842
H        1.67677696      -1.41082476      -0.72369126
H        2.17207301       0.25710803      -0.44682891
H        1.83015987      -0.81716022       0.93450734
H       -1.17472159       1.55778758       0.66416052
H        0.54770358       2.04397668       0.25475125
H       -1.33394405       0.53335247      -1.39894106
H       -1.76602333      -1.63820653       1.28851497
