19
Frame=0 idx=010052 GeodesicLength=0.0 rxn_smarts="[C:1]([C:2]([C@@:3]1([H:13])[C:4]([H:14])([H:15])[C@:5]1([C:6]([O:7][H:19])([H:17])[H:18])[H:16])([H:11])[H:12])([H:8])([H:9])[H:10]>>[C:1]1([H:9])([H:10])[C:2]([H:11])([H:12])[C:3]1([C:4]([C:5]([C:6]([O:7][H:19])([H:17])[H:18])([H:8])[H:16])([H:14])[H:15])[H:13]"
C       -1.94817903       0.00045440       0.95834715
C       -1.34547073       1.22632483       0.27892998
C       -0.75334568       0.84371689      -0.98156622
C        0.68337534       0.58173311      -1.10279869
C        0.44274432      -0.74630715      -0.36762920
C        1.48723098      -1.07399495       0.69041343
O        2.77774078      -1.28762893       0.15833089
H       -0.52624856      -0.72366365       0.36743359
H       -2.43862715      -0.67932113       0.25397404
H       -2.63177912       0.23896278       1.77979728
H       -0.65340444       1.76800149       0.92983588
H       -2.17968298       1.90560938       0.03023957
H       -1.41858374       0.48154465      -1.75931388
H        1.07244051       0.48976317      -2.11397386
H        1.29435408       1.26983741      -0.51434338
H        0.31479838      -1.55701031      -1.08107334
H        1.49458722      -0.28150702       1.44933376
H        1.20471134      -2.00227447       1.19046780
H        3.12333856      -0.45424043      -0.16640471
19
Frame=1 idx=010052 GeodesicLength=0.10017176982820707 rxn_smarts="[C:1]([C:2]([C@@:3]1([H:13])[C:4]([H:14])([H:15])[C@:5]1([C:6]([O:7][H:19])([H:17])[H:18])[H:16])([H:11])[H:12])([H:8])([H:9])[H:10]>>[C:1]1([H:9])([H:10])[C:2]([H:11])([H:12])[C:3]1([C:4]([C:5]([C:6]([O:7][H:19])([H:17])[H:18])([H:8])[H:16])([H:14])[H:15])[H:13]"
C       -1.96747822       0.00223209       0.92855415
C       -1.34671382       1.23679820       0.28954549
C       -0.75599429       0.82828923      -0.96517334
C        0.68240909       0.57738785      -1.09905353
C        0.44665459      -0.74628099      -0.35706968
C        1.50185426      -1.06660017       0.69231775
O        2.78682056      -1.28870093       0.14964857
H       -0.54604703      -0.74963933       0.38700227
H       -2.46847069      -0.68169488       0.23704353
H       -2.65544937       0.23391657       1.74840435
H       -0.64768555       1.75115619       0.95380557
H       -2.16344151       1.93417943       0.03793549
H       -1.41920077       0.49519149      -1.75683755
H        1.06345723       0.47850665      -2.11260268
H        1.29417386       1.27404598      -0.52200684
H        0.32171492      -1.56033348      -1.06782870
H        1.51960086      -0.26773748       1.44444804
H        1.22576235      -1.98980691       1.20525693
H        3.12803353      -0.46090950      -0.19338983
19
Frame=2 idx=010052 GeodesicLength=0.20005986263361505 rxn_smarts="[C:1]([C:2]([C@@:3]1([H:13])[C:4]([H:14])([H:15])[C@:5]1([C:6]([O:7][H:19])([H:17])[H:18])[H:16])([H:11])[H:12])([H:8])([H:9])[H:10]>>[C:1]1([H:9])([H:10])[C:2]([H:11])([H:12])[C:3]1([C:4]([C:5]([C:6]([O:7][H:19])([H:17])[H:18])([H:8])[H:16])([H:14])[H:15])[H:13]"
C       -1.98562044       0.00422508       0.89842219
C       -1.34787598       1.24672852       0.29987011
C       -0.75859914       0.81303742      -0.94904104
C        0.68141908       0.57317657      -1.09539404
C        0.45048521      -0.74613030      -0.34666886
C        1.51602060      -1.05905135       0.69421084
O        2.79545279      -1.28976960       0.14143018
H       -0.56652156      -0.77604305       0.40628997
H       -2.49771242      -0.68426138       0.22096207
H       -2.67676402       0.22906237       1.71781365
H       -0.64321878       1.73402797       0.97733231
H       -2.14710409       1.96136796       0.04546127
H       -1.41892783       0.51015278      -1.75455124
H        1.05468766       0.46733182      -2.11111245
H        1.29366251       1.27833284      -0.52970903
H        0.32842448      -1.56353044      -1.05466743
H        1.54391673      -0.25378563       1.43927736
H        1.24623794      -1.97695252       1.21993301
H        3.13203725      -0.46791905      -0.21985885
19
Frame=3 idx=010052 GeodesicLength=0.2996939499834971 rxn_smarts="[C:1]([C:2]([C@@:3]1([H:13])[C:4]([H:14])([H:15])[C@:5]1([C:6]([O:7][H:19])([H:17])[H:18])[H:16])([H:11])[H:12])([H:8])([H:9])[H:10]>>[C:1]1([H:9])([H:10])[C:2]([H:11])([H:12])[C:3]1([C:4]([C:5]([C:6]([O:7][H:19])([H:17])[H:18])([H:8])[H:16])([H:14])[H:15])[H:13]"
C       -2.00260550       0.00639005       0.86800225
C       -1.34898197       1.25608747       0.30986903
C       -0.76115029       0.79798618      -0.93324933
C        0.68042823       0.56911794      -1.09183896
C        0.45424720      -0.74583929      -0.33646496
C        1.52970908      -1.05134506       0.69609219
O        2.80363214      -1.29084890       0.13369923
H       -0.58775078      -0.80281215       0.42523917
H       -2.52637545      -0.68695473       0.20580254
H       -2.69562352       0.22426422       1.68812050
H       -0.63998625       1.71667298       1.00034114
H       -2.13072684       1.98718734       0.05281951
H       -1.41772275       0.52636517      -1.75239840
H        1.04618639       0.45626417      -2.10951511
H        1.29283670       1.28270923      -0.53744781
H        0.33491907      -1.56659579      -1.04160962
H        1.56751325      -0.23965147       1.43382330
H        1.26607932      -1.96370122       1.23449159
H        3.13537198      -0.47529615      -0.24577628
19
Frame=4 idx=010052 GeodesicLength=0.3991199309314331 rxn_smarts="[C:1]([C:2]([C@@:3]1([H:13])[C:4]([H:14])([H:15])[C@:5]1([C:6]([O:7][H:19])([H:17])[H:18])[H:16])([H:11])[H:12])([H:8])([H:9])[H:10]>>[C:1]1([H:9])([H:10])[C:2]([H:11])([H:12])[C:3]1([C:4]([C:5]([C:6]([O:7][H:19])([H:17])[H:18])([H:8])[H:16])([H:14])[H:15])[H:13]"
C       -2.01845915       0.00868792       0.83734672
C       -1.35004891       1.26485091       0.31951851
C       -0.76363806       0.78315249      -0.91786995
C        0.67945958       0.56522920      -1.08841011
C        0.45796014      -0.74539306      -0.32649735
C        1.54291188      -1.04347320       0.69796114
O        2.81136545      -1.29194460       0.12648007
H       -0.60981930      -0.82989282       0.44380004
H       -2.55449959      -0.68969125       0.19161182
H       -2.71198577       0.21939085       1.65940570
H       -0.63795004       1.69912220       1.02277523
H       -2.11434447       2.01166739       0.06002459
H       -1.41555733       0.54374065      -1.75030991
H        1.03800025       0.44532858      -2.10783062
H        1.29171898       1.28718655      -0.54523090
H        0.34119720      -1.56952814      -1.02867324
H        1.59038058      -0.22532968       1.42808652
H        1.28524087      -1.95003937       1.24893055
H        3.13806769      -0.48306463      -0.27111880
19
Frame=5 idx=010052 GeodesicLength=0.49838164940654733 rxn_smarts="[C:1]([C:2]([C@@:3]1([H:13])[C:4]([H:14])([H:15])[C@:5]1([C:6]([O:7][H:19])([H:17])[H:18])[H:16])([H:11])[H:12])([H:8])([H:9])[H:10]>>[C:1]1([H:9])([H:10])[C:2]([H:11])([H:12])[C:3]1([C:4]([C:5]([C:6]([O:7][H:19])([H:17])[H:18])([H:8])[H:16])([H:14])[H:15])[H:13]"
C       -2.03321148       0.01108324       0.80650951
C       -1.35109220       1.27299874       0.32880598
C       -0.76605485       0.76855205      -0.90297052
C        0.67853472       0.56152534      -1.08513122
C        0.46164325      -0.74477647      -0.31680315
C        1.55561943      -1.03542767       0.69981685
O        2.81865732      -1.29305955       0.11979384
H       -0.63282020      -0.85723194       0.46193056
H       -2.58210890      -0.69237203       0.17842104
H       -2.72578983       0.21430288       1.63171381
H       -0.63706038       1.68140943       1.04458012
H       -2.09798361       2.03483902       0.06710878
H       -1.41242026       0.56217284      -1.74821566
H        1.03016919       0.43454522      -2.10608062
H        1.29032864       1.29177608      -0.55307045
H        0.34725296      -1.57232761      -1.01587006
H        1.61250320      -0.21081685       1.42206730
H        1.30368171      -1.93595539       1.26324447
H        3.14015129      -0.49123733      -0.29585058
19
Frame=6 idx=010052 GeodesicLength=0.5975195106864417 rxn_smarts="[C:1]([C:2]([C@@:3]1([H:13])[C:4]([H:14])([H:15])[C@:5]1([C:6]([O:7][H:19])([H:17])[H:18])[H:16])([H:11])[H:12])([H:8])([H:9])[H:10]>>[C:1]1([H:9])([H:10])[C:2]([H:11])([H:12])[C:3]1([C:4]([C:5]([C:6]([O:7][H:19])([H:17])[H:18])([H:8])[H:16])([H:14])[H:15])[H:13]"
C       -2.04691116       0.01354746       0.77554600
C       -1.35211921       1.28051303       0.33771739
C       -0.76839201       0.75419130      -0.88860406
C        0.67767429       0.55802001      -1.08202599
C        0.46532161      -0.74397846      -0.30742081
C        1.56783665      -1.02719728       0.70165868
O        2.82552880      -1.29418232       0.11366181
H       -0.65685580      -0.88479843       0.47957911
H       -2.60924450      -0.69489348       0.16624941
H       -2.73704598       0.20889086       1.60508509
H       -0.63725412       1.66354170       1.06572650
H       -2.08164875       2.05675858       0.07410723
H       -1.40831489       0.58152646      -1.74603885
H        1.02272469       0.42393681      -2.10429314
H        1.28868883       1.29648875      -0.56097962
H        0.35309265      -1.57499790      -1.00321518
H        1.63388126      -0.19610632       1.41577214
H        1.32137585      -1.92143859       1.27742658
H        3.14166179      -0.49982217      -0.31995230
19
Frame=7 idx=010052 GeodesicLength=0.6965491958259251 rxn_smarts="[C:1]([C:2]([C@@:3]1([H:13])[C:4]([H:14])([H:15])[C@:5]1([C:6]([O:7][H:19])([H:17])[H:18])[H:16])([H:11])[H:12])([H:8])([H:9])[H:10]>>[C:1]1([H:9])([H:10])[C:2]([H:11])([H:12])[C:3]1([C:4]([C:5]([C:6]([O:7][H:19])([H:17])[H:18])([H:8])[H:16])([H:14])[H:15])[H:13]"
C       -2.05959476       0.01605125       0.74451239
C       -1.35313767       1.28737819       0.34625317
C       -0.77064141       0.74007686      -0.87481758
C        0.67689737       0.55472397      -1.07911597
C        0.46901769      -0.74298854      -0.29838147
C        1.57957400      -1.01877481       0.70348360
O        2.83200326      -1.29530414       0.10809262
H       -0.68202752      -0.91255859       0.49669926
H       -2.63593214      -0.69713871       0.15509963
H       -2.74578860       0.20307057       1.57953590
H       -0.63846385       1.64552807       1.08618653
H       -2.06534554       2.07746512       0.08106995
H       -1.40326070       0.60165391      -1.74371160
H        1.01569263       0.41352018      -2.10249418
H        1.28682232       1.30133383      -0.56897381
H        0.35871996      -1.57754271      -0.99071662
H        1.65451880      -0.18119865       1.40920558
H        1.33831080      -1.90648385       1.29146702
H        3.14263535      -0.50881194      -0.34339443
19
Frame=8 idx=010052 GeodesicLength=0.7955196630042619 rxn_smarts="[C:1]([C:2]([C@@:3]1([H:13])[C:4]([H:14])([H:15])[C@:5]1([C:6]([O:7][H:19])([H:17])[H:18])[H:16])([H:11])[H:12])([H:8])([H:9])[H:10]>>[C:1]1([H:9])([H:10])[C:2]([H:11])([H:12])[C:3]1([C:4]([C:5]([C:6]([O:7][H:19])([H:17])[H:18])([H:8])[H:16])([H:14])[H:15])[H:13]"
C       -2.07132796       0.01857324       0.71346294
C       -1.35413991       1.29357932       0.35442794
C       -0.77279325       0.72619906      -0.86163738
C        0.67622225       0.55164444      -1.07642420
C        0.47276977      -0.74179920      -0.28971493
C        1.59085778      -1.01014628       0.70528649
O        2.83811569      -1.29640183       0.10309110
H       -0.70844386      -0.94050393       0.51326203
H       -2.66221689      -0.69898126       0.14494496
H       -2.75213417       0.19678316       1.55505470
H       -0.64060276       1.62734870       1.10595589
H       -2.04905127       2.09701148       0.08805406
H       -1.39729197       0.62239719      -1.74115487
H        1.00908548       0.40330987      -2.10071412
H        1.28475084       1.30632040      -0.57707809
H        0.36414989      -1.57997361      -0.97837379
H        1.67443865      -0.16608451       1.40236675
H        1.35449384      -1.89107952       1.30535778
H        3.14311786      -0.51819670      -0.36616725
19
Frame=9 idx=010052 GeodesicLength=0.8945508152997454 rxn_smarts="[C:1]([C:2]([C@@:3]1([H:13])[C:4]([H:14])([H:15])[C@:5]1([C:6]([O:7][H:19])([H:17])[H:18])[H:16])([H:11])[H:12])([H:8])([H:9])[H:10]>>[C:1]1([H:9])([H:10])[C:2]([H:11])([H:12])[C:3]1([C:4]([C:5]([C:6]([O:7][H:19])([H:17])[H:18])([H:8])[H:16])([H:14])[H:15])[H:13]"
C       -2.08222253       0.02106764       0.68237836
C       -1.35510635       1.29911044       0.36229427
C       -0.77484363       0.71252951      -0.84899554
C        0.67564500       0.54877647      -1.07394228
C        0.47663197      -0.74041305      -0.28140849
C        1.60178425      -1.00129643       0.70706232
O        2.84394910      -1.29744122       0.09860116
H       -0.73618288      -0.96868861       0.52931103
H       -2.68819235      -0.70029094       0.13570593
H       -2.75642238       0.19016481       1.53142482
H       -0.64355258       1.60888572       1.12512631
H       -2.03266634       2.11547932       0.09514832
H       -1.39051352       0.64355425      -1.73832159
H        1.00285166       0.39330873      -2.09897333
H        1.28248758       1.31145440      -0.58531003
H        0.36937693      -1.58231126      -0.96612579
H        1.69377125      -0.15075054       1.39525889
H        1.37003898      -1.87521855       1.31908447
H        3.14316583      -0.52792067      -0.38831884
19
Frame=10 idx=010052 GeodesicLength=0.9935415971261513 rxn_smarts="[C:1]([C:2]([C@@:3]1([H:13])[C:4]([H:14])([H:15])[C@:5]1([C:6]([O:7][H:19])([H:17])[H:18])[H:16])([H:11])[H:12])([H:8])([H:9])[H:10]>>[C:1]1([H:9])([H:10])[C:2]([H:11])([H:12])[C:3]1([C:4]([C:5]([C:6]([O:7][H:19])([H:17])[H:18])([H:8])[H:16])([H:14])[H:15])[H:13]"
C       -2.09226514       0.02353508       0.65140619
C       -1.35603917       1.30395998       0.36984644
C       -0.77678606       0.69906843      -0.83698084
C        0.67518995       0.54613117      -1.07171915
C        0.48061196      -0.73881720      -0.27351789
C        1.61231524      -0.99220951       0.70881341
O        2.84949725      -1.29840558       0.09468093
H       -0.76540605      -0.99705842       0.54473399
H       -2.71380103      -0.70092926       0.12736329
H       -2.75854235       0.18299443       1.50876588
H       -0.64725476       1.59021391       1.14362944
H       -2.01623418       2.13287577       0.10238916
H       -1.38292305       0.66500643      -1.73512663
H        0.99703819       0.38352662      -2.09731441
H        1.28005497       1.31674157      -0.59370426
H        0.37443001      -1.58455711      -0.95401696
H        1.71243648      -0.13518585       1.38788801
H        1.38486673      -1.85888274       1.33265294
H        3.14281101      -0.53800772      -0.40978955
19
Frame=11 idx=010052 GeodesicLength=1.092504445535821 rxn_smarts="[C:1]([C:2]([C@@:3]1([H:13])[C:4]([H:14])([H:15])[C@:5]1([C:6]([O:7][H:19])([H:17])[H:18])[H:16])([H:11])[H:12])([H:8])([H:9])[H:10]>>[C:1]1([H:9])([H:10])[C:2]([H:11])([H:12])[C:3]1([C:4]([C:5]([C:6]([O:7][H:19])([H:17])[H:18])([H:8])[H:16])([H:14])[H:15])[H:13]"
C       -2.10150138       0.02596069       0.62061471
C       -1.35692441       1.30811789       0.37712122
C       -0.77861981       0.68578648      -0.82558658
C        0.67486038       0.54370398      -1.06977269
C        0.48474438      -0.73701220      -0.26605818
C        1.62249375      -0.98287372       0.71053650
O        2.85481650      -1.29926053       0.09131972
H       -0.79623947      -1.02564122       0.55950860
H       -2.73905958      -0.70074064       0.11983767
H       -2.75866029       0.17528854       1.48700658
H       -0.65161715       1.57130120       1.16148893
H       -1.99972344       2.14923172       0.10984205
H       -1.37458995       0.68659037      -1.73151213
H        0.99162937       0.37396518      -2.09576572
H        1.27746106       1.32218300      -0.60228633
H        0.37933086      -1.58672756      -0.94203303
H        1.73047038      -0.11938504       1.38025982
H        1.39902165      -1.84206810       1.34605664
H        3.14210716      -0.54842005      -0.43057777
19
Frame=12 idx=010052 GeodesicLength=1.1914383214705464 rxn_smarts="[C:1]([C:2]([C@@:3]1([H:13])[C:4]([H:14])([H:15])[C@:5]1([C:6]([O:7][H:19])([H:17])[H:18])[H:16])([H:11])[H:12])([H:8])([H:9])[H:10]>>[C:1]1([H:9])([H:10])[C:2]([H:11])([H:12])[C:3]1([C:4]([C:5]([C:6]([O:7][H:19])([H:17])[H:18])([H:8])[H:16])([H:14])[H:15])[H:13]"
C       -2.10997388       0.02832381       0.59007827
C       -1.35774244       1.31157637       0.38416506
C       -0.78034270       0.67265021      -0.81478850
C        0.67465637       0.54148884      -1.06811614
C        0.48906536      -0.73500025      -0.25903581
C        1.63237199      -0.97327054       0.71222963
O        2.85996235      -1.29996885       0.08850028
H       -0.82881564      -1.05446915       0.57361747
H       -2.76397285      -0.69958294       0.11302572
H       -2.75699655       0.16708162       1.46603821
H       -0.65653940       1.55210675       1.17874603
H       -1.98308951       2.16457938       0.11758018
H       -1.36559095       0.70814631      -1.72741694
H        0.98659904       0.36461939      -2.09435663
H        1.27471616       1.32777928      -0.61108725
H        0.38410138      -1.58884100      -0.93014868
H        1.74792736      -0.10332998       1.37237640
H        1.41255847      -1.82475887       1.35929671
H        3.14110544      -0.55913038      -0.45070399
19
Frame=13 idx=010052 GeodesicLength=1.2903449314548263 rxn_smarts="[C:1]([C:2]([C@@:3]1([H:13])[C:4]([H:14])([H:15])[C@:5]1([C:6]([O:7][H:19])([H:17])[H:18])[H:16])([H:11])[H:12])([H:8])([H:9])[H:10]>>[C:1]1([H:9])([H:10])[C:2]([H:11])([H:12])[C:3]1([C:4]([C:5]([C:6]([O:7][H:19])([H:17])[H:18])([H:8])[H:16])([H:14])[H:15])[H:13]"
C       -2.11771574       0.03060313       0.55986890
C       -1.35846795       1.31432840       0.39102661
C       -0.78195306       0.65961676      -0.80455447
C        0.67457393       0.53947213      -1.06676219
C        0.49361460      -0.73278842      -0.25245312
C        1.64200629      -0.96338493       0.71388716
O        2.86499520      -1.30048932       0.08619764
H       -0.86327707      -1.08358353       0.58704965
H       -2.78854816      -0.69730285       0.10680226
H       -2.75376418       0.15843407       1.44576356
H       -0.66192825       1.53258748       1.19544093
H       -1.96628972       2.17894054       0.12567384
H       -1.35600823       0.72952606      -1.72279040
H        0.98191495       0.35547544      -2.09311223
H        1.27182088       1.33352652      -0.62013860
H        0.38876344      -1.59092041      -0.91833150
H        1.76486067      -0.08700767       1.36423544
H        1.42554657      -1.80694640       1.37236613
H        3.13985582      -0.57008702      -0.47016961
19
Frame=14 idx=010052 GeodesicLength=1.389200031240439 rxn_smarts="[C:1]([C:2]([C@@:3]1([H:13])[C:4]([H:14])([H:15])[C@:5]1([C:6]([O:7][H:19])([H:17])[H:18])[H:16])([H:11])[H:12])([H:8])([H:9])[H:10]>>[C:1]1([H:9])([H:10])[C:2]([H:11])([H:12])[C:3]1([C:4]([C:5]([C:6]([O:7][H:19])([H:17])[H:18])([H:8])[H:16])([H:14])[H:15])[H:13]"
C       -2.12475705       0.03277502       0.53005696
C       -1.35907132       1.31636153       0.39776011
C       -0.78344629       0.64663859      -0.79484167
C        0.67461037       0.53763948      -1.06571800
C        0.49843513      -0.73038453      -0.24630314
C        1.65146688      -0.95319376       0.71550562
O        2.86998383      -1.30077558       0.08438240
H       -0.89977060      -1.11304149       0.59977284
H       -2.81281023      -0.69376110       0.10104062
H       -2.74925050       0.14944888       1.42608048
H       -0.66769538       1.51268546       1.21162581
H       -1.94926859       2.19232946       0.13419637
H       -1.34592097       0.75058743      -1.71758313
H        0.97754409       0.34651741      -2.09205407
H        1.26877581       1.33942147      -0.62946925
H        0.39334948      -1.59298810      -0.90654150
H        1.78133957      -0.07039339       1.35583395
H        1.43807054      -1.78861045       1.38526680
H        3.13841521      -0.58125634      -0.48901119
19
Frame=15 idx=010052 GeodesicLength=1.4879810399897486 rxn_smarts="[C:1]([C:2]([C@@:3]1([H:13])[C:4]([H:14])([H:15])[C@:5]1([C:6]([O:7][H:19])([H:17])[H:18])[H:16])([H:11])[H:12])([H:8])([H:9])[H:10]>>[C:1]1([H:9])([H:10])[C:2]([H:11])([H:12])[C:3]1([C:4]([C:5]([C:6]([O:7][H:19])([H:17])[H:18])([H:8])[H:16])([H:14])[H:15])[H:13]"
C       -2.13112016       0.03481514       0.50071127
C       -1.35952273       1.31766568       0.40442070
C       -0.78482044       0.63366369      -0.78560479
C        0.67475792       0.53597138      -1.06499034
C        0.50356781      -0.72779758      -0.24057465
C        1.66082377      -0.94267315       0.71708070
O        2.87499547      -1.30077944       0.08302435
H       -0.93845954      -1.14289669       0.61175516
H       -2.83677916      -0.68881663       0.09559627
H       -2.74370755       0.14022298       1.40688999
H       -0.67375234       1.49234327       1.22735260
H       -1.93197025       2.20475508       0.14322254
H       -1.33540917       0.77120260      -1.71175366
H        0.97344856       0.33771992      -2.09119990
H        1.26557513       1.34545724      -0.63911259
H        0.39788894      -1.59506944      -0.89472866
H        1.79743096      -0.05346086       1.34716420
H        1.45021817      -1.76972977       1.39799965
H        3.13683464      -0.59259341      -0.50725285
19
Frame=16 idx=010052 GeodesicLength=1.5866667210283991 rxn_smarts="[C:1]([C:2]([C@@:3]1([H:13])[C:4]([H:14])([H:15])[C@:5]1([C:6]([O:7][H:19])([H:17])[H:18])[H:16])([H:11])[H:12])([H:8])([H:9])[H:10]>>[C:1]1([H:9])([H:10])[C:2]([H:11])([H:12])[C:3]1([C:4]([C:5]([C:6]([O:7][H:19])([H:17])[H:18])([H:8])[H:16])([H:14])[H:15])[H:13]"
C       -2.13682234       0.03669615       0.47189695
C       -1.35978542       1.31822977       0.41106563
C       -0.78607251       0.62063738      -0.77679235
C        0.67500758       0.53444528      -1.06458486
C        0.50905425      -0.72503816      -0.23525241
C        1.67014917      -0.93179577       0.71860785
O        2.88009921      -1.30045169       0.08208940
H       -0.97952449      -1.17320774       0.62295909
H       -2.86047829      -0.68233445       0.09032344
H       -2.73739276       0.13086494       1.38809045
H       -0.68001402       1.47149905       1.24267762
H       -1.91433663       2.21621888       0.15282468
H       -1.32454935       0.79125687      -1.70526200
H        0.96958815       0.32905142      -2.09056616
H        1.26220863       1.35162486      -0.64910209
H        0.40241252      -1.59719028      -0.88283733
H        1.81320669      -0.03617742       1.33821535
H        1.46208556      -1.75027736       1.41056766
H        3.13516407      -0.60405173      -0.52492093
