10
Frame=0 idx=004302 GeodesicLength=0.0 rxn_smarts="[O:1]([c:2]1[n:3][c:4]([H:8])[c:5]([H:9])[n:6]1[H:10])[H:7]>>[O:1]([C@@:2]12[N:3]=[C:4]([H:8])[C@:5]1([H:9])[N:6]2[H:10])[H:7]"
O        1.71755231      -0.25535001       0.73114893
C        0.75129339       0.04080826      -0.10925571
N        0.14696615      -1.00381184      -0.89433893
C       -0.97300799      -0.67902199      -0.27103962
C       -0.83873201       0.61243330       0.32607138
N        0.33188336       1.32436068      -0.29024617
H        1.81769236      -1.21580362       0.71258339
H       -1.82535513      -1.34999468      -0.17241378
H       -1.25935676       1.00264021       1.23701522
H        0.13106432       1.52373968      -1.26952472
10
Frame=1 idx=004302 GeodesicLength=0.03958876089904274 rxn_smarts="[O:1]([c:2]1[n:3][c:4]([H:8])[c:5]([H:9])[n:6]1[H:10])[H:7]>>[O:1]([C@@:2]12[N:3]=[C:4]([H:8])[C@:5]1([H:9])[N:6]2[H:10])[H:7]"
O        1.73656390      -0.25158909       0.72320530
C        0.75090127       0.03275085      -0.10103303
N        0.14223658      -1.01208115      -0.87763390
C       -0.98485765      -0.67948586      -0.27083304
C       -0.84125128       0.60913172       0.32989023
N        0.32671679       1.31456684      -0.28584035
H        1.84888207      -1.21040099       0.70400196
H       -1.84390010      -1.34307573      -0.18605771
H       -1.27625804       1.01225277       1.22833332
H        0.14096647       1.52793066      -1.26403278
10
Frame=2 idx=004302 GeodesicLength=0.07895637064274266 rxn_smarts="[O:1]([c:2]1[n:3][c:4]([H:8])[c:5]([H:9])[n:6]1[H:10])[H:7]>>[O:1]([C@@:2]12[N:3]=[C:4]([H:8])[C@:5]1([H:9])[N:6]2[H:10])[H:7]"
O        1.75582315      -0.24772622       0.71455115
C        0.75042323       0.02450150      -0.09226628
N        0.13739065      -1.02057050      -0.86021889
C       -0.99682009      -0.67983371      -0.27076433
C       -0.84387465       0.60571718       0.33390658
N        0.32154780       1.30454133      -0.28126987
H        1.87999270      -1.20478250       0.69481846
H       -1.86213706      -1.33611762      -0.19970478
H       -1.29356655       1.02214957       1.21890381
H        0.15122082       1.53212096      -1.25795585
10
Frame=3 idx=004302 GeodesicLength=0.11812277838746073 rxn_smarts="[O:1]([c:2]1[n:3][c:4]([H:8])[c:5]([H:9])[n:6]1[H:10])[H:7]>>[O:1]([C@@:2]12[N:3]=[C:4]([H:8])[C@:5]1([H:9])[N:6]2[H:10])[H:7]"
O        1.77532209      -0.24377430       0.70513388
C        0.74985641       0.01606700      -0.08290876
N        0.13241478      -1.02925363      -0.84209769
C       -1.00889044      -0.68005056      -0.27088813
C       -0.84662049       0.60218486       0.33811797
N        0.31637691       1.29427164      -0.27648882
H        1.91098679      -1.19895638       0.68499552
H       -1.88000983      -1.32918318      -0.21326648
H       -1.31129640       1.03238257       1.20862754
H        0.16186018       1.53631198      -1.25122502
10
Frame=4 idx=004302 GeodesicLength=0.15701411272961519 rxn_smarts="[O:1]([c:2]1[n:3][c:4]([H:8])[c:5]([H:9])[n:6]1[H:10])[H:7]>>[O:1]([C@@:2]12[N:3]=[C:4]([H:8])[C@:5]1([H:9])[N:6]2[H:10])[H:7]"
O        1.79507170      -0.23978141       0.69470512
C        0.74926008       0.00752680      -0.07310086
N        0.12734627      -1.03798556      -0.82353504
C       -1.02103679      -0.68006552      -0.27142492
C       -0.84948735       0.59858146       0.34244865
N        0.31125060       1.28388892      -0.27151227
H        1.94126402      -1.19312898       0.67493594
H       -1.89719663      -1.32264076      -0.22621906
H       -1.32938935       1.04284692       1.19748925
H        0.17291744       1.54075814      -1.24378681
10
Frame=5 idx=004302 GeodesicLength=0.19563135942501253 rxn_smarts="[O:1]([c:2]1[n:3][c:4]([H:8])[c:5]([H:9])[n:6]1[H:10])[H:7]>>[O:1]([C@@:2]12[N:3]=[C:4]([H:8])[C@:5]1([H:9])[N:6]2[H:10])[H:7]"
O        1.81504953      -0.23568563       0.68322831
C        0.74861505      -0.00113556      -0.06275523
N        0.12217177      -1.04681345      -0.80434992
C       -1.03320606      -0.67991063      -0.27224952
C       -0.85245970       0.59487865       0.34695295
N        0.30612757       1.27333029      -0.26635687
H        1.97098448      -1.18721822       0.66456546
H       -1.91385600      -1.31630093      -0.23886842
H       -1.34776914       1.05350847       1.18546719
H        0.18434250       1.54534699      -1.23563396
10
Frame=6 idx=004302 GeodesicLength=0.23402763965648976 rxn_smarts="[O:1]([c:2]1[n:3][c:4]([H:8])[c:5]([H:9])[n:6]1[H:10])[H:7]>>[O:1]([C@@:2]12[N:3]=[C:4]([H:8])[C@:5]1([H:9])[N:6]2[H:10])[H:7]"
O        1.83530021      -0.23149577       0.67053416
C        0.74796485      -0.00987939      -0.05191502
N        0.11690286      -1.05569711      -0.78464310
C       -1.04538735      -0.67957227      -0.27345924
C       -0.85555768       0.59110757       0.35160377
N        0.30101809       1.26265605      -0.26102325
H        1.99994949      -1.18132302       0.65411560
H       -1.92992674      -1.31031734      -0.25104981
H       -1.36638935       1.06433753       1.17254954
H        0.19612563       1.55018375      -1.22671266
10
Frame=7 idx=004302 GeodesicLength=0.27201395141522977 rxn_smarts="[O:1]([c:2]1[n:3][c:4]([H:8])[c:5]([H:9])[n:6]1[H:10])[H:7]>>[O:1]([C@@:2]12[N:3]=[C:4]([H:8])[C@:5]1([H:9])[N:6]2[H:10])[H:7]"
O        1.85564002      -0.22729208       0.65643238
C        0.74729449      -0.01863923      -0.04066138
N        0.11155695      -1.06443841      -0.76458351
C       -1.05747305      -0.67896593      -0.27519564
C       -0.85873898       0.58724570       0.35631704
N        0.29592531       1.25189891      -0.25552759
H        2.02772009      -1.17555582       0.64385577
H       -1.94508728      -1.30489470      -0.26234342
H       -1.38511770       1.07521242       1.15866170
H        0.20828015       1.55542914      -1.21695535
10
Frame=8 idx=004302 GeodesicLength=0.309747959351198 rxn_smarts="[O:1]([c:2]1[n:3][c:4]([H:8])[c:5]([H:9])[n:6]1[H:10])[H:7]>>[O:1]([C@@:2]12[N:3]=[C:4]([H:8])[C@:5]1([H:9])[N:6]2[H:10])[H:7]"
O        1.87616062      -0.22301307       0.64081426
C        0.74665023      -0.02741846      -0.02898368
N        0.10612164      -1.07311610      -0.74412620
C       -1.06947212      -0.67814225      -0.27741197
C       -0.86202745       0.58333003       0.36111187
N        0.29084617       1.24107038      -0.24989121
H        2.05442546      -1.16990555       0.63392355
H       -1.95954612      -1.29995878      -0.27295395
H       -1.40390298       1.08609522       1.14385928
H        0.22074455       1.56105857      -1.20634195
10
Frame=9 idx=004302 GeodesicLength=0.34724679818300597 rxn_smarts="[O:1]([c:2]1[n:3][c:4]([H:8])[c:5]([H:9])[n:6]1[H:10])[H:7]>>[O:1]([C@@:2]12[N:3]=[C:4]([H:8])[C@:5]1([H:9])[N:6]2[H:10])[H:7]"
O        1.89679073      -0.21867628       0.62362635
C        0.74602654      -0.03623195      -0.01674099
N        0.10061033      -1.08182547      -0.72304003
C       -1.08134613      -0.67719495      -0.27992359
C       -0.86545470       0.57933643       0.36605858
N        0.28575605       1.23013461      -0.24410737
H        2.08037916      -1.16429161       0.62410886
H       -1.97348917      -1.29535569      -0.28320895
H       -1.42279895       1.09709907       1.12805727
H        0.23352614       1.56700586      -1.19483012
10
Frame=10 idx=004302 GeodesicLength=0.38451310751560974 rxn_smarts="[O:1]([c:2]1[n:3][c:4]([H:8])[c:5]([H:9])[n:6]1[H:10])[H:7]>>[O:1]([C@@:2]12[N:3]=[C:4]([H:8])[C@:5]1([H:9])[N:6]2[H:10])[H:7]"
O        1.91735987      -0.21426429       0.60491554
C        0.74539059      -0.04510212      -0.00384743
N        0.09497429      -1.09054198      -0.70116419
C       -1.09303741      -0.67609798      -0.28264856
C       -0.86898303       0.57525882       0.37113667
N        0.28063574       1.21898826      -0.23819705
H        2.10571049      -1.15859310       0.61427958
H       -1.98693487      -1.29088053      -0.29327935
H       -1.44167441       1.10809964       1.11119175
H        0.24655875       1.57313329      -1.18238696
10
Frame=11 idx=004302 GeodesicLength=0.4216003874086156 rxn_smarts="[O:1]([c:2]1[n:3][c:4]([H:8])[c:5]([H:9])[n:6]1[H:10])[H:7]>>[O:1]([C@@:2]12[N:3]=[C:4]([H:8])[C@:5]1([H:9])[N:6]2[H:10])[H:7]"
O        1.93780885      -0.20981669       0.58465383
C        0.74477891      -0.05401629       0.00980776
N        0.08923803      -1.09938799      -0.67835376
C       -1.10455684      -0.67497919      -0.28545971
C       -0.87269307       0.57114396       0.37638197
N        0.27550643       1.20768360      -0.23215951
H        2.13066072      -1.15279035       0.60424698
H       -2.00004861      -1.28655816      -0.30336273
H       -1.46061619       1.11924094       1.09322659
H        0.25992177       1.57948016      -1.16898143
10
Frame=12 idx=004302 GeodesicLength=0.4584779871028876 rxn_smarts="[O:1]([c:2]1[n:3][c:4]([H:8])[c:5]([H:9])[n:6]1[H:10])[H:7]>>[O:1]([C@@:2]12[N:3]=[C:4]([H:8])[C@:5]1([H:9])[N:6]2[H:10])[H:7]"
O        1.95797242      -0.20544770       0.56263386
C        0.74424370      -0.06286817       0.02391343
N        0.08342173      -1.10812719      -0.65500964
C       -1.11582390      -0.67372921      -0.28861631
C       -0.87655502       0.56704778       0.38157734
N        0.27037964       1.19632042      -0.22612611
H        2.15461871      -1.14702746       0.59474408
H       -2.01251042      -1.28266636      -0.31290417
H       -1.47927528       1.13019715       1.07438136
H        0.27352842       1.58630075      -1.15459385
10
Frame=13 idx=004302 GeodesicLength=0.4950675726458168 rxn_smarts="[O:1]([c:2]1[n:3][c:4]([H:8])[c:5]([H:9])[n:6]1[H:10])[H:7]>>[O:1]([C@@:2]12[N:3]=[C:4]([H:8])[C@:5]1([H:9])[N:6]2[H:10])[H:7]"
O        1.97758981      -0.20123194       0.53891312
C        0.74375270      -0.07163639       0.03854545
N        0.07749912      -1.11674156      -0.63100739
C       -1.12676237      -0.67240580      -0.29199178
C       -0.88053791       0.56295552       0.38671467
N        0.26523330       1.18483612      -0.22013820
H        2.17769891      -1.14115848       0.58563273
H       -2.02432021      -1.27908347      -0.32210527
H       -1.49750040       1.14095135       1.05466044
H        0.28734707       1.59351465      -1.13922378
10
Frame=14 idx=004302 GeodesicLength=0.5314613981425667 rxn_smarts="[O:1]([c:2]1[n:3][c:4]([H:8])[c:5]([H:9])[n:6]1[H:10])[H:7]>>[O:1]([C@@:2]12[N:3]=[C:4]([H:8])[C@:5]1([H:9])[N:6]2[H:10])[H:7]"
O        1.99645771      -0.19721717       0.51381147
C        0.74332652      -0.08032089       0.05373132
N        0.07146610      -1.12531635      -0.60620755
C       -1.13738469      -0.67107403      -0.29550510
C       -0.88469793       0.55895425       0.39170258
N        0.26009625       1.17326029      -0.21427564
H        2.20019403      -1.13513870       0.57657229
H       -2.03560294      -1.27578764      -0.33104950
H       -1.51529160       1.15150072       1.03409007
H        0.30143655       1.60113953      -1.12286993
10
Frame=15 idx=004302 GeodesicLength=0.5677065832806938 rxn_smarts="[O:1]([c:2]1[n:3][c:4]([H:8])[c:5]([H:9])[n:6]1[H:10])[H:7]>>[O:1]([C@@:2]12[N:3]=[C:4]([H:8])[C@:5]1([H:9])[N:6]2[H:10])[H:7]"
O        2.01443273      -0.19346399       0.48744482
C        0.74299275      -0.08889682       0.06948644
N        0.06532303      -1.13388664      -0.58048444
C       -1.14765376      -0.66980574      -0.29903599
C       -0.88902668       0.55505918       0.39653965
N        0.25496705       1.16156159      -0.20859541
H        2.22223743      -1.12889660       0.56739510
H       -2.04641336      -1.27270731      -0.33992060
H       -1.53261593       1.16189169       1.01267562
H        0.31575675       1.60914463      -1.10550519
10
Frame=16 idx=004302 GeodesicLength=0.6038205590457613 rxn_smarts="[O:1]([c:2]1[n:3][c:4]([H:8])[c:5]([H:9])[n:6]1[H:10])[H:7]>>[O:1]([C@@:2]12[N:3]=[C:4]([H:8])[C@:5]1([H:9])[N:6]2[H:10])[H:7]"
O        2.03131725      -0.19002878       0.46002420
C        0.74276047      -0.09732182       0.08577933
N        0.05906163      -1.14244634      -0.55374269
C       -1.15752634      -0.66865074      -0.30251130
C       -0.89351027       0.55130354       0.40115383
N        0.24983975       1.14973379      -0.20319921
H        2.24386611      -1.12239348       0.55793927
H       -2.05673857      -1.26981866      -0.34878867
H       -1.54936196       1.17207837       0.99047067
H        0.33029195       1.61754414      -1.08712543
