15
Frame=0 idx=000874 GeodesicLength=0.0 rxn_smarts="[O:1]([C:2]([C:3]([N:4]1[C:5]([H:12])([H:13])[C:6]1([H:14])[H:15])([H:10])[H:11])([H:8])[H:9])[H:7]>>[H:8][H:13].[N:4]1=[C:5]([H:12])[C:6]1([H:14])[H:15].[O:1]([C:2](=[C:3]([H:10])[H:11])[H:9])[H:7]"
O       -1.96712610      -1.10799603       0.54261951
C       -1.19625034      -0.09990139       1.07544756
C       -0.92424478       1.06862495       0.42370103
N        0.94757299       0.96404844      -0.71428550
C        1.73211168       0.02451212      -0.26475507
C        0.99363487      -0.31135014      -1.47039007
H       -2.16236485      -0.90110071      -0.37437298
H        0.26423468      -0.69824609       1.08507282
H       -1.16931381      -0.15806947       2.15705185
H       -1.37252607       1.29057560      -0.53524306
H       -0.53588181       1.90793706       0.97844247
H        2.72522579       0.06014071       0.16053179
H        1.07447199      -0.76466261       0.75825517
H        0.15775040      -1.00330774      -1.35969216
H        1.43270537      -0.27120470      -2.46238337
15
Frame=1 idx=000874 GeodesicLength=0.15548901612340135 rxn_smarts="[O:1]([C:2]([C:3]([N:4]1[C:5]([H:12])([H:13])[C:6]1([H:14])[H:15])([H:10])[H:11])([H:8])[H:9])[H:7]>>[H:8][H:13].[N:4]1=[C:5]([H:12])[C:6]1([H:14])[H:15].[O:1]([C:2](=[C:3]([H:10])[H:11])[H:9])[H:7]"
O       -2.03512640      -1.07981819       0.53643611
C       -1.22998595      -0.10672029       1.08357754
C       -0.91433004       1.05458446       0.43228604
N        0.93335483       0.95765040      -0.73600823
C        1.75210075       0.04663941      -0.28000627
C        1.01364549      -0.32563135      -1.47602998
H       -2.22566183      -0.85311607      -0.37755033
H        0.27691090      -0.69816377       1.09664392
H       -1.22650863      -0.16716851       2.16566274
H       -1.35068608       1.26169495      -0.53596255
H       -0.50351447       1.85751815       1.02627321
H        2.75473032       0.12959407       0.11628103
H        1.11106505      -0.74874361       0.76895914
H        0.20530294      -1.04633508      -1.34666354
H        1.43870311      -0.28198457      -2.47389885
15
Frame=2 idx=000874 GeodesicLength=0.31062220716575784 rxn_smarts="[O:1]([C:2]([C:3]([N:4]1[C:5]([H:12])([H:13])[C:6]1([H:14])[H:15])([H:10])[H:11])([H:8])[H:9])[H:7]>>[H:8][H:13].[N:4]1=[C:5]([H:12])[C:6]1([H:14])[H:15].[O:1]([C:2](=[C:3]([H:10])[H:11])[H:9])[H:7]"
O       -2.10654443      -1.04809522       0.52998506
C       -1.26453589      -0.11468045       1.09091671
C       -0.90428711       1.03824526       0.44115806
N        0.91930628       0.95013500      -0.75673822
C        1.77298650       0.06980459      -0.29576735
C        1.03450954      -0.33980546      -1.48068758
H       -2.29111217      -0.80087380      -0.38058424
H        0.29145968      -0.69885941       1.10905621
H       -1.28509822      -0.17585876       2.17309201
H       -1.32940139       1.23091425      -0.53566920
H       -0.47097573       1.80187540       1.07275046
H        2.78300204       0.20102159       0.06850382
H        1.15040094      -0.73147629       0.78027172
H        0.25634138      -1.08917758      -1.33141380
H        1.44394859      -0.29316912      -2.48487367
15
Frame=3 idx=000874 GeodesicLength=0.4653683553896667 rxn_smarts="[O:1]([C:2]([C:3]([N:4]1[C:5]([H:12])([H:13])[C:6]1([H:14])[H:15])([H:10])[H:11])([H:8])[H:9])[H:7]>>[H:8][H:13].[N:4]1=[C:5]([H:12])[C:6]1([H:14])[H:15].[O:1]([C:2](=[C:3]([H:10])[H:11])[H:9])[H:7]"
O       -2.18153895      -1.01231423       0.52378744
C       -1.29995936      -0.12395806       1.09748949
C       -0.89416057       1.01912862       0.45009882
N        0.90562922       0.94147682      -0.77620932
C        1.79481589       0.09397228      -0.31204483
C        1.05643005      -0.35369064      -1.48441760
H       -2.35885067      -0.74399922      -0.38292114
H        0.30806838      -0.70063970       1.12226537
H       -1.34466921      -0.18392146       2.17937877
H       -1.30864384       1.19781345      -0.53464909
H       -0.43923723       1.74107399       1.11743463
H        2.80971433       0.27406714       0.01737131
H        1.19259891      -0.71309753       0.79193856
H        0.31113740      -1.13138274      -1.31424879
H        1.44866563      -0.30452871      -2.49527362
15
Frame=4 idx=000874 GeodesicLength=0.6197016807158671 rxn_smarts="[O:1]([C:2]([C:3]([N:4]1[C:5]([H:12])([H:13])[C:6]1([H:14])[H:15])([H:10])[H:11])([H:8])[H:9])[H:7]>>[H:8][H:13].[N:4]1=[C:5]([H:12])[C:6]1([H:14])[H:15].[O:1]([C:2](=[C:3]([H:10])[H:11])[H:9])[H:7]"
O       -2.26027805      -0.97183961       0.51844759
C       -1.33640363      -0.13472850       1.10333109
C       -0.88402435       0.99668788       0.45885760
N        0.89249120       0.93163768      -0.79423192
C        1.81760714       0.11914831      -0.32883542
C        1.07967531      -0.36713482      -1.48731702
H       -2.42902276      -0.68199357      -0.38392809
H        0.32686459      -0.70389604       1.13612946
H       -1.40474218      -0.19119394       2.18461044
H       -1.28841356       1.16180147      -0.53323285
H       -0.40925546       1.67525572       1.15992643
H        2.83451985       0.34846796      -0.03683416
H        1.23777194      -0.69380397       0.80372211
H        0.37001294      -1.17254666      -1.29556381
H        1.45319704      -0.31586188      -2.50508143
15
Frame=5 idx=000874 GeodesicLength=0.773570866110239 rxn_smarts="[O:1]([C:2]([C:3]([N:4]1[C:5]([H:12])([H:13])[C:6]1([H:14])[H:15])([H:10])[H:11])([H:8])[H:9])[H:7]>>[H:8][H:13].[N:4]1=[C:5]([H:12])[C:6]1([H:14])[H:15].[O:1]([C:2](=[C:3]([H:10])[H:11])[H:9])[H:7]"
O       -2.34288433      -0.92588490       0.51462631
C       -1.37413765      -0.14712716       1.10848438
C       -0.87398983       0.97032446       0.46715893
N        0.88000399       0.92055346      -0.81069602
C        1.84132238       0.14537932      -0.34612575
C        1.10454513      -0.38001972      -1.48951206
H       -2.50161216      -0.61428422      -0.38296801
H        0.34790499      -0.70906622       1.15044113
H       -1.46480139      -0.19760323       2.18892497
H       -1.26874687       1.12212106      -0.53178455
H       -0.38191388       1.60462122       1.19987740
H        2.85704008       0.42403337      -0.09374751
H        1.28599398      -0.67371694       0.81542277
H        0.43332764      -1.21233361      -1.27580324
H        1.45794790      -0.32699688      -2.51429874
15
Frame=6 idx=000874 GeodesicLength=0.9268991119682761 rxn_smarts="[O:1]([C:2]([C:3]([N:4]1[C:5]([H:12])([H:13])[C:6]1([H:14])[H:15])([H:10])[H:11])([H:8])[H:9])[H:7]>>[H:8][H:13].[N:4]1=[C:5]([H:12])[C:6]1([H:14])[H:15].[O:1]([C:2](=[C:3]([H:10])[H:11])[H:9])[H:7]"
O       -2.42939848      -0.87345666       0.51301897
C       -1.41356699      -0.16122303       1.11299671
C       -0.86421061       0.93938528       0.47471056
N        0.86818497       0.90811457      -0.82559622
C        1.86583506       0.17277614      -0.36389663
C        1.13135807      -0.39227273      -1.49114724
H       -2.57637096      -0.54020105      -0.37944308
H        0.37117439      -0.71663708       1.16493120
H       -1.52431017      -0.20321227       2.19251079
H       -1.24972849       1.07782939      -0.53068795
H       -0.35794330       1.52934885       1.23699416
H        2.87682659       0.50070330      -0.15293274
H        1.33728191      -0.65283545       0.82689301
H        0.50148009      -1.25048260      -1.25541452
H        1.46338792      -0.33783666      -2.52293704
15
Frame=7 idx=000874 GeodesicLength=1.0796047869557663 rxn_smarts="[O:1]([C:2]([C:3]([N:4]1[C:5]([H:12])([H:13])[C:6]1([H:14])[H:15])([H:10])[H:11])([H:8])[H:9])[H:7]>>[H:8][H:13].[N:4]1=[C:5]([H:12])[C:6]1([H:14])[H:15].[O:1]([C:2](=[C:3]([H:10])[H:11])[H:9])[H:7]"
O       -2.51945425      -0.81351748       0.51405227
C       -1.45521755      -0.17704179       1.11688067
C       -0.85484900       0.90316488       0.48129295
N        0.85684903       0.89406678      -0.83910885
C        1.89089315       0.20155693      -0.38219671
C        1.16041431      -0.40397403      -1.49235406
H       -2.65296424      -0.45853012      -0.37278612
H        0.39668468      -0.72706662       1.17935992
H       -1.58294335      -0.20832853       2.19553882
H       -1.23148057       1.02790076      -0.53023038
H       -0.33782186       1.44941318       1.27117077
H        2.89325009       0.57878383      -0.21398078
H        1.39164836      -0.63089437       0.83806899
H        0.57502213      -1.28696483      -1.23469496
H        1.46996906      -0.34856858      -2.53101253
15
Frame=8 idx=000874 GeodesicLength=1.2314886532120348 rxn_smarts="[O:1]([C:2]([C:3]([N:4]1[C:5]([H:12])([H:13])[C:6]1([H:14])[H:15])([H:10])[H:11])([H:8])[H:9])[H:7]>>[H:8][H:13].[N:4]1=[C:5]([H:12])[C:6]1([H:14])[H:15].[O:1]([C:2](=[C:3]([H:10])[H:11])[H:9])[H:7]"
O       -2.61216431      -0.74505320       0.51791015
C       -1.49973798      -0.19441912       1.12018409
C       -0.84608691       0.86094586       0.48676679
N        0.84565237       0.87805485      -0.85146310
C        1.91606036       0.23196377      -0.40111872
C        1.19188361      -0.41525097      -1.49323886
H       -2.73034777      -0.36796150      -0.36261707
H        0.42444370      -0.74075289       1.19357477
H       -1.64065669      -0.21332291       2.19820628
H       -1.21418172       0.97124103      -0.53059346
H       -0.32183780       1.36467880       1.30239783
H        2.90549072       0.65861988      -0.27656635
H        1.44900964      -0.60747408       0.84892285
H        0.65447942      -1.32177410      -1.21382948
H        1.47799336      -0.35949542      -2.53853573
15
Frame=9 idx=000874 GeodesicLength=1.38232028674158 rxn_smarts="[O:1]([C:2]([C:3]([N:4]1[C:5]([H:12])([H:13])[C:6]1([H:14])[H:15])([H:10])[H:11])([H:8])[H:9])[H:7]>>[H:8][H:13].[N:4]1=[C:5]([H:12])[C:6]1([H:14])[H:15].[O:1]([C:2](=[C:3]([H:10])[H:11])[H:9])[H:7]"
O       -2.70637905      -0.66678012       0.52463260
C       -1.54787357      -0.21299910       1.12302116
C       -0.83809368       0.81192679       0.49112189
N        0.83411011       0.85964296      -0.86288411
C        1.94071376       0.26427533      -0.42078477
C        1.22579025      -0.42623792      -1.49385937
H       -2.80645770      -0.26745048      -0.34897746
H        0.45447265      -0.75814969       1.20747063
H       -1.69775169      -0.21852486       2.20075138
H       -1.19804247       0.90667635      -0.53179660
H       -0.31007954       1.27479612       1.33080148
H        2.91252364       0.74062924      -0.34061199
H        1.50918948      -0.58198371       0.85947173
H        0.74033352      -1.35484198      -1.19285262
H        1.48754429      -0.37097892      -2.54550394
15
Frame=10 idx=000874 GeodesicLength=1.5319083983175457 rxn_smarts="[O:1]([C:2]([C:3]([N:4]1[C:5]([H:12])([H:13])[C:6]1([H:14])[H:15])([H:10])[H:11])([H:8])[H:9])[H:7]>>[H:8][H:13].[N:4]1=[C:5]([H:12])[C:6]1([H:14])[H:15].[O:1]([C:2](=[C:3]([H:10])[H:11])[H:9])[H:7]"
O       -2.80123390      -0.57628161       0.53463188
C       -1.60044668      -0.23239975       1.12543103
C       -0.83109961       0.75494927       0.49429267
N        0.82174972       0.83849293      -0.87339826
C        1.96413119       0.29887904      -0.44122676
C        1.26205384      -0.43687004      -1.49412019
H       -2.87839887      -0.15664073      -0.33244158
H        0.48688910      -0.77980455       1.22095663
H       -1.75449359      -0.22439530       2.20334845
H       -1.18331023       0.83252054      -0.53390627
H       -0.30267617       1.17907516       1.35643748
H        2.91336076       0.82496824      -0.40650027
H        1.57194735      -0.55353215       0.86987003
H        0.83303802      -1.38577553      -1.17159132
H        1.49848909      -0.38318552      -2.55178351
15
Frame=11 idx=000874 GeodesicLength=1.679690318285276 rxn_smarts="[O:1]([C:2]([C:3]([N:4]1[C:5]([H:12])([H:13])[C:6]1([H:14])[H:15])([H:10])[H:11])([H:8])[H:9])[H:7]>>[H:8][H:13].[N:4]1=[C:5]([H:12])[C:6]1([H:14])[H:15].[O:1]([C:2](=[C:3]([H:10])[H:11])[H:9])[H:7]"
O       -2.89353868      -0.47233496       0.54706811
C       -1.65823551      -0.25117680       1.12816640
C       -0.82505205       0.68924900       0.49710467
N        0.80767238       0.81414654      -0.88293889
C        1.98506287       0.33586932      -0.46277731
C        1.29983969      -0.44704258      -1.49417324
H       -2.94080557      -0.03738537      -0.31531198
H        0.52185312      -0.80626913       1.23418950
H       -1.81279428      -0.22955956       2.20660435
H       -1.17019289       0.74815412      -0.53593566
H       -0.29904148       1.07668519       1.38024500
H        2.90632376       0.91156674      -0.47432230
H        1.63678111      -0.52168446       0.87984986
H        0.93228953      -1.41402688      -1.15026786
H        1.50983801      -0.39619117      -2.55750067
15
Frame=12 idx=000874 GeodesicLength=1.8254076762729947 rxn_smarts="[O:1]([C:2]([C:3]([N:4]1[C:5]([H:12])([H:13])[C:6]1([H:14])[H:15])([H:10])[H:11])([H:8])[H:9])[H:7]>>[H:8][H:13].[N:4]1=[C:5]([H:12])[C:6]1([H:14])[H:15].[O:1]([C:2](=[C:3]([H:10])[H:11])[H:9])[H:7]"
O       -2.97972465      -0.35422754       0.56036547
C       -1.72177516      -0.26835627       1.13163395
C       -0.81995113       0.61303079       0.50023987
N        0.79089080       0.78601054      -0.89133060
C        2.00218388       0.37569023      -0.48572202
C        1.33852312      -0.45662618      -1.49394229
H       -2.99011122       0.09112163      -0.29866019
H        0.56015124      -0.83834093       1.24734211
H       -1.87465300      -0.23243656       2.21067897
H       -1.15889998       0.65198025      -0.53706925
H       -0.29882303       0.96578688       1.40304776
H        2.88949199       1.00080166      -0.54465142
H        1.70345267      -0.48525073       0.88938098
H        1.03840800      -1.43893437      -1.12878057
H        1.52083648      -0.41024941      -2.56253277
15
Frame=13 idx=000874 GeodesicLength=1.9687919925035255 rxn_smarts="[O:1]([C:2]([C:3]([N:4]1[C:5]([H:12])([H:13])[C:6]1([H:14])[H:15])([H:10])[H:11])([H:8])[H:9])[H:7]>>[H:8][H:13].[N:4]1=[C:5]([H:12])[C:6]1([H:14])[H:15].[O:1]([C:2](=[C:3]([H:10])[H:11])[H:9])[H:7]"
O       -3.05544709      -0.22019924       0.57281283
C       -1.79148405      -0.28146745       1.13718125
C       -0.81558605       0.52437289       0.50536793
N        0.76997262       0.75343500      -0.89802257
C        2.01346018       0.41855815      -0.51025677
C        1.37695088      -0.46507234      -1.49371944
H       -3.01971643       0.22460158      -0.28671824
H        0.60250375      -0.87774655       1.26017050
H       -1.94238040      -0.22834849       2.21649318
H       -1.14954535       0.54306237      -0.53545780
H       -0.30091425       0.84376171       1.42653824
H        2.85997545       1.09292944      -0.61719274
H        1.77123434      -0.44392036       0.89792346
H        1.15087809      -1.45924989      -1.10802238
H        1.53009830      -0.42471682      -2.56709746
15
Frame=14 idx=000874 GeodesicLength=2.1094722695948267 rxn_smarts="[O:1]([C:2]([C:3]([N:4]1[C:5]([H:12])([H:13])[C:6]1([H:14])[H:15])([H:10])[H:11])([H:8])[H:9])[H:7]>>[H:8][H:13].[N:4]1=[C:5]([H:12])[C:6]1([H:14])[H:15].[O:1]([C:2](=[C:3]([H:10])[H:11])[H:9])[H:7]"
O       -3.11504358      -0.07370684       0.57934746
C       -1.86704197      -0.29014928       1.14428659
C       -0.81225808       0.41849572       0.51291361
N        0.74343929       0.71553277      -0.90204760
C        2.01672125       0.46536049      -0.53649056
C        1.41398139      -0.47200997      -1.49285430
H       -3.02581916       0.37083174      -0.27709726
H        0.65122378      -0.92523439       1.27349948
H       -2.01762895      -0.21352034       2.22290120
H       -1.14262316       0.41791698      -0.53059843
H       -0.30606829       0.70654342       1.45134265
H        2.81475788       1.18830711      -0.69318920
H        1.83977681      -0.39486981       0.90588978
H        1.27041991      -1.47359877      -1.08743326
H        1.53616288      -0.43989881      -2.57047015
15
Frame=15 idx=000874 GeodesicLength=2.246720624492302 rxn_smarts="[O:1]([C:2]([C:3]([N:4]1[C:5]([H:12])([H:13])[C:6]1([H:14])[H:15])([H:10])[H:11])([H:8])[H:9])[H:7]>>[H:8][H:13].[N:4]1=[C:5]([H:12])[C:6]1([H:14])[H:15].[O:1]([C:2](=[C:3]([H:10])[H:11])[H:9])[H:7]"
O       -3.15122311       0.08914620       0.57722095
C       -1.94698581      -0.28798706       1.15547920
C       -0.80988506       0.29281967       0.52643688
N        0.70837971       0.67150252      -0.90153449
C        2.00737267       0.51591695      -0.56333587
C        1.44695241      -0.47548413      -1.49217131
H       -2.99636840       0.51398791      -0.28063986
H        0.70661439      -0.98491656       1.28559393
H       -2.09928781      -0.17517355       2.23124591
H       -1.13793319       0.27579745      -0.51896312
H       -0.31214337       0.54883500       1.48078876
H        2.74797349       1.28694432      -0.76875592
H        1.90630166      -0.34006490       0.91209328
H        1.39399695      -1.47910372      -1.07026990
H        1.53623547      -0.45222010      -2.57318844
15
Frame=16 idx=000874 GeodesicLength=2.380826851430495 rxn_smarts="[O:1]([C:2]([C:3]([N:4]1[C:5]([H:12])([H:13])[C:6]1([H:14])[H:15])([H:10])[H:11])([H:8])[H:9])[H:7]>>[H:8][H:13].[N:4]1=[C:5]([H:12])[C:6]1([H:14])[H:15].[O:1]([C:2](=[C:3]([H:10])[H:11])[H:9])[H:7]"
O       -3.15455190       0.26440003       0.55961322
C       -2.02746070      -0.27399337       1.16734143
C       -0.81028197       0.14014716       0.54567789
N        0.66204129       0.62058685      -0.89369554
C        1.98090460       0.57097239      -0.58937277
C        1.47223162      -0.47465167      -1.48970180
H       -2.92225261       0.66152632      -0.29482319
H        0.77115982      -1.05639617       1.29784413
H       -2.18065043      -0.10939952       2.23686334
H       -1.13716582       0.11454447      -0.50115173
H       -0.32210097       0.36379502       1.51517272
H        2.65439578       1.38819193      -0.84387666
H        1.96781659      -0.27483775       0.91853150
H        1.51982683      -1.47307646      -1.05521396
H        1.52608787      -0.46180923      -2.57320858
