12
Frame=0 idx=007447 GeodesicLength=0.0 rxn_smarts="[O:1]([C:2]([c:3]1[n:4][o:5][c:6]([H:11])[c:7]1[H:12])([H:9])[H:10])[H:8]>>[C:6](#[C:7][H:12])[H:11].[O:1]([C:2]([C:3]#[N+:4][O-:5])([H:9])[H:10])[H:8]"
O       -2.21679660      -0.00424089      -1.03383068
C       -1.66715883      -0.06111343       0.25960080
C       -0.28852830       0.46568590       0.33661967
N        0.38083267       1.44783569       0.44426893
O        1.52507312       1.83797076       0.41108619
C        2.37137221      -0.22515826      -0.04806357
C        1.35909597      -0.90401600      -0.06731041
H       -1.62036447      -0.43845263      -1.64792064
H       -2.30853612       0.54436215       0.90103684
H       -1.66802735      -1.08207208       0.65685785
H        3.33364294       0.22947938      -0.06043723
H        0.79939476      -1.81028062      -0.15190775
12
Frame=1 idx=007447 GeodesicLength=0.047896416546499926 rxn_smarts="[O:1]([C:2]([c:3]1[n:4][o:5][c:6]([H:11])[c:7]1[H:12])([H:9])[H:10])[H:8]>>[C:6](#[C:7][H:12])[H:11].[O:1]([C:2]([C:3]#[N+:4][O-:5])([H:9])[H:10])[H:8]"
O       -2.20901417       0.00336830      -1.03060846
C       -1.66784339      -0.06373399       0.26563523
C       -0.28725133       0.45891757       0.35162319
N        0.37012640       1.45555159       0.41332970
O        1.52422716       1.83127137       0.39477920
C        2.35619136      -0.21548911      -0.05746416
C        1.35430905      -0.91519770      -0.04884659
H       -1.59355393      -0.40065885      -1.64706519
H       -2.31164279       0.53497318       0.91102832
H       -1.67332823      -1.08833586       0.65357114
H        3.32222172       0.23215923      -0.05838850
H        0.81555814      -1.83282573      -0.14759387
12
Frame=2 idx=007447 GeodesicLength=0.0961832205669425 rxn_smarts="[O:1]([C:2]([c:3]1[n:4][o:5][c:6]([H:11])[c:7]1[H:12])([H:9])[H:10])[H:8]>>[C:6](#[C:7][H:12])[H:11].[O:1]([C:2]([C:3]#[N+:4][O-:5])([H:9])[H:10])[H:8]"
O       -2.19787837       0.01066388      -1.02877032
C       -1.66826494      -0.06616858       0.27143878
C       -0.28620935       0.45303884       0.36938369
N        0.35965968       1.46139959       0.39017965
O        1.52230573       1.82537754       0.37346697
C        2.34028001      -0.20744240      -0.06248812
C        1.34834928      -0.92591185      -0.03119124
H       -1.56284405      -0.36322039      -1.64493857
H       -2.31629325       0.52566712       0.91898877
H       -1.67903462      -1.09418451       0.65033188
H        3.30909662       0.23506165      -0.06261870
H        0.83083325      -1.85428088      -0.14378279
12
Frame=3 idx=007447 GeodesicLength=0.14499811159585002 rxn_smarts="[O:1]([C:2]([c:3]1[n:4][o:5][c:6]([H:11])[c:7]1[H:12])([H:9])[H:10])[H:8]>>[C:6](#[C:7][H:12])[H:11].[O:1]([C:2]([C:3]#[N+:4][O-:5])([H:9])[H:10])[H:8]"
O       -2.18447979       0.01709151      -1.02760414
C       -1.66830812      -0.06836863       0.27720792
C       -0.28529985       0.44827593       0.38856147
N        0.34927905       1.46643492       0.37205041
O        1.51983007       1.81993259       0.34917309
C        2.32355762      -0.20010538      -0.06692653
C        1.34104528      -0.93566521      -0.01718480
H       -1.52993891      -0.32719031      -1.64115061
H       -2.32184861       0.51666116       0.92546307
H       -1.68450516      -1.09941929       0.64776923
H        3.29517167       0.23718920      -0.06709684
H        0.84549675      -1.87483649      -0.14026225
12
Frame=4 idx=007447 GeodesicLength=0.19442640005776224 rxn_smarts="[O:1]([C:2]([c:3]1[n:4][o:5][c:6]([H:11])[c:7]1[H:12])([H:9])[H:10])[H:8]>>[C:6](#[C:7][H:12])[H:11].[O:1]([C:2]([C:3]#[N+:4][O-:5])([H:9])[H:10])[H:8]"
O       -2.16907335       0.02411841      -1.02809018
C       -1.66823806      -0.07043934       0.28180384
C       -0.28468137       0.44398300       0.40863454
N        0.33886299       1.47049162       0.35948457
O        1.51695052       1.81396608       0.32667431
C        2.30596793      -0.19327844      -0.07169653
C        1.33310993      -0.94528478      -0.00290737
H       -1.49504427      -0.29007609      -1.63721237
H       -2.32843388       0.50730291       0.92992344
H       -1.69032396      -1.10455750       0.64360712
H        3.27974175       0.24003864      -0.08048192
H        0.86116175      -1.89626452      -0.12973944
12
Frame=5 idx=007447 GeodesicLength=0.24473821682289015 rxn_smarts="[O:1]([C:2]([c:3]1[n:4][o:5][c:6]([H:11])[c:7]1[H:12])([H:9])[H:10])[H:8]>>[C:6](#[C:7][H:12])[H:11].[O:1]([C:2]([C:3]#[N+:4][O-:5])([H:9])[H:10])[H:8]"
O       -2.15099668       0.03143907      -1.03027383
C       -1.66801438      -0.07229063       0.28537815
C       -0.28441158       0.44023123       0.43016160
N        0.32842003       1.47403270       0.35242489
O        1.51374949       1.80751321       0.30668573
C        2.28700245      -0.18669245      -0.07869198
C        1.32427391      -0.95460857       0.01122591
H       -1.45735507      -0.25291814      -1.63255920
H       -2.33626625       0.49789794       0.93201877
H       -1.69654012      -1.10939156       0.63828080
H        3.26252715       0.24310590      -0.10179945
H        0.87761106      -1.91831871      -0.11285138
12
Frame=6 idx=007447 GeodesicLength=0.29553646567244735 rxn_smarts="[O:1]([C:2]([c:3]1[n:4][o:5][c:6]([H:11])[c:7]1[H:12])([H:9])[H:10])[H:8]>>[C:6](#[C:7][H:12])[H:11].[O:1]([C:2]([C:3]#[N+:4][O-:5])([H:9])[H:10])[H:8]"
O       -2.13226756       0.03743311      -1.03233742
C       -1.66737419      -0.07391296       0.28894444
C       -0.28416621       0.43749005       0.45118795
N        0.31807341       1.47778925       0.34675131
O        1.51035348       1.80117265       0.28622927
C        2.26767567      -0.18055720      -0.08489572
C        1.31449179      -0.96323486       0.02227273
H       -1.41983589      -0.21746068      -1.62637694
H       -2.34406838       0.48907690       0.93319561
H       -1.70201370      -1.11352618       0.63400834
H        3.24501159       0.24516813      -0.12116888
H        0.89411999      -1.93943820      -0.09781067
12
Frame=7 idx=007447 GeodesicLength=0.3455854737321046 rxn_smarts="[O:1]([C:2]([c:3]1[n:4][o:5][c:6]([H:11])[c:7]1[H:12])([H:9])[H:10])[H:8]>>[C:6](#[C:7][H:12])[H:11].[O:1]([C:2]([C:3]#[N+:4][O-:5])([H:9])[H:10])[H:8]"
O       -2.11825341       0.04585460      -1.03304730
C       -1.66669880      -0.07577490       0.29169698
C       -0.28360207       0.43460754       0.46731565
N        0.30788150       1.48095101       0.33829113
O        1.50674434       1.79468526       0.26331882
C        2.25003105      -0.17505008      -0.08815273
C        1.30620343      -0.97205583       0.03298728
H       -1.39015770      -0.17864761      -1.62087804
H       -2.34968729       0.47839484       0.93702712
H       -1.70588189      -1.11853563       0.62681812
H        3.22902824       0.24674109      -0.13550275
H        0.91439260      -1.96117029      -0.07987428
12
Frame=8 idx=007447 GeodesicLength=0.3959153425820015 rxn_smarts="[O:1]([C:2]([c:3]1[n:4][o:5][c:6]([H:11])[c:7]1[H:12])([H:9])[H:10])[H:8]>>[C:6](#[C:7][H:12])[H:11].[O:1]([C:2]([C:3]#[N+:4][O-:5])([H:9])[H:10])[H:8]"
O       -2.10505915       0.05658037      -1.03441229
C       -1.66611673      -0.07778821       0.29309913
C       -0.28318829       0.43139907       0.48216843
N        0.29777591       1.48345959       0.33209473
O        1.50288223       1.78758207       0.24161137
C        2.23223120      -0.16993895      -0.09225516
C        1.29850146      -0.98119876       0.04509504
H       -1.36256992      -0.13663020      -1.61589420
H       -2.35514943       0.46621472       0.94074671
H       -1.70953086      -1.12419567       0.61632474
H        3.21227611       0.24841439      -0.15489292
H        0.93794746      -1.98389842      -0.05368556
12
Frame=9 idx=007447 GeodesicLength=0.44742980257865683 rxn_smarts="[O:1]([C:2]([c:3]1[n:4][o:5][c:6]([H:11])[c:7]1[H:12])([H:9])[H:10])[H:8]>>[C:6](#[C:7][H:12])[H:11].[O:1]([C:2]([C:3]#[N+:4][O-:5])([H:9])[H:10])[H:8]"
O       -2.08774462       0.06736141      -1.03784752
C       -1.66539264      -0.07962290       0.29347843
C       -0.28333131       0.42843381       0.49987363
N        0.28769966       1.48593380       0.33234165
O        1.49866992       1.77993716       0.22367790
C        2.21217208      -0.16504422      -0.10005491
C        1.28967215      -0.99028728       0.05836300
H       -1.33010220      -0.09503977      -1.60971605
H       -2.36246245       0.45418030       0.94112516
H       -1.71395327      -1.12948644       0.60477217
H        3.19240757       0.24995286      -0.18494683
H        0.96236511      -2.00631872      -0.02106664
12
Frame=10 idx=007447 GeodesicLength=0.5004401154789397 rxn_smarts="[O:1]([C:2]([c:3]1[n:4][o:5][c:6]([H:11])[c:7]1[H:12])([H:9])[H:10])[H:8]>>[C:6](#[C:7][H:12])[H:11].[O:1]([C:2]([C:3]#[N+:4][O-:5])([H:9])[H:10])[H:8]"
O       -2.06747152       0.08083694      -1.04359628
C       -1.66465711      -0.08168002       0.29172968
C       -0.28415387       0.42475557       0.51952564
N        0.27772253       1.48776638       0.33972927
O        1.49398628       1.77126836       0.20999550
C        2.18942456      -0.16070455      -0.11295005
C        1.28114528      -1.00004651       0.07688154
H       -1.29437364      -0.04931849      -1.60347696
H       -2.37122746       0.44042511       0.93871354
H       -1.71894285      -1.13549521       0.58859061
H        3.16796381       0.25143009      -0.23022314
H        0.99058399      -2.02923768       0.02508064
12
Frame=11 idx=007447 GeodesicLength=0.5540381176510015 rxn_smarts="[O:1]([C:2]([c:3]1[n:4][o:5][c:6]([H:11])[c:7]1[H:12])([H:9])[H:10])[H:8]>>[C:6](#[C:7][H:12])[H:11].[O:1]([C:2]([C:3]#[N+:4][O-:5])([H:9])[H:10])[H:8]"
O       -2.04670722       0.09563583      -1.04960465
C       -1.66369312      -0.08377775       0.28917039
C       -0.28515483       0.42097874       0.53894730
N        0.26802475       1.48944696       0.34923084
O        1.48889362       1.76221451       0.19595320
C        2.16583613      -0.15720450      -0.12589808
C        1.27290601      -1.00995119       0.09654916
H       -1.25913769      -0.00256921      -1.59630124
H       -2.37999816       0.42579147       0.93558415
H       -1.72332188      -1.14166285       0.57040552
H        3.14128412       0.25178951      -0.27835634
H        1.02106826      -2.05069152       0.07431975
12
Frame=12 idx=007447 GeodesicLength=0.6094753429981187 rxn_smarts="[O:1]([C:2]([c:3]1[n:4][o:5][c:6]([H:11])[c:7]1[H:12])([H:9])[H:10])[H:8]>>[C:6](#[C:7][H:12])[H:11].[O:1]([C:2]([C:3]#[N+:4][O-:5])([H:9])[H:10])[H:8]"
O       -2.02245506       0.10982039      -1.05637376
C       -1.66224255      -0.08556494       0.28627804
C       -0.28646709       0.41753750       0.56036248
N        0.25861621       1.49137709       0.36278236
O        1.48352044       1.75276536       0.18453204
C        2.13955617      -0.15407539      -0.14302898
C        1.26248498      -1.01945043       0.11078508
H       -1.22031620       0.04183884      -1.58687428
H       -2.38965430       0.41192254       0.92981205
H       -1.72770422      -1.14706426       0.55246384
H        3.11135411       0.25090995      -0.32878329
H        1.05330750      -2.07001664       0.12804443
12
Frame=13 idx=007447 GeodesicLength=0.6643075550754979 rxn_smarts="[O:1]([C:2]([c:3]1[n:4][o:5][c:6]([H:11])[c:7]1[H:12])([H:9])[H:10])[H:8]>>[C:6](#[C:7][H:12])[H:11].[O:1]([C:2]([C:3]#[N+:4][O-:5])([H:9])[H:10])[H:8]"
O       -2.00176824       0.12747088      -1.06240070
C       -1.66084993      -0.08774277       0.28201100
C       -0.28774148       0.41328916       0.57849119
N        0.24973557       1.49247328       0.37513996
O        1.47767274       1.74257611       0.16960713
C        2.11433155      -0.15261864      -0.15599031
C        1.25539652      -1.02992370       0.13353818
H       -1.18744447       0.09150068      -1.57786906
H       -2.39790215       0.39540660       0.92558214
H       -1.73056116      -1.15344515       0.52991756
H        3.07989046       0.24851297      -0.38086048
H        1.08924060      -2.08749943       0.18283339
12
Frame=14 idx=007447 GeodesicLength=0.7202818438651042 rxn_smarts="[O:1]([C:2]([c:3]1[n:4][o:5][c:6]([H:11])[c:7]1[H:12])([H:9])[H:10])[H:8]>>[C:6](#[C:7][H:12])[H:11].[O:1]([C:2]([C:3]#[N+:4][O-:5])([H:9])[H:10])[H:8]"
O       -1.97836705       0.14293513      -1.06851370
C       -1.65895966      -0.08945100       0.27809897
C       -0.28914355       0.40971094       0.59783903
N        0.24118861       1.49400230       0.38901373
O        1.47171838       1.73224449       0.15666258
C        2.08739983      -0.15146011      -0.17061692
C        1.24626420      -1.03992944       0.15061281
H       -1.15205332       0.13658880      -1.56647125
H       -2.40658545       0.38076354       0.91915270
H       -1.73329170      -1.15856295       0.50973951
H        3.04642031       0.24492643      -0.43104012
H        1.12540940      -2.10176813       0.23552267
12
Frame=15 idx=007447 GeodesicLength=0.7762509260678494 rxn_smarts="[O:1]([C:2]([c:3]1[n:4][o:5][c:6]([H:11])[c:7]1[H:12])([H:9])[H:10])[H:8]>>[C:6](#[C:7][H:12])[H:11].[O:1]([C:2]([C:3]#[N+:4][O-:5])([H:9])[H:10])[H:8]"
O       -1.95622965       0.15951966      -1.07411998
C       -1.65696118      -0.09112464       0.27362604
C       -0.29052413       0.40595731       0.61561013
N        0.23312998       1.49523495       0.40230971
O        1.46551966       1.72142366       0.14254762
C        2.06073061      -0.15136201      -0.18321056
C        1.23834673      -1.05021780       0.17003458
H       -1.11943431       0.18247344      -1.55445287
H       -2.41456927       0.36547807       0.91290812
H       -1.73508401      -1.16362784       0.48804665
H        3.01156655       0.23988680      -0.48050682
H        1.16350902      -2.11364159       0.28720738
12
Frame=16 idx=007447 GeodesicLength=0.8326456422557104 rxn_smarts="[O:1]([C:2]([c:3]1[n:4][o:5][c:6]([H:11])[c:7]1[H:12])([H:9])[H:10])[H:8]>>[C:6](#[C:7][H:12])[H:11].[O:1]([C:2]([C:3]#[N+:4][O-:5])([H:9])[H:10])[H:8]"
O       -1.93370610       0.17553474      -1.07944810
C       -1.65472302      -0.09253918       0.26908216
C       -0.29191590       0.40240453       0.63293705
N        0.22548842       1.49648088       0.41554218
O        1.45933369       1.71028165       0.12921727
C        2.03364088      -0.15185742      -0.19534473
C        1.23023107      -1.06047309       0.18816910
H       -1.08733476       0.22625248      -1.54122273
H       -2.42230065       0.35089703       0.90584521
H       -1.73642858      -1.16804251       0.46687939
H        2.97533259       0.23373601      -0.52847445
H        1.20238235      -2.12267511       0.33681764
