12
Frame=0 idx=004348 GeodesicLength=0.0 rxn_smarts="[C:1](#[C:2][C:3]([C:4]([C:5]#[C:6][H:12])([H:10])[H:11])([H:8])[H:9])[H:7]>>[C:1](#[C:2][C:3]([C:4](=[C:5]=[C:6]([H:10])[H:12])[H:11])([H:8])[H:9])[H:7]"
C        2.97976390      -0.42813610       0.51160936
C        1.81306968      -0.18340211       0.61538093
C        0.38717533       0.11248089       0.71174388
C       -0.29150456       0.12764236      -0.63497950
C       -1.65917408       0.06908132      -0.75859732
C       -2.89351781       0.05830899      -0.35035601
H        4.01821684      -0.64615079       0.42626395
H        0.25156773       1.07671890       1.21213968
H       -0.11501048      -0.62783342       1.34294330
H       -1.37998726       1.04712827      -1.34873828
H        0.32612247       0.26910890      -1.51382945
H       -3.43672176      -0.87494719      -0.21358059
12
Frame=1 idx=004348 GeodesicLength=0.09443584226707605 rxn_smarts="[C:1](#[C:2][C:3]([C:4]([C:5]#[C:6][H:12])([H:10])[H:11])([H:8])[H:9])[H:7]>>[C:1](#[C:2][C:3]([C:4](=[C:5]=[C:6]([H:10])[H:12])[H:11])([H:8])[H:9])[H:7]"
C        2.99836235      -0.36958786       0.50196776
C        1.82403503      -0.16846442       0.61366210
C        0.38798588       0.07209956       0.71157100
C       -0.29073898       0.09934754      -0.63513490
C       -1.65788018       0.03181460      -0.76074384
C       -2.88517985       0.12210295      -0.35013643
H        4.04392863      -0.55987471       0.44033032
H        0.21569396       1.01720917       1.23628902
H       -0.08681988      -0.70179496       1.32330948
H       -1.36847829       1.04091359      -1.35010790
H        0.32615868       0.17533217      -1.52258121
H       -3.50706736      -0.75909763      -0.20842540
12
Frame=2 idx=004348 GeodesicLength=0.18867951139250044 rxn_smarts="[C:1](#[C:2][C:3]([C:4]([C:5]#[C:6][H:12])([H:10])[H:11])([H:8])[H:9])[H:7]>>[C:1](#[C:2][C:3]([C:4](=[C:5]=[C:6]([H:10])[H:12])[H:11])([H:8])[H:9])[H:7]"
C        3.01147856      -0.31142724       0.49861860
C        1.83070574      -0.15603846       0.61581667
C        0.38654967       0.02990339       0.71261134
C       -0.29020833       0.07072905      -0.63514248
C       -1.65729399      -0.00133600      -0.76275366
C       -2.87369980       0.18490741      -0.36083881
H        4.06298168      -0.46751369       0.44189229
H        0.17853426       0.95363345       1.26160338
H       -0.06091861      -0.77633237       1.30269687
H       -1.35226821       1.03684695      -1.35437311
H        0.32509103       0.07705469      -1.52707274
H       -3.56095199      -0.64042718      -0.19305835
12
Frame=3 idx=004348 GeodesicLength=0.28313286589519027 rxn_smarts="[C:1](#[C:2][C:3]([C:4]([C:5]#[C:6][H:12])([H:10])[H:11])([H:8])[H:9])[H:7]>>[C:1](#[C:2][C:3]([C:4](=[C:5]=[C:6]([H:10])[H:12])[H:11])([H:8])[H:9])[H:7]"
C        3.02239153      -0.25418240       0.49519322
C        1.83718716      -0.14309432       0.61836948
C        0.38730854      -0.01031104       0.71656002
C       -0.29083993       0.04009852      -0.63082501
C       -1.65871400      -0.03363736      -0.75472585
C       -2.85894949       0.24400631      -0.36578529
H        4.07822519      -0.37451182       0.43239848
H        0.14667943       0.89220446       1.28679762
H       -0.03095957      -0.84512293       1.28790136
H       -1.33599373       1.03081850      -1.35508886
H        0.31835228      -0.02669140      -1.52475068
H       -3.61468741      -0.51957652      -0.20604450
12
Frame=4 idx=004348 GeodesicLength=0.37714236201618573 rxn_smarts="[C:1](#[C:2][C:3]([C:4]([C:5]#[C:6][H:12])([H:10])[H:11])([H:8])[H:9])[H:7]>>[C:1](#[C:2][C:3]([C:4](=[C:5]=[C:6]([H:10])[H:12])[H:11])([H:8])[H:9])[H:7]"
C        3.02796744      -0.19954678       0.49532744
C        1.83962677      -0.13287471       0.62073809
C        0.38593366      -0.05132230       0.71843157
C       -0.29187618       0.01062589      -0.62951700
C       -1.66085682      -0.06270036      -0.74975363
C       -2.84176120       0.30040088      -0.38133678
H        4.08709477      -0.27973401       0.42464741
H        0.11430183       0.82829810       1.30981190
H       -0.00374883      -0.91322853       1.26922387
H       -1.31682831       1.02874059      -1.35859434
H        0.30965058      -0.12753226      -1.52085363
H       -3.64950372      -0.40112652      -0.19812490
12
Frame=5 idx=004348 GeodesicLength=0.47122684530460257 rxn_smarts="[C:1](#[C:2][C:3]([C:4]([C:5]#[C:6][H:12])([H:10])[H:11])([H:8])[H:9])[H:7]>>[C:1](#[C:2][C:3]([C:4](=[C:5]=[C:6]([H:10])[H:12])[H:11])([H:8])[H:9])[H:7]"
C        3.03239749      -0.14676821       0.49099428
C        1.84280907      -0.12186812       0.62019370
C        0.38744820      -0.08932185       0.72171779
C       -0.29456135      -0.01978660      -0.62483387
C       -1.66528460      -0.09209848      -0.73519100
C       -2.82258620       0.35079595      -0.38885876
H        4.09328860      -0.19015107       0.41499187
H        0.08876775       0.76833454       1.33168962
H        0.02798751      -0.97459929       1.25555899
H       -1.30001823       1.02589406      -1.35650828
H        0.29478928      -0.22614439      -1.51161200
H       -3.68503753      -0.28428656      -0.21814233
12
Frame=6 idx=004348 GeodesicLength=0.5648308646729049 rxn_smarts="[C:1](#[C:2][C:3]([C:4]([C:5]#[C:6][H:12])([H:10])[H:11])([H:8])[H:9])[H:7]>>[C:1](#[C:2][C:3]([C:4](=[C:5]=[C:6]([H:10])[H:12])[H:11])([H:8])[H:9])[H:7]"
C        3.03218555      -0.09843560       0.49196784
C        1.84238764      -0.11231075       0.62122377
C        0.38676778      -0.12563313       0.72383020
C       -0.29704357      -0.04838558      -0.62263720
C       -1.66948059      -0.12004641      -0.72457885
C       -2.80155877       0.39567711      -0.40625743
H        4.09287840      -0.10449728       0.40252153
H        0.06269898       0.71009132       1.35070321
H        0.05578153      -1.03184675       1.24049205
H       -1.28066322       1.02690586      -1.35616044
H        0.28018440      -0.31703104      -1.50124762
H       -3.70413814      -0.17448773      -0.21985706
12
Frame=7 idx=004348 GeodesicLength=0.6583031662138319 rxn_smarts="[C:1](#[C:2][C:3]([C:4]([C:5]#[C:6][H:12])([H:10])[H:11])([H:8])[H:9])[H:7]>>[C:1](#[C:2][C:3]([C:4](=[C:5]=[C:6]([H:10])[H:12])[H:11])([H:8])[H:9])[H:7]"
C        3.03036878      -0.05337024       0.49053432
C        1.84164006      -0.10469771       0.62052207
C        0.38722063      -0.16033537       0.72647428
C       -0.30064772      -0.07662201      -0.61895442
C       -1.67510159      -0.14703219      -0.70885157
C       -2.77971172       0.43614457      -0.42210950
H        4.08944485      -0.02036868       0.38887046
H        0.04132421       0.65445053       1.36870610
H        0.08433911      -1.08457155       1.22803295
H       -1.26146021       1.02972096      -1.35219165
H        0.26174544      -0.40502466      -1.48747647
H       -3.71916185      -0.06829366      -0.23355657
12
Frame=8 idx=004348 GeodesicLength=0.7514303200259103 rxn_smarts="[C:1](#[C:2][C:3]([C:4]([C:5]#[C:6][H:12])([H:10])[H:11])([H:8])[H:9])[H:7]>>[C:1](#[C:2][C:3]([C:4](=[C:5]=[C:6]([H:10])[H:12])[H:11])([H:8])[H:9])[H:7]"
C        3.02651053      -0.01277979       0.48931970
C        1.83967642      -0.09753301       0.61948627
C        0.38745674      -0.19202893       0.72883378
C       -0.30469623      -0.10263636      -0.61557879
C       -1.68114765      -0.17330730      -0.69228722
C       -2.75782518       0.47030785      -0.44190924
H        4.08244584       0.05695835       0.37455255
H        0.02229400       0.60295411       1.38471743
H        0.11141360      -1.13172661       1.21676804
H       -1.24204804       1.03591647      -1.34629225
H        0.24227109      -0.48574631      -1.47217781
H       -3.72635111       0.02962153      -0.24543245
12
Frame=9 idx=004348 GeodesicLength=0.8442053668291442 rxn_smarts="[C:1](#[C:2][C:3]([C:4]([C:5]#[C:6][H:12])([H:10])[H:11])([H:8])[H:9])[H:7]>>[C:1](#[C:2][C:3]([C:4](=[C:5]=[C:6]([H:10])[H:12])[H:11])([H:8])[H:9])[H:7]"
C        3.02095064       0.02360433       0.49036427
C        1.83624005      -0.08989298       0.61832116
C        0.38694704      -0.22041956       0.73019863
C       -0.30893214      -0.12616541      -0.61361968
C       -1.68727511      -0.19963055      -0.67694648
C       -2.73613655       0.49738633      -0.46710620
H        4.07244552       0.12603100       0.36043743
H        0.00420763       0.55588337       1.39798030
H        0.13636951      -1.17337232       1.20581618
H       -1.22242722       1.04569199      -1.33928346
H        0.22304724      -0.55844602      -1.45692169
H       -3.72543661       0.11932982      -0.24924046
12
Frame=10 idx=004348 GeodesicLength=0.9367544230464617 rxn_smarts="[C:1](#[C:2][C:3]([C:4]([C:5]#[C:6][H:12])([H:10])[H:11])([H:8])[H:9])[H:7]>>[C:1](#[C:2][C:3]([C:4](=[C:5]=[C:6]([H:10])[H:12])[H:11])([H:8])[H:9])[H:7]"
C        3.01488772       0.05868149       0.48981419
C        1.83267830      -0.08006603       0.61639306
C        0.38713369      -0.24510453       0.73201391
C       -0.31397338      -0.14701102      -0.61057763
C       -1.69409738      -0.22630561      -0.65828446
C       -2.71578256       0.51722233      -0.49321009
H        4.06211844       0.18253751       0.34501526
H       -0.01128018       0.51321245       1.41086013
H        0.16207454      -1.20965448       1.19669962
H       -1.20434639       1.05889415      -1.32761149
H        0.20298037      -0.62317299      -1.44030068
H       -3.72239316       0.20076675      -0.26081182
12
Frame=11 idx=004348 GeodesicLength=1.0291213269288262 rxn_smarts="[C:1](#[C:2][C:3]([C:4]([C:5]#[C:6][H:12])([H:10])[H:11])([H:8])[H:9])[H:7]>>[C:1](#[C:2][C:3]([C:4](=[C:5]=[C:6]([H:10])[H:12])[H:11])([H:8])[H:9])[H:7]"
C        3.00784036       0.09075238       0.48739674
C        1.82831366      -0.07039757       0.61283825
C        0.38709525      -0.26780417       0.73271543
C       -0.31994691      -0.16670896      -0.60841229
C       -1.70173744      -0.25344643      -0.63890105
C       -2.69649625       0.53109153      -0.52494460
H        4.05125396       0.23515034       0.33435766
H       -0.02515224       0.47348256       1.42170078
H        0.18690113      -1.24229221       1.18776702
H       -1.18608832       1.07488339      -1.31392671
H        0.18200312      -0.68339261      -1.42385938
H       -3.71398632       0.27868175      -0.26673184
12
Frame=12 idx=004348 GeodesicLength=1.1214047445059272 rxn_smarts="[C:1](#[C:2][C:3]([C:4]([C:5]#[C:6][H:12])([H:10])[H:11])([H:8])[H:9])[H:7]>>[C:1](#[C:2][C:3]([C:4](=[C:5]=[C:6]([H:10])[H:12])[H:11])([H:8])[H:9])[H:7]"
C        3.00111304       0.11995622       0.48226218
C        1.82464240      -0.06148060       0.60911604
C        0.38834985      -0.28912136       0.73559504
C       -0.32715093      -0.18480884      -0.60278020
C       -1.71047724      -0.27976468      -0.61238003
C       -2.67812113       0.54055524      -0.55669051
H        4.03967724       0.28400087       0.31657524
H       -0.03495200       0.43563109       1.43505822
H        0.21288286      -1.27237611       1.18174793
H       -1.16781457       1.09492892      -1.29218488
H        0.15873191      -0.73888379      -1.40422881
H       -3.70688143       0.35136303      -0.29209022
12
Frame=13 idx=004348 GeodesicLength=1.2134967793796487 rxn_smarts="[C:1](#[C:2][C:3]([C:4]([C:5]#[C:6][H:12])([H:10])[H:11])([H:8])[H:9])[H:7]>>[C:1](#[C:2][C:3]([C:4](=[C:5]=[C:6]([H:10])[H:12])[H:11])([H:8])[H:9])[H:7]"
C        2.99383874       0.14819577       0.47493221
C        1.82032633      -0.05031293       0.60397993
C        0.38951369      -0.30722380       0.73776347
C       -0.33553139      -0.20036683      -0.59737833
C       -1.71996684      -0.30710823      -0.58389794
C       -2.66209289       0.54094076      -0.59726605
H        4.02960882       0.32243191       0.30235888
H       -0.04341143       0.40145618       1.44740940
H        0.23887464      -1.29812004       1.17587670
H       -1.15116122       1.11904361      -1.26545571
H        0.13515614      -0.78823014      -1.38470945
H       -3.69515459       0.41929375      -0.31361311
12
Frame=14 idx=004348 GeodesicLength=1.3054648692957633 rxn_smarts="[C:1](#[C:2][C:3]([C:4]([C:5]#[C:6][H:12])([H:10])[H:11])([H:8])[H:9])[H:7]>>[C:1](#[C:2][C:3]([C:4](=[C:5]=[C:6]([H:10])[H:12])[H:11])([H:8])[H:9])[H:7]"
C        2.98678080       0.17882807       0.45876497
C        1.81687145      -0.03685594       0.59306443
C        0.39258825      -0.32258002       0.73898394
C       -0.34696491      -0.21409149      -0.59030757
C       -1.73201842      -0.33449112      -0.54728541
C       -2.64796579       0.53430974      -0.63851950
H        4.02520053       0.34877764       0.29844182
H       -0.04677488       0.37022771       1.45994941
H        0.26834803      -1.32015694       1.17004536
H       -1.13860162       1.14713494      -1.22988467
H        0.10697642      -0.83314849      -1.36452763
H       -3.68443986       0.48204589      -0.34872513
12
Frame=15 idx=004348 GeodesicLength=1.397503056401977 rxn_smarts="[C:1](#[C:2][C:3]([C:4]([C:5]#[C:6][H:12])([H:10])[H:11])([H:8])[H:9])[H:7]>>[C:1](#[C:2][C:3]([C:4](=[C:5]=[C:6]([H:10])[H:12])[H:11])([H:8])[H:9])[H:7]"
C        2.98025670       0.20622532       0.43467355
C        1.81418396      -0.02381376       0.57847278
C        0.39712250      -0.33622303       0.74073609
C       -0.36129273      -0.22566380      -0.58013946
C       -1.74622444      -0.36058902      -0.50132449
C       -2.63498109       0.51888258      -0.68740693
H        4.02282316       0.37109093       0.29778352
H       -0.04467741       0.34118950       1.47443175
H        0.29953395      -1.33956864       1.16513544
H       -1.12923467       1.18075231      -1.18202441
H        0.07447300      -0.87370040      -1.34215084
H       -3.67198293       0.54141801      -0.39818699
12
Frame=16 idx=004348 GeodesicLength=1.4893883734927118 rxn_smarts="[C:1](#[C:2][C:3]([C:4]([C:5]#[C:6][H:12])([H:10])[H:11])([H:8])[H:9])[H:7]>>[C:1](#[C:2][C:3]([C:4](=[C:5]=[C:6]([H:10])[H:12])[H:11])([H:8])[H:9])[H:7]"
C        2.97483813       0.22870167       0.40219032
C        1.81267467      -0.01203516       0.55994482
C        0.40356313      -0.34837184       0.74374431
C       -0.37899055      -0.23416138      -0.56529607
C       -1.76297709      -0.38238874      -0.44349640
C       -2.61980133       0.49795648      -0.73691900
H        4.02161238       0.39003980       0.29669758
H       -0.03569490       0.31411619       1.49216351
H        0.33235431      -1.35683171       1.16114598
H       -1.12410857       1.22112856      -1.11890575
H        0.03599875      -0.90969222      -1.31620297
H       -3.65946892       0.59153836      -0.47506633
