19
Frame=0 idx=010056 GeodesicLength=0.0 rxn_smarts="[C:1]([C:2]([C@@:3]1([H:13])[C:4]([H:14])([H:15])[C@:5]1([C:6]([O:7][H:19])([H:17])[H:18])[H:16])([H:11])[H:12])([H:8])([H:9])[H:10]>>[C:1]([C:2]([C@@:3]([C:4]([C:5](=[C:6]([H:17])[H:18])[H:16])([H:14])[H:15])([O:7][H:19])[H:13])([H:11])[H:12])([H:8])([H:9])[H:10]"
C       -2.11362782       0.69755670       1.07184709
C       -0.88874613       1.14885203       0.29265163
C       -0.30008996       0.16042745      -0.65652685
C        0.95299756       0.40318082      -1.38057139
C        1.69288173      -0.90634981      -1.16728797
C        1.73070912      -1.27921392       0.21282705
O        0.25644977      -1.22361405       0.72141399
H       -2.87629335       0.29358058       0.40298277
H       -2.55716031       1.53213881       1.61677480
H       -1.86655323      -0.08319011       1.79244834
H       -0.11161517       1.53586621       0.95575166
H       -1.16197098       1.99824326      -0.35269123
H       -0.98862053      -0.53015605      -1.12963189
H        0.75004233       0.54157988      -2.44512438
H        1.48119717       1.28592178      -1.00489912
H        1.45849252      -1.69767062      -1.87404794
H        2.09337133      -2.28978286       0.39543713
H        2.23320426      -0.56432885       0.87736294
H        0.21533178      -1.02304123       1.67128343
19
Frame=1 idx=010056 GeodesicLength=0.12647707444304232 rxn_smarts="[C:1]([C:2]([C@@:3]1([H:13])[C:4]([H:14])([H:15])[C@:5]1([C:6]([O:7][H:19])([H:17])[H:18])[H:16])([H:11])[H:12])([H:8])([H:9])[H:10]>>[C:1]([C:2]([C@@:3]([C:4]([C:5](=[C:6]([H:17])[H:18])[H:16])([H:14])[H:15])([O:7][H:19])[H:13])([H:11])[H:12])([H:8])([H:9])[H:10]"
C       -2.14232034       0.69615632       1.05245552
C       -0.91665875       1.15631482       0.27941529
C       -0.29207495       0.15406642      -0.63412655
C        0.96250017       0.41702013      -1.35126724
C        1.65820517      -0.91742767      -1.17133277
C        1.75809323      -1.32145503       0.19368144
O        0.29808320      -1.18841089       0.78817613
H       -2.89106761       0.27002760       0.38143620
H       -2.60679849       1.53057586       1.58010211
H       -1.89279305      -0.07007036       1.78762054
H       -0.15846351       1.57524726       0.94506055
H       -1.19861484       1.98633144      -0.38649241
H       -0.97834180      -0.53250202      -1.11793027
H        0.76670808       0.59140060      -2.41173971
H        1.49845935       1.28045679      -0.94507684
H        1.40649281      -1.68892119      -1.89311746
H        2.05823112      -2.35802509       0.34361885
H        2.34974387      -0.65950812       0.83848015
H        0.32061635      -0.92127687       1.72103648
19
Frame=2 idx=010056 GeodesicLength=0.24578402710960662 rxn_smarts="[C:1]([C:2]([C@@:3]1([H:13])[C:4]([H:14])([H:15])[C@:5]1([C:6]([O:7][H:19])([H:17])[H:18])[H:16])([H:11])[H:12])([H:8])([H:9])[H:10]>>[C:1]([C:2]([C@@:3]([C:4]([C:5](=[C:6]([H:17])[H:18])[H:16])([H:14])[H:15])([O:7][H:19])[H:13])([H:11])[H:12])([H:8])([H:9])[H:10]"
C       -2.16818876       0.69287317       1.03425870
C       -0.94260149       1.16202517       0.26650039
C       -0.28488595       0.14833457      -0.61293863
C        0.97171040       0.43007156      -1.32235449
C        1.62490470      -0.92542689      -1.17091128
C        1.78038672      -1.36157717       0.17583651
O        0.34141982      -1.15053607       0.85276343
H       -2.90401385       0.24669578       0.36179171
H       -2.65180761       1.52603354       1.54642167
H       -1.91634162      -0.06016673       1.78198441
H       -0.20273295       1.61076318       0.93336216
H       -1.23254493       1.97325058      -0.41816733
H       -0.96904749      -0.53342380      -1.10804034
H        0.78406752       0.63650414      -2.37829986
H        1.51372535       1.27488297      -0.88800456
H        1.36050081      -1.67703316      -1.90821339
H        2.01397560      -2.41881435       0.29971317
H        2.45360100      -0.75641236       0.79493789
H        0.42787274      -0.81804411       1.75935984
19
Frame=3 idx=010056 GeodesicLength=0.3604468830555507 rxn_smarts="[C:1]([C:2]([C@@:3]1([H:13])[C:4]([H:14])([H:15])[C@:5]1([C:6]([O:7][H:19])([H:17])[H:18])[H:16])([H:11])[H:12])([H:8])([H:9])[H:10]>>[C:1]([C:2]([C@@:3]([C:4]([C:5](=[C:6]([H:17])[H:18])[H:16])([H:14])[H:15])([O:7][H:19])[H:13])([H:11])[H:12])([H:8])([H:9])[H:10]"
C       -2.19184731       0.68801334       1.01726376
C       -0.96677282       1.16624604       0.25417266
C       -0.27829261       0.14303492      -0.59278588
C        0.98070591       0.44250268      -1.29413859
C        1.59342645      -0.93093018      -1.16681083
C        1.79813548      -1.39985685       0.15935962
O        0.38669890      -1.11006105       0.91550351
H       -2.91557598       0.22384779       0.34367642
H       -2.69311806       1.51909688       1.51571431
H       -1.93796090      -0.05342293       1.77572638
H       -0.24468617       1.64266209       0.92131398
H       -1.26391927       1.95952048      -0.44763163
H       -0.96039521      -0.53319553      -1.09981958
H        0.80184265       0.67743170      -2.34538426
H        1.52715791       1.26971577      -0.83399896
H        1.32067444      -1.66274513      -1.92018539
H        1.96190747      -2.47256846       0.26354776
H        2.54511970      -0.85479018       0.74785244
H        0.53689942      -0.71450139       1.78662430
19
Frame=4 idx=010056 GeodesicLength=0.47167611320834224 rxn_smarts="[C:1]([C:2]([C@@:3]1([H:13])[C:4]([H:14])([H:15])[C@:5]1([C:6]([O:7][H:19])([H:17])[H:18])[H:16])([H:11])[H:12])([H:8])([H:9])[H:10]>>[C:1]([C:2]([C@@:3]([C:4]([C:5](=[C:6]([H:17])[H:18])[H:16])([H:14])[H:15])([O:7][H:19])[H:13])([H:11])[H:12])([H:8])([H:9])[H:10]"
C       -2.21353862       0.68178024       1.00116762
C       -0.98899658       1.16892602       0.24276522
C       -0.27222484       0.13792790      -0.57348212
C        0.98924597       0.45423431      -1.26683270
C        1.56368669      -0.93433913      -1.15953310
C        1.81184530      -1.43599579       0.14438336
O        0.43406629      -1.06711821       0.97621381
H       -2.92614574       0.20235389       0.32623036
H       -2.73064374       1.51001764       1.48804182
H       -1.95830465      -0.05021168       1.76819498
H       -0.28399638       1.67046149       0.90975307
H       -1.29224574       1.94543759      -0.47440987
H       -0.95242469      -0.53185975      -1.09313901
H        0.81930733       0.71428786      -2.31333325
H        1.53879669       1.26506075      -0.78343258
H        1.28640135      -1.64658869      -1.92929624
H        1.90391835      -2.51869638       0.23540820
H        2.62454263      -0.95352889       0.69826660
H        0.64671040      -0.61214917       1.80303383
19
Frame=5 idx=010056 GeodesicLength=0.580596993249012 rxn_smarts="[C:1]([C:2]([C@@:3]1([H:13])[C:4]([H:14])([H:15])[C@:5]1([C:6]([O:7][H:19])([H:17])[H:18])[H:16])([H:11])[H:12])([H:8])([H:9])[H:10]>>[C:1]([C:2]([C@@:3]([C:4]([C:5](=[C:6]([H:17])[H:18])[H:16])([H:14])[H:15])([O:7][H:19])[H:13])([H:11])[H:12])([H:8])([H:9])[H:10]"
C       -2.23357978       0.67434375       0.98583748
C       -1.00929792       1.17023672       0.23249827
C       -0.26650914       0.13288454      -0.55489016
C        0.99728874       0.46534259      -1.24070212
C        1.53578379      -0.93605588      -1.14963346
C        1.82196136      -1.47001241       0.13098592
O        0.48361456      -1.02181352       1.03484763
H       -2.93600422       0.18254782       0.30893427
H       -2.76474500       1.49911581       1.46342284
H       -1.97782056      -0.05070722       1.75918024
H       -0.32066776       1.69423970       0.89929181
H       -1.31746405       1.93144660      -0.49830460
H       -0.94492971      -0.52953063      -1.08788191
H        0.83606710       0.74734246      -2.28256527
H        1.54877098       1.26129850      -0.73667117
H        1.25735085      -1.62917676      -1.93588860
H        1.84131794      -2.55732663       0.21514716
H        2.69226306      -1.05193718       0.64714041
H        0.75659976      -0.51223824       1.80925126
19
Frame=6 idx=010056 GeodesicLength=0.6879529691529148 rxn_smarts="[C:1]([C:2]([C@@:3]1([H:13])[C:4]([H:14])([H:15])[C@:5]1([C:6]([O:7][H:19])([H:17])[H:18])[H:16])([H:11])[H:12])([H:8])([H:9])[H:10]>>[C:1]([C:2]([C@@:3]([C:4]([C:5](=[C:6]([H:17])[H:18])[H:16])([H:14])[H:15])([O:7][H:19])[H:13])([H:11])[H:12])([H:8])([H:9])[H:10]"
C       -2.25216076       0.66583639       0.97103382
C       -1.02767521       1.17027628       0.22352753
C       -0.26108548       0.12784006      -0.53688508
C        1.00471578       0.47580526      -1.21588041
C        1.50955622      -0.93641048      -1.13752119
C        1.82894966      -1.50182507       0.11919134
O        0.53542000      -0.97427417       1.09114382
H       -2.94538114       0.16480612       0.29122506
H       -2.79556677       1.48656859       1.44174266
H       -1.99677743      -0.05503910       1.74832586
H       -0.35461026       1.71391909       0.89045262
H       -1.33949783       1.91787898      -0.51913413
H       -0.93789250      -0.52610285      -1.08395584
H        0.85170270       0.77683433      -2.25329644
H        1.55724494       1.25846019      -0.69388531
H        1.23278868      -1.61091812      -1.94008472
H        1.77572215      -2.58833463       0.20274989
H        2.74895455      -1.14944603       0.59517096
H        0.86559270      -0.41587483       1.80607955
19
Frame=7 idx=010056 GeodesicLength=0.7943345489567367 rxn_smarts="[C:1]([C:2]([C@@:3]1([H:13])[C:4]([H:14])([H:15])[C@:5]1([C:6]([O:7][H:19])([H:17])[H:18])[H:16])([H:11])[H:12])([H:8])([H:9])[H:10]>>[C:1]([C:2]([C@@:3]([C:4]([C:5](=[C:6]([H:17])[H:18])[H:16])([H:14])[H:15])([O:7][H:19])[H:13])([H:11])[H:12])([H:8])([H:9])[H:10]"
C       -2.26947611       0.65633698       0.95666540
C       -1.04422204       1.16922997       0.21591723
C       -0.25582331       0.12276678      -0.51940236
C        1.01156861       0.48572556      -1.19251107
C        1.48499992      -0.93566644      -1.12362576
C        1.83313993      -1.53155454       0.10899296
O        0.58943595      -0.92463071       1.14492604
H       -2.95438827       0.14908667       0.27285833
H       -2.82346993       1.47254077       1.42287270
H       -2.01530135      -0.06314190       1.73559774
H       -0.38591801       1.72976962       0.88354364
H       -1.35849888       1.90503496      -0.53690366
H       -0.93113352      -0.52163476      -1.08125808
H        0.86608319       0.80309965      -2.22576308
H        1.56443317       1.25681440      -0.65517717
H        1.21224862      -1.59223018      -1.94211129
H        1.70812294      -2.61204898       0.19783418
H        2.79514690      -1.24570757       0.54307749
H        0.97305217      -0.32379028       1.79446676
19
Frame=8 idx=010056 GeodesicLength=0.9001712084032586 rxn_smarts="[C:1]([C:2]([C@@:3]1([H:13])[C:4]([H:14])([H:15])[C@:5]1([C:6]([O:7][H:19])([H:17])[H:18])[H:16])([H:11])[H:12])([H:8])([H:9])[H:10]>>[C:1]([C:2]([C@@:3]([C:4]([C:5](=[C:6]([H:17])[H:18])[H:16])([H:14])[H:15])([O:7][H:19])[H:13])([H:11])[H:12])([H:8])([H:9])[H:10]"
C       -2.28565377       0.64592358       0.94261614
C       -1.05906181       1.16725241       0.20967538
C       -0.25067068       0.11768273      -0.50239914
C        1.01786054       0.49515415      -1.17062973
C        1.46200084      -0.93403030      -1.10828030
C        1.83484973      -1.55929936       0.10033377
O        0.64559980      -0.87305166       1.19594091
H       -2.96306238       0.13530859       0.25364915
H       -2.84876169       1.45714026       1.40658009
H       -2.03341086      -0.07481509       1.72099323
H       -0.41471310       1.74202632       0.87876830
H       -1.37468155       1.89312522      -0.55168221
H       -0.92456207      -0.51609116      -1.07970417
H        0.87912968       0.82647135      -2.20005907
H        1.57053779       1.25639564      -0.62045456
H        1.19515520      -1.57336456      -1.94213948
H        1.63966141      -2.62869366       0.20003332
H        2.83149451      -1.34067191       0.49136228
H        1.07828842      -0.23646254       1.77539606
19
Frame=9 idx=010056 GeodesicLength=1.0056741672639211 rxn_smarts="[C:1]([C:2]([C@@:3]1([H:13])[C:4]([H:14])([H:15])[C@:5]1([C:6]([O:7][H:19])([H:17])[H:18])[H:16])([H:11])[H:12])([H:8])([H:9])[H:10]>>[C:1]([C:2]([C@@:3]([C:4]([C:5](=[C:6]([H:17])[H:18])[H:16])([H:14])[H:15])([O:7][H:19])[H:13])([H:11])[H:12])([H:8])([H:9])[H:10]"
C       -2.30079482       0.63466880       0.92879292
C       -1.07229658       1.16447309       0.20477022
C       -0.24556150       0.11260077      -0.48585284
C        1.02363438       0.50416620      -1.15023228
C        1.44045991      -0.93165551      -1.09177444
C        1.83435682      -1.58518892       0.09314371
O        0.70374750      -0.81979281       1.24391928
H       -2.97139751       0.12332167       0.23353492
H       -2.87173557       1.44046279       1.39256983
H       -2.05110821      -0.08975682       1.70454902
H       -0.44110004       1.75093311       0.87620309
H       -1.38824571       1.88228122      -0.56356294
H       -0.91807231      -0.50951342      -1.07914984
H        0.89083896       0.84728041      -2.17618679
H        1.57573116       1.25727575      -0.58957324
H        1.18097071      -1.55455496      -1.94028976
H        1.57122420      -2.63862226       0.20884902
H        2.85851376      -1.43406320       0.44045999
H        1.18083486      -0.15431592       1.74983014
19
Frame=10 idx=010056 GeodesicLength=1.1110805509502735 rxn_smarts="[C:1]([C:2]([C@@:3]1([H:13])[C:4]([H:14])([H:15])[C@:5]1([C:6]([O:7][H:19])([H:17])[H:18])[H:16])([H:11])[H:12])([H:8])([H:9])[H:10]>>[C:1]([C:2]([C@@:3]([C:4]([C:5](=[C:6]([H:17])[H:18])[H:16])([H:14])[H:15])([O:7][H:19])[H:13])([H:11])[H:12])([H:8])([H:9])[H:10]"
C       -2.31500828       0.62265027       0.91513937
C       -1.08409941       1.16103382       0.20114602
C       -0.24046629       0.10755998      -0.46975455
C        1.02895000       0.51283386      -1.13127368
C        1.42030898      -0.92865854      -1.07435740
C        1.83190194      -1.60939585       0.08731457
O        0.76375186      -0.76506191       1.28868271
H       -2.97935091       0.11290969       0.21252448
H       -2.89274494       1.42260171       1.38055151
H       -2.06839070      -0.10759543       1.68641712
H       -0.46530597       1.75680040       0.87587463
H       -1.39949115       1.87260550      -0.57271399
H       -0.91156007      -0.50197257      -1.07945950
H        0.90129469       0.86586673      -2.15413055
H        1.58016586       1.25945090      -0.56228118
H        1.16929191      -1.53592513      -1.93676254
H        1.50367405      -2.64222161       0.22371610
H        2.87674978      -1.52609013       0.39069149
H        1.28032866      -0.07739167       1.71867539
19
Frame=11 idx=010056 GeodesicLength=1.2164724794532127 rxn_smarts="[C:1]([C:2]([C@@:3]1([H:13])[C:4]([H:14])([H:15])[C@:5]1([C:6]([O:7][H:19])([H:17])[H:18])[H:16])([H:11])[H:12])([H:8])([H:9])[H:10]>>[C:1]([C:2]([C@@:3]([C:4]([C:5](=[C:6]([H:17])[H:18])[H:16])([H:14])[H:15])([O:7][H:19])[H:13])([H:11])[H:12])([H:8])([H:9])[H:10]"
C       -2.32840652       0.60995995       0.90156927
C       -1.09459234       1.15702477       0.19874610
C       -0.23536100       0.10257362      -0.45408095
C        1.03385447       0.52120601      -1.11366698
C        1.40143574      -0.92513730      -1.05622647
C        1.82774449      -1.63207560       0.08273020
O        0.82546283      -0.70913999       1.33005248
H       -2.98691860       0.10394898       0.19061570
H       -2.91208380       1.40365346       1.37018815
H       -2.08533058      -0.12795504       1.66666729
H       -0.48747726       1.75983019       0.87777072
H       -1.40861680       1.86413941      -0.57926303
H       -0.90497250      -0.49356485      -1.08044212
H        0.91056889       0.88252211      -2.13378035
H        1.58396679       1.26287690      -0.53830446
H        1.15966671      -1.51758937      -1.93168216
H        1.43776086      -2.63989731       0.24409946
H        2.88670440      -1.61660256       0.34224309
H        1.37659422      -0.00577337       1.68276403
19
Frame=12 idx=010056 GeodesicLength=1.3219323114516641 rxn_smarts="[C:1]([C:2]([C@@:3]1([H:13])[C:4]([H:14])([H:15])[C@:5]1([C:6]([O:7][H:19])([H:17])[H:18])[H:16])([H:11])[H:12])([H:8])([H:9])[H:10]>>[C:1]([C:2]([C@@:3]([C:4]([C:5](=[C:6]([H:17])[H:18])[H:16])([H:14])[H:15])([O:7][H:19])[H:13])([H:11])[H:12])([H:8])([H:9])[H:10]"
C       -2.34109551       0.59668353       0.88801375
C       -1.10392209       1.15253212       0.19752026
C       -0.23023237       0.09765701      -0.43880060
C        1.03838854       0.52933514      -1.09730912
C        1.38377188      -0.92115800      -1.03753301
C        1.82208090      -1.65338586       0.07927138
O        0.88876606      -0.65220453       1.36793613
H       -2.99406759       0.09631311       0.16782005
H       -2.93004092       1.38370721       1.36118617
H       -2.10201578      -0.15048683       1.64538436
H       -0.50782863       1.76024016       0.88187398
H       -1.41584226       1.85690624      -0.58334216
H       -0.89823848      -0.48443746      -1.08189883
H        0.91875005       0.89750908      -2.11502423
H        1.58720625       1.26751106      -0.51734777
H        1.15179171      -1.49960211      -1.92520232
H        1.37416423      -2.63208361       0.26939998
H        2.88877760      -1.70574982       0.29528292
H        1.46958641       0.06071356       1.64276906
19
Frame=13 idx=010056 GeodesicLength=1.427479370438096 rxn_smarts="[C:1]([C:2]([C@@:3]1([H:13])[C:4]([H:14])([H:15])[C@:5]1([C:6]([O:7][H:19])([H:17])[H:18])[H:16])([H:11])[H:12])([H:8])([H:9])[H:10]>>[C:1]([C:2]([C@@:3]([C:4]([C:5](=[C:6]([H:17])[H:18])[H:16])([H:14])[H:15])([O:7][H:19])[H:13])([H:11])[H:12])([H:8])([H:9])[H:10]"
C       -2.35322273       0.58293214       0.87437243
C       -1.11220305       1.14760808       0.19743625
C       -0.22508792       0.09279874      -0.42385960
C        1.04258041       0.53723250      -1.08207778
C        1.36719560      -0.91680423      -1.01838940
C        1.81517754      -1.67347203       0.07681634
O        0.95359086      -0.59449867       1.40226149
H       -3.00085467       0.09001720       0.14408752
H       -2.94688010       1.36287595       1.35324590
H       -2.11864133      -0.17488432       1.62256328
H       -0.52650304       1.75813480       0.88818836
H       -1.42129737       1.85092208      -0.58503566
H       -0.89136906      -0.47471029      -1.08362939
H        0.92590553       0.91103168      -2.09771192
H        1.58996247       1.27324556      -0.49911784
H        1.14530350      -1.48202989      -1.91742926
H        1.31355929      -2.61920369       0.29917418
H        2.88345312      -1.79340497       0.24978755
H        1.55933095       0.12220936       1.59931755
19
Frame=14 idx=010056 GeodesicLength=1.5331207435486092 rxn_smarts="[C:1]([C:2]([C@@:3]1([H:13])[C:4]([H:14])([H:15])[C@:5]1([C:6]([O:7][H:19])([H:17])[H:18])[H:16])([H:11])[H:12])([H:8])([H:9])[H:10]>>[C:1]([C:2]([C@@:3]([C:4]([C:5](=[C:6]([H:17])[H:18])[H:16])([H:14])[H:15])([O:7][H:19])[H:13])([H:11])[H:12])([H:8])([H:9])[H:10]"
C       -2.36488023       0.56878180       0.86056831
C       -1.11955360       1.14229294       0.19847015
C       -0.21992066       0.08799260      -0.40920624
C        1.04644641       0.54492906      -1.06785343
C        1.35165749      -0.91211343      -0.99886809
C        1.80717368      -1.69246376       0.07526210
O        1.01987013      -0.53607566       1.43300050
H       -3.00725061       0.08503121       0.11940159
H       -2.96281696       1.34122432       1.34613337
H       -2.13534044      -0.20089198       1.59819156
H       -0.54369715       1.75362939       0.89670613
H       -1.42513018       1.84616757      -0.58440779
H       -0.88431354      -0.46455069      -1.08543938
H        0.93209617       0.92326475      -2.08170172
H        1.59223991       1.28002278      -0.48334286
H        1.14002191      -1.46488156      -1.90847745
H        1.25644766      -2.60168438       0.33286470
H        2.87096100      -1.87967715       0.20588654
H        1.64598902       0.17900218       1.55281199
19
Frame=15 idx=010056 GeodesicLength=1.6388367076581751 rxn_smarts="[C:1]([C:2]([C@@:3]1([H:13])[C:4]([H:14])([H:15])[C@:5]1([C:6]([O:7][H:19])([H:17])[H:18])[H:16])([H:11])[H:12])([H:8])([H:9])[H:10]>>[C:1]([C:2]([C@@:3]([C:4]([C:5](=[C:6]([H:17])[H:18])[H:16])([H:14])[H:15])([O:7][H:19])[H:13])([H:11])[H:12])([H:8])([H:9])[H:10]"
C       -2.37623708       0.55435003       0.84649374
C       -1.12607161       1.13661163       0.20062289
C       -0.21475908       0.08320261      -0.39476532
C        1.04999852       0.55240582      -1.05451388
C        1.33703608      -0.90717341      -0.97901590
C        1.79833958      -1.71049198       0.07450453
O        1.08760143      -0.47710705       1.46013888
H       -3.01336096       0.08150291       0.09366505
H       -2.97807959       1.31886575       1.33961986
H       -2.15238532      -0.22830381       1.57216955
H       -0.55953225       1.74672911       0.90746982
H       -1.42740135       1.84266610      -0.58147579
H       -0.87713251      -0.45405916      -1.08716653
H        0.93737191       0.93433184      -2.06685118
H        1.59408737       1.28770881      -0.46976572
H        1.13566415      -1.44821255      -1.89842380
H        1.20346342      -2.57995003       0.37018231
H        2.85173232      -1.96441379       0.16344296
H        1.72966499       0.23133718       1.50366853
19
Frame=16 idx=010056 GeodesicLength=1.7445929773717315 rxn_smarts="[C:1]([C:2]([C@@:3]1([H:13])[C:4]([H:14])([H:15])[C@:5]1([C:6]([O:7][H:19])([H:17])[H:18])[H:16])([H:11])[H:12])([H:8])([H:9])[H:10]>>[C:1]([C:2]([C@@:3]([C:4]([C:5](=[C:6]([H:17])[H:18])[H:16])([H:14])[H:15])([O:7][H:19])[H:13])([H:11])[H:12])([H:8])([H:9])[H:10]"
C       -2.38735495       0.53969284       0.83206528
C       -1.13184004       1.13056648       0.20389323
C       -0.20960258       0.07840527      -0.38048048
C        1.05323075       0.55968053      -1.04194311
C        1.32328815      -0.90200375      -0.95884811
C        1.78876597      -1.72765678       0.07447330
O        1.15676605      -0.41754188       1.48365923
H       -3.01915357       0.07948072       0.06683884
H       -2.99279883       1.29582284       1.33353928
H       -2.16989777      -0.25696025       1.54438309
H       -0.57415843       1.73744918       0.92048650
H       -1.42819747       1.84037765      -0.57623361
H       -0.86980377      -0.44337849      -1.08866715
H        0.94175662       0.94434309      -2.05301845
H        1.59547388       1.29624572      -0.45815548
H        1.13212663      -1.43200613      -1.88734240
H        1.15497496      -2.55439573       0.41066100
H        2.82586094      -2.04765427       0.12260806
H        1.81056344       0.27953295       1.45208098
