14
Frame=0 idx=003300 GeodesicLength=0.0 rxn_smarts="[O:1]=[C:2]([C:3]1([H:8])[C:4]([H:9])([H:10])[C:5]([H:11])([H:12])[C:6]1([H:13])[H:14])[H:7]>>[H:7][H:8].[O:1]=[C:2]=[C:3]1[C:4]([H:9])([H:10])[C:5]([H:11])([H:12])[C:6]1([H:13])[H:14]"
O        2.85635237      -0.63282114       0.26158325
C        1.85188677       0.07186031       0.30655774
C        0.52139681      -0.00670929      -0.02602008
C       -0.32231525      -1.11151945      -0.58728671
C       -1.56762681      -0.28330050      -0.18045800
C       -0.64992179       0.94627349       0.06979717
H        2.00120873       1.27793471       0.57300981
H        1.53653290       0.70595256       1.35064998
H       -0.20476619      -1.21847368      -1.66905921
H       -0.18632685      -2.09309884      -0.13183650
H       -2.34193923      -0.15672356      -0.93482857
H       -2.02173177      -0.65064804       0.73883624
H       -0.67775103       1.64801713      -0.76736751
H       -0.79499872       1.50325633       0.99642244
14
Frame=1 idx=003300 GeodesicLength=0.12414336940118946 rxn_smarts="[O:1]=[C:2]([C:3]1([H:8])[C:4]([H:9])([H:10])[C:5]([H:11])([H:12])[C:6]1([H:13])[H:14])[H:7]>>[H:7][H:8].[O:1]=[C:2]=[C:3]1[C:4]([H:9])([H:10])[C:5]([H:11])([H:12])[C:6]1([H:13])[H:14]"
O        2.87291617      -0.60174422       0.16371791
C        1.86317768       0.08339368       0.27287454
C        0.52405843      -0.00421435      -0.02535672
C       -0.32200914      -1.11621890      -0.57224779
C       -1.56551900      -0.27855378      -0.17962160
C       -0.64623800       0.95308196       0.05208628
H        1.98509801       1.28348765       0.67082298
H        1.50063961       0.63702566       1.38510883
H       -0.20160620      -1.24022660      -1.65170646
H       -0.18966444      -2.09041008      -0.10011050
H       -2.33809737      -0.16186157      -0.93739102
H       -2.02173746      -0.63032756       0.74485948
H       -0.66763888       1.64414363      -0.79390012
H       -0.79337942       1.52242450       0.97086416
14
Frame=2 idx=003300 GeodesicLength=0.24807461833359412 rxn_smarts="[O:1]=[C:2]([C:3]1([H:8])[C:4]([H:9])([H:10])[C:5]([H:11])([H:12])[C:6]1([H:13])[H:14])[H:7]>>[H:7][H:8].[O:1]=[C:2]=[C:3]1[C:4]([H:9])([H:10])[C:5]([H:11])([H:12])[C:6]1([H:13])[H:14]"
O        2.88524606      -0.56657366       0.07115837
C        1.87294562       0.09697389       0.24115140
C        0.52688522      -0.00109557      -0.02549374
C       -0.32125875      -1.12018653      -0.55753354
C       -1.56286937      -0.27385849      -0.17854712
C       -0.64250953       0.95971435       0.03470001
H        1.97065104       1.27923584       0.76638600
H        1.46509929       0.56985239       1.41377266
H       -0.19838088      -1.26091885      -1.63447729
H       -0.19183848      -2.08657333      -0.06891312
H       -2.33402726      -0.16722401      -0.93927712
H       -2.02052512      -0.61038752       0.75098054
H       -0.65855547       1.64020219      -0.81973947
H       -0.79086235       1.54083929       0.94583242
14
Frame=3 idx=003300 GeodesicLength=0.37232853413300565 rxn_smarts="[O:1]=[C:2]([C:3]1([H:8])[C:4]([H:9])([H:10])[C:5]([H:11])([H:12])[C:6]1([H:13])[H:14])[H:7]>>[H:7][H:8].[O:1]=[C:2]=[C:3]1[C:4]([H:9])([H:10])[C:5]([H:11])([H:12])[C:6]1([H:13])[H:14]"
O        2.89439234      -0.52844360      -0.01621236
C        1.88174308       0.11179386       0.21145826
C        0.52989721       0.00225435      -0.02568133
C       -0.32013341      -1.12370846      -0.54315825
C       -1.56009455      -0.26933214      -0.17731826
C       -0.63884264       0.96613286       0.01796569
H        1.95811014       1.26676452       0.85807592
H        1.42985999       0.50603903       1.43740339
H       -0.19460053      -1.28051189      -1.61735838
H       -0.19334454      -2.08222211      -0.03866985
H       -2.32996566      -0.17261169      -0.94064217
H       -2.01910825      -0.59102584       0.75691385
H       -0.64993723       1.63633076      -0.84442440
H       -0.78797595       1.55854035       0.92164788
14
Frame=4 idx=003300 GeodesicLength=0.4966198775298061 rxn_smarts="[O:1]=[C:2]([C:3]1([H:8])[C:4]([H:9])([H:10])[C:5]([H:11])([H:12])[C:6]1([H:13])[H:14])[H:7]>>[H:7][H:8].[O:1]=[C:2]=[C:3]1[C:4]([H:9])([H:10])[C:5]([H:11])([H:12])[C:6]1([H:13])[H:14]"
O        2.90044700      -0.48810331      -0.09882944
C        1.88963784       0.12758348       0.18342654
C        0.53299979       0.00578219      -0.02568978
C       -0.31866505      -1.12676428      -0.52904542
C       -1.55707906      -0.26492410      -0.17601215
C       -0.63526331       0.97230472       0.00179081
H        1.94734838       1.24712206       0.94590346
H        1.39473616       0.44562987       1.45711072
H       -0.19051271      -1.29904655      -1.60034654
H       -0.19411824      -2.07730494      -0.00919225
H       -2.32586481      -0.17806055      -0.94173293
H       -2.01710386      -0.57215648       0.76262767
H       -0.64197723       1.63238735      -0.86820907
H       -0.78458492       1.57555054       0.89819837
14
Frame=5 idx=003300 GeodesicLength=0.6209660662527787 rxn_smarts="[O:1]=[C:2]([C:3]1([H:8])[C:4]([H:9])([H:10])[C:5]([H:11])([H:12])[C:6]1([H:13])[H:14])[H:7]>>[H:7][H:8].[O:1]=[C:2]=[C:3]1[C:4]([H:9])([H:10])[C:5]([H:11])([H:12])[C:6]1([H:13])[H:14]"
O        2.90370521      -0.44604529      -0.17746499
C        1.89675031       0.14385805       0.15675176
C        0.53619030       0.00926198      -0.02510316
C       -0.31684481      -1.12941997      -0.51510998
C       -1.55384101      -0.26069545      -0.17455763
C       -0.63160434       0.97810325      -0.01369529
H        1.93799505       1.22138515       1.02914106
H        1.35911586       0.38923927       1.47368267
H       -0.18563189      -1.31636973      -1.58332953
H       -0.19464382      -2.07202544       0.01940834
H       -2.32137891      -0.18346482      -0.94245871
H       -2.01505520      -0.55387773       0.76811241
H       -0.63382166       1.62828068      -0.89091644
H       -0.78093509       1.59177006       0.87553949
14
Frame=6 idx=003300 GeodesicLength=0.7453120023120552 rxn_smarts="[O:1]=[C:2]([C:3]1([H:8])[C:4]([H:9])([H:10])[C:5]([H:11])([H:12])[C:6]1([H:13])[H:14])[H:7]>>[H:7][H:8].[O:1]=[C:2]=[C:3]1[C:4]([H:9])([H:10])[C:5]([H:11])([H:12])[C:6]1([H:13])[H:14]"
O        2.90437515      -0.40297615      -0.25245483
C        1.90326710       0.16057481       0.13105637
C        0.53945896       0.01272232      -0.02376475
C       -0.31469391      -1.13173496      -0.50133785
C       -1.55044020      -0.25662550      -0.17308299
C       -0.62801005       0.98359886      -0.02857972
H        1.93038801       1.19039167       1.10822669
H        1.32307177       0.33681843       1.48805929
H       -0.18021302      -1.33266338      -1.56635942
H       -0.19472090      -2.06646508       0.04722816
H       -2.31676371      -0.18888829      -0.94309696
H       -2.01276685      -0.53612385       0.77326274
H       -0.62590583       1.62401178      -0.91273418
H       -0.77704654       1.60735934       0.85357743
14
Frame=7 idx=003300 GeodesicLength=0.869692482233578 rxn_smarts="[O:1]=[C:2]([C:3]1([H:8])[C:4]([H:9])([H:10])[C:5]([H:11])([H:12])[C:6]1([H:13])[H:14])[H:7]>>[H:7][H:8].[O:1]=[C:2]=[C:3]1[C:4]([H:9])([H:10])[C:5]([H:11])([H:12])[C:6]1([H:13])[H:14]"
O        2.90258371      -0.35906053      -0.32465647
C        1.90926316       0.17764039       0.10596289
C        0.54283069       0.01613361      -0.02150179
C       -0.31218945      -1.13375301      -0.48762221
C       -1.54686406      -0.25272109      -0.17158837
C       -0.62440095       0.98878484      -0.04289388
H        1.92441496       1.15460979       1.18336955
H        1.28616648       0.28834106       1.50098695
H       -0.17407290      -1.34800413      -1.54932585
H       -0.19450747      -2.06069113       0.07440051
H       -2.31185582      -0.19434615      -0.94369299
H       -2.01043422      -0.51885582       0.77806850
H       -0.61791649       1.61953669      -0.93372723
H       -0.77301764       1.62238548       0.83222040
14
Frame=8 idx=003300 GeodesicLength=0.994274851820518 rxn_smarts="[O:1]=[C:2]([C:3]1([H:8])[C:4]([H:9])([H:10])[C:5]([H:11])([H:12])[C:6]1([H:13])[H:14])[H:7]>>[H:7][H:8].[O:1]=[C:2]=[C:3]1[C:4]([H:9])([H:10])[C:5]([H:11])([H:12])[C:6]1([H:13])[H:14]"
O        2.89845167      -0.31454726      -0.39468011
C        1.91483827       0.19508023       0.08108177
C        0.54634286       0.01953437      -0.01819758
C       -0.30930708      -1.13552114      -0.47390085
C       -1.54314012      -0.24898693      -0.17011574
C       -0.62078372       0.99370621      -0.05668465
H        1.92022966       1.11434870       1.25497162
H        1.24811375       0.24377854       1.51313573
H       -0.16715172      -1.36253574      -1.53219289
H       -0.19401058      -2.05476146       0.10104776
H       -2.30665411      -0.19989811      -0.94436598
H       -2.00815450      -0.50202809       0.78250101
H       -0.60983091       1.61485750      -0.95399743
H       -0.76894347       1.63697318       0.81139737
14
Frame=9 idx=003300 GeodesicLength=1.1187463594912326 rxn_smarts="[O:1]=[C:2]([C:3]1([H:8])[C:4]([H:9])([H:10])[C:5]([H:11])([H:12])[C:6]1([H:13])[H:14])[H:7]>>[H:7][H:8].[O:1]=[C:2]=[C:3]1[C:4]([H:9])([H:10])[C:5]([H:11])([H:12])[C:6]1([H:13])[H:14]"
O        2.89176578      -0.26935337      -0.46323888
C        1.91987073       0.21286459       0.05607862
C        0.55001911       0.02292781      -0.01373310
C       -0.30596910      -1.13698561      -0.46001942
C       -1.53910173      -0.24540529      -0.16866177
C       -0.61702062       0.99831614      -0.07002791
H        1.91747583       1.06947718       1.32321014
H        1.20845477       0.20308669       1.52505564
H       -0.15935303      -1.37620100      -1.51474822
H       -0.19324640      -2.04860020       0.12738030
H       -2.30086590      -0.20552100      -0.94512816
H       -2.00583032      -0.48559615       0.78652976
H       -0.60141346       1.60990335      -0.97362984
H       -0.76478565       1.65108684       0.79093284
14
Frame=10 idx=003300 GeodesicLength=1.2433429656787247 rxn_smarts="[O:1]=[C:2]([C:3]1([H:8])[C:4]([H:9])([H:10])[C:5]([H:11])([H:12])[C:6]1([H:13])[H:14])[H:7]>>[H:7][H:8].[O:1]=[C:2]=[C:3]1[C:4]([H:9])([H:10])[C:5]([H:11])([H:12])[C:6]1([H:13])[H:14]"
O        2.88264006      -0.22386366      -0.53069069
C        1.92448305       0.23122205       0.03055100
C        0.55392102       0.02648381      -0.00801199
C       -0.30210854      -1.13815425      -0.44592917
C       -1.53484506      -0.24198993      -0.16730360
C       -0.61322711       1.00271141      -0.08294582
H        1.91671764       1.01984008       1.38852763
H        1.16691863       0.16639250       1.53722862
H       -0.15056521      -1.38917173      -1.49697063
H       -0.19208408      -2.04218988       0.15351619
H       -2.29460058      -0.21135683      -0.94615779
H       -2.00362109      -0.46952865       0.79007104
H       -0.59287087       1.60471308      -0.99268457
H       -0.76075786       1.66489199       0.77079978
14
Frame=11 idx=003300 GeodesicLength=1.3679716097365684 rxn_smarts="[O:1]=[C:2]([C:3]1([H:8])[C:4]([H:9])([H:10])[C:5]([H:11])([H:12])[C:6]1([H:13])[H:14])[H:7]>>[H:7][H:8].[O:1]=[C:2]=[C:3]1[C:4]([H:9])([H:10])[C:5]([H:11])([H:12])[C:6]1([H:13])[H:14]"
O        2.87086995      -0.17800798      -0.59765995
C        1.92858239       0.25032708       0.00414402
C        0.55810550       0.03033787      -0.00092154
C       -0.29760109      -1.13896681      -0.43145896
C       -1.53027238      -0.23873358      -0.16607263
C       -0.60936046       1.00692596      -0.09550611
H        1.91796353       0.96467688       1.45119335
H        1.12302292       0.13385509       1.55008540
H       -0.14061114      -1.40148741      -1.47864132
H       -0.19042769      -2.03541564       0.17972972
H       -2.28765245      -0.21748420      -0.94755098
H       -2.00152920      -0.45377384       0.79305999
H       -0.58415043       1.59928106      -1.01125502
H       -0.75693945       1.67846552       0.75085402
14
Frame=12 idx=003300 GeodesicLength=1.4927479709807017 rxn_smarts="[O:1]=[C:2]([C:3]1([H:8])[C:4]([H:9])([H:10])[C:5]([H:11])([H:12])[C:6]1([H:13])[H:14])[H:7]>>[H:7][H:8].[O:1]=[C:2]=[C:3]1[C:4]([H:9])([H:10])[C:5]([H:11])([H:12])[C:6]1([H:13])[H:14]"
O        2.85641394      -0.13180086      -0.66462410
C        1.93217070       0.27049878      -0.02351550
C        0.56266723       0.03472268       0.00763927
C       -0.29230721      -1.13938513      -0.41645300
C       -1.52539096      -0.23564649      -0.16502275
C       -0.60547092       1.01107133      -0.10776719
H        1.92151444       0.90286800       1.51150814
H        1.07632674       0.10581882       1.56400039
H       -0.12927384      -1.41329712      -1.45957312
H       -0.18811956      -2.02817416       0.20629589
H       -2.27996615      -0.22407643      -0.94945205
H       -1.99968835      -0.43827608       0.79541623
H       -0.57535247       1.59366343      -1.02943706
H       -0.75352358       1.69201324       0.73098486
14
Frame=13 idx=003300 GeodesicLength=1.6173982794687713 rxn_smarts="[O:1]=[C:2]([C:3]1([H:8])[C:4]([H:9])([H:10])[C:5]([H:11])([H:12])[C:6]1([H:13])[H:14])[H:7]>>[H:7][H:8].[O:1]=[C:2]=[C:3]1[C:4]([H:9])([H:10])[C:5]([H:11])([H:12])[C:6]1([H:13])[H:14]"
O        2.83864354      -0.08484326      -0.73215459
C        1.93486623       0.29200752      -0.05276470
C        0.56766117       0.03987522       0.01777068
C       -0.28597304      -1.13918104      -0.40058452
C       -1.51987842      -0.23268901      -0.16414444
C       -0.60145129       1.01513954      -0.11989281
H        1.92690928       0.83235440       1.56949881
H        1.02621781       0.08272842       1.57923146
H       -0.11630621      -1.42446589      -1.43931506
H       -0.18487974      -2.02007479       0.23373287
H       -2.27105542      -0.23121554      -0.95188405
H       -1.99779531      -0.42292860       0.79710055
H       -0.56644532       1.58776527      -1.04744890
H       -0.75051330       1.70552776       0.71085470
14
Frame=14 idx=003300 GeodesicLength=1.7421749439339949 rxn_smarts="[O:1]=[C:2]([C:3]1([H:8])[C:4]([H:9])([H:10])[C:5]([H:11])([H:12])[C:6]1([H:13])[H:14])[H:7]>>[H:7][H:8].[O:1]=[C:2]=[C:3]1[C:4]([H:9])([H:10])[C:5]([H:11])([H:12])[C:6]1([H:13])[H:14]"
O        2.81767166      -0.03721329      -0.80046123
C        1.93672192       0.31551624      -0.08396669
C        0.57324191       0.04631241       0.02955048
C       -0.27834894      -1.13825381      -0.38361814
C       -1.51381227      -0.22989696      -0.16348034
C       -0.59748835       1.01938206      -0.13197916
H        1.93447095       0.75047326       1.62517916
H        0.97233231       0.06556881       1.59598945
H       -0.10131091      -1.43522725      -1.41758334
H       -0.18034519      -2.01087146       0.26247635
H       -2.26095430      -0.23929134      -0.95499326
H       -1.99610003      -0.40765943       0.79804902
H       -0.55775549       1.58171910      -1.06545813
H       -0.74832325       1.71944166       0.69029583
14
Frame=15 idx=003300 GeodesicLength=1.8670749573190988 rxn_smarts="[O:1]=[C:2]([C:3]1([H:8])[C:4]([H:9])([H:10])[C:5]([H:11])([H:12])[C:6]1([H:13])[H:14])[H:7]>>[H:7][H:8].[O:1]=[C:2]=[C:3]1[C:4]([H:9])([H:10])[C:5]([H:11])([H:12])[C:6]1([H:13])[H:14]"
O        2.79308485       0.01167604      -0.86987033
C        1.93745705       0.34166452      -0.11730747
C        0.57952705       0.05464856       0.04302621
C       -0.26904306      -1.13629039      -0.36507279
C       -1.50695077      -0.22725273      -0.16298147
C       -0.59365001       1.02397272      -0.14429640
H        1.94346237       0.65287015       1.67813083
H        0.91434598       0.05566031       1.61429863
H       -0.08379917      -1.44558491      -1.39372414
H       -0.17397358      -1.99994290       0.29334950
H       -2.24928474      -0.24869017      -0.95876217
H       -1.99442210      -0.39228228       0.79828028
H       -0.54951814       1.57547433      -1.08386457
H       -0.74723573       1.73407673       0.66879388
14
Frame=16 idx=003300 GeodesicLength=1.9921291035640853 rxn_smarts="[O:1]=[C:2]([C:3]1([H:8])[C:4]([H:9])([H:10])[C:5]([H:11])([H:12])[C:6]1([H:13])[H:14])[H:7]>>[H:7][H:8].[O:1]=[C:2]=[C:3]1[C:4]([H:9])([H:10])[C:5]([H:11])([H:12])[C:6]1([H:13])[H:14]"
O        2.76489923       0.06209637      -0.94004591
C        1.93695015       0.37121064      -0.15275703
C        0.58669524       0.06569973       0.05808009
C       -0.25759453      -1.13291178      -0.34449311
C       -1.49907218      -0.22474528      -0.16244097
C       -0.59007954       1.02918876      -0.15716009
H        1.95173555       0.53450897       1.72713821
H        0.85277585       0.05459754       1.63386678
H       -0.06326408      -1.45548786      -1.36711743
H       -0.16498735      -1.98657046       0.32715245
H       -2.23584820      -0.25991787      -0.96287986
H       -1.99244569      -0.37661121       0.79804904
H       -0.54215655       1.56901544      -1.10314822
H       -0.74760791       1.74992701       0.64575606
