14
Frame=0 idx=004131 GeodesicLength=0.0 rxn_smarts="[C:1]([C:2](=[O:3])[C:4]([C:5]([O:6][H:14])([H:12])[H:13])([H:10])[H:11])([H:7])([H:8])[H:9]>>[C:1](=[C:2]([O:3][H:8])[C:4]([C:5]([O:6][H:14])([H:12])[H:13])([H:10])[H:11])([H:7])[H:9]"
C        2.07429854      -0.13331716      -0.50518751
C        0.78552109       0.12014377       0.01482702
O        0.70770025       1.36410429       0.33217776
C       -0.39245584      -0.78314345       0.15110983
C       -1.70809794      -0.06807732       0.42807561
O       -2.08310773       0.79175983      -0.62332832
H        2.26386771      -0.95239857      -1.18970745
H        1.77911139       1.30631069      -0.32888670
H        2.84937751       0.00271214       0.24844512
H       -0.45966776      -1.36422766      -0.77386158
H       -0.16725366      -1.50559853       0.94301028
H       -1.64378678       0.47434314       1.37745392
H       -2.50449185      -0.80785631       0.52484540
H       -1.50101488       1.55524508      -0.59897332
14
Frame=1 idx=004131 GeodesicLength=0.05085993711472908 rxn_smarts="[C:1]([C:2](=[O:3])[C:4]([C:5]([O:6][H:14])([H:12])[H:13])([H:10])[H:11])([H:7])([H:8])[H:9]>>[C:1](=[C:2]([O:3][H:8])[C:4]([C:5]([O:6][H:14])([H:12])[H:13])([H:10])[H:11])([H:7])[H:9]"
C        2.08231645      -0.14270729      -0.48069001
C        0.78620977       0.12204230       0.01664662
O        0.69900183       1.37678864       0.28572034
C       -0.39523034      -0.77947824       0.13048521
C       -1.70734672      -0.07031126       0.43709744
O       -2.09972082       0.80371007      -0.59598688
H        2.28134027      -0.99449708      -1.12131717
H        1.78200439       1.30727329      -0.38203522
H        2.85294257       0.02946432       0.26986473
H       -0.47200344      -1.33345419      -0.81036526
H       -0.16734611      -1.52539994       0.89948581
H       -1.63067820       0.45756672       1.39392552
H       -2.50152271      -0.81254025       0.53430559
H       -1.50996692       1.56154291      -0.57713672
14
Frame=2 idx=004131 GeodesicLength=0.10155465275976971 rxn_smarts="[C:1]([C:2](=[O:3])[C:4]([C:5]([O:6][H:14])([H:12])[H:13])([H:10])[H:11])([H:7])([H:8])[H:9]>>[C:1](=[C:2]([O:3][H:8])[C:4]([C:5]([O:6][H:14])([H:12])[H:13])([H:10])[H:11])([H:7])[H:9]"
C        2.08933456      -0.15133979      -0.45588181
C        0.78684939       0.12412697       0.02026685
O        0.69063986       1.38819143       0.23864184
C       -0.39789922      -0.77565211       0.11034484
C       -1.70630374      -0.07285826       0.44578805
O       -2.11518787       0.81532278      -0.56857595
H        2.29622464      -1.03362483      -1.05132395
H        1.78546820       1.30515556      -0.43564303
H        2.85638740       0.05654506       0.28903369
H       -0.48346256      -1.30172507      -0.84579538
H       -0.16806043      -1.54458104       0.85573875
H       -1.61759336       0.44039604       1.40974579
H       -2.49828707      -0.81759106       0.54278185
H       -1.51810979       1.56763434      -0.55512154
14
Frame=3 idx=004131 GeodesicLength=0.15195222532408173 rxn_smarts="[C:1]([C:2](=[O:3])[C:4]([C:5]([O:6][H:14])([H:12])[H:13])([H:10])[H:11])([H:7])([H:8])[H:9]>>[C:1](=[C:2]([O:3][H:8])[C:4]([C:5]([O:6][H:14])([H:12])[H:13])([H:10])[H:11])([H:7])[H:9]"
C        2.09530636      -0.15915145      -0.43100078
C        0.78732885       0.12654630       0.02548612
O        0.68259454       1.39810997       0.19126624
C       -0.40036901      -0.77158794       0.09086426
C       -1.70503312      -0.07571224       0.45403322
O       -2.12943541       0.82655207      -0.54124411
H        2.30846255      -1.06940102      -0.98044004
H        1.78953832       1.29988538      -0.48920213
H        2.85968395       0.08345908       0.30584606
H       -0.49394151      -1.26931765      -0.87970268
H       -0.16908639      -1.56267702       0.81219620
H       -1.60481709       0.42281054       1.42477851
H       -2.49484101      -0.82296014       0.55001550
H       -1.52539103       1.57344411      -0.53289637
14
Frame=4 idx=004131 GeodesicLength=0.20206798703768042 rxn_smarts="[C:1]([C:2](=[O:3])[C:4]([C:5]([O:6][H:14])([H:12])[H:13])([H:10])[H:11])([H:7])([H:8])[H:9]>>[C:1](=[C:2]([O:3][H:8])[C:4]([C:5]([O:6][H:14])([H:12])[H:13])([H:10])[H:11])([H:7])[H:9]"
C        2.10031160      -0.16630657      -0.40607929
C        0.78757953       0.12940925       0.03197643
O        0.67484220       1.40645200       0.14364613
C       -0.40260748      -0.76707541       0.07198751
C       -1.70356914      -0.07889904       0.46181982
O       -2.14252397       0.83737873      -0.51379175
H        2.31835147      -1.10212555      -0.90854012
H        1.79399914       1.29141043      -0.54277085
H        2.86280316       0.11019571       0.32037580
H       -0.50348339      -1.23595612      -0.91195356
H       -0.17025907      -1.57928327       0.76865357
H       -1.59241343       0.40459624       1.43899613
H       -2.49122143      -0.82865894       0.55590295
H       -1.53180919       1.57886253      -0.51022277
14
Frame=5 idx=004131 GeodesicLength=0.2520443742797252 rxn_smarts="[C:1]([C:2](=[O:3])[C:4]([C:5]([O:6][H:14])([H:12])[H:13])([H:10])[H:11])([H:7])([H:8])[H:9]>>[C:1](=[C:2]([O:3][H:8])[C:4]([C:5]([O:6][H:14])([H:12])[H:13])([H:10])[H:11])([H:7])[H:9]"
C        2.10429915      -0.17244889      -0.38162134
C        0.78747563       0.13291145       0.03927996
O        0.66745519       1.41331536       0.09652414
C       -0.40458343      -0.76251604       0.05403897
C       -1.70204435      -0.08239603       0.46904573
O       -2.15425738       0.84793839      -0.48690831
H        2.32560450      -1.13119112      -0.83742371
H        1.79928773       1.28040269      -0.59524932
H        2.86573238       0.13600491       0.33273972
H       -0.51213725      -1.20316179      -0.94219528
H       -0.17124138      -1.59444604       0.72650125
H       -1.58078200       0.38607318       1.45251302
H       -2.48764529      -0.83474050       0.56026695
H       -1.53716351       1.58425443      -0.48751179
14
Frame=6 idx=004131 GeodesicLength=0.3019940318526072 rxn_smarts="[C:1]([C:2](=[O:3])[C:4]([C:5]([O:6][H:14])([H:12])[H:13])([H:10])[H:11])([H:7])([H:8])[H:9]>>[C:1](=[C:2]([O:3][H:8])[C:4]([C:5]([O:6][H:14])([H:12])[H:13])([H:10])[H:11])([H:7])[H:9]"
C        2.10739487      -0.17771168      -0.35746224
C        0.78691312       0.13710183       0.04692152
O        0.66031998       1.41863563       0.04933750
C       -0.40632984      -0.75770063       0.03662907
C       -1.70039060      -0.08620004       0.47581372
O       -2.16481882       0.85832814      -0.46001976
H        2.33082719      -1.15717364      -0.76582582
H        1.80519621       1.26659188      -0.64727699
H        2.86817108       0.16123380       0.34330997
H       -0.52015660      -1.17034051      -0.97084945
H       -0.17189585      -1.60809600       0.68496816
H       -1.56963229       0.36688109       1.46545717
H       -2.48401085      -0.84109808       0.56322672
H       -1.54158760       1.58954821      -0.46422956
14
Frame=7 idx=004131 GeodesicLength=0.35185613018174156 rxn_smarts="[C:1]([C:2](=[O:3])[C:4]([C:5]([O:6][H:14])([H:12])[H:13])([H:10])[H:11])([H:7])([H:8])[H:9]>>[C:1](=[C:2]([O:3][H:8])[C:4]([C:5]([O:6][H:14])([H:12])[H:13])([H:10])[H:11])([H:7])[H:9]"
C        2.10955506      -0.18207480      -0.33391522
C        0.78591517       0.14196012       0.05481449
O        0.65342153       1.42249794       0.00283546
C       -0.40779656      -0.75273805       0.02005124
C       -1.69869056      -0.09028090       0.48201135
O       -2.17408494       0.86853108      -0.43351652
H        2.33381082      -1.17986198      -0.69497210
H        1.81162979       1.25047897      -0.69816509
H        2.87039715       0.18550307       0.35196404
H       -0.52751256      -1.13813670      -0.99750275
H       -0.17208044      -1.62007492       0.64480783
H       -1.55922698       0.34714768       1.47770574
H       -2.48046822      -0.84766734       0.56458613
H       -1.54486925       1.59471582      -0.44070459
14
Frame=8 idx=004131 GeodesicLength=0.4016087121605091 rxn_smarts="[C:1]([C:2](=[O:3])[C:4]([C:5]([O:6][H:14])([H:12])[H:13])([H:10])[H:11])([H:7])([H:8])[H:9]>>[C:1](=[C:2]([O:3][H:8])[C:4]([C:5]([O:6][H:14])([H:12])[H:13])([H:10])[H:11])([H:7])[H:9]"
C        2.11092283      -0.18549371      -0.31106895
C        0.78444583       0.14751420       0.06257456
O        0.64674654       1.42488221      -0.04306068
C       -0.40903787      -0.74764677       0.00416653
C       -1.69699126      -0.09459804       0.48769578
O       -2.18216736       0.87858699      -0.40722596
H        2.33492936      -1.19931050      -0.62472480
H        1.81869580       1.23212037      -0.74786111
H        2.87225601       0.20881052       0.35894399
H       -0.53442836      -1.10665132      -1.02232126
H       -0.17170086      -1.63044189       0.60593766
H       -1.54952640       0.32683961       1.48932054
H       -2.47710960      -0.85432543       0.56447398
H       -1.54703467       1.59971377      -0.41685028
14
Frame=9 idx=004131 GeodesicLength=0.45129058574154585 rxn_smarts="[C:1]([C:2](=[O:3])[C:4]([C:5]([O:6][H:14])([H:12])[H:13])([H:10])[H:11])([H:7])([H:8])[H:9]>>[C:1](=[C:2]([O:3][H:8])[C:4]([C:5]([O:6][H:14])([H:12])[H:13])([H:10])[H:11])([H:7])[H:9]"
C        2.11148194      -0.18798051      -0.28917720
C        0.78253364       0.15369783       0.07017879
O        0.64026567       1.42595828      -0.08779128
C       -0.41004190      -0.74251547      -0.01084605
C       -1.69533216      -0.09910835       0.49283750
O       -2.18900379       0.88846228      -0.38141139
H        2.33414889      -1.21551400      -0.55599850
H        1.82632144       1.21202698      -0.79594928
H        2.87386184       0.23090846       0.36433520
H       -0.54092965      -1.07628246      -1.04513668
H       -0.17069132      -1.63921236       0.56883369
H       -1.54066119       0.30609108       1.50027699
H       -2.47401621      -0.86099267       0.56287712
H       -1.54793721       1.60446092      -0.39302892
14
Frame=10 idx=004131 GeodesicLength=0.5008493132748467 rxn_smarts="[C:1]([C:2](=[O:3])[C:4]([C:5]([O:6][H:14])([H:12])[H:13])([H:10])[H:11])([H:7])([H:8])[H:9]>>[C:1](=[C:2]([O:3][H:8])[C:4]([C:5]([O:6][H:14])([H:12])[H:13])([H:10])[H:11])([H:7])[H:9]"
C        2.11128669      -0.18950623      -0.26829960
C        0.78021107       0.16045034       0.07761380
O        0.63397894       1.42568393      -0.13091832
C       -0.41081468      -0.73739393      -0.02495104
C       -1.69374035      -0.10374967       0.49743419
O       -2.19455942       0.89815890      -0.35610792
H        2.33162349      -1.22843184      -0.48902343
H        1.83435661       1.19038272      -0.84237775
H        2.87516655       0.25175363       0.36802241
H       -0.54704668      -1.04715763      -1.06600187
H       -0.16904999      -1.64650140       0.53363155
H       -1.53272039       0.28496155       1.51055326
H       -2.47123015      -0.86748910       0.55982302
H       -1.54746169       1.60883874      -0.36939830
14
Frame=11 idx=004131 GeodesicLength=0.5504171355162305 rxn_smarts="[C:1]([C:2](=[O:3])[C:4]([C:5]([O:6][H:14])([H:12])[H:13])([H:10])[H:11])([H:7])([H:8])[H:9]>>[C:1](=[C:2]([O:3][H:8])[C:4]([C:5]([O:6][H:14])([H:12])[H:13])([H:10])[H:11])([H:7])[H:9]"
C        2.11042921      -0.19022688      -0.24851211
C        0.77752590       0.16771491       0.08480479
O        0.62779797       1.42448154      -0.17245615
C       -0.41137999      -0.73231888      -0.03818703
C       -1.69222916      -0.10850032       0.50155108
O       -2.19901051       0.90767375      -0.33136789
H        2.32753908      -1.23848845      -0.42415547
H        1.84280291       1.16760730      -0.88704158
H        2.87632787       0.27129556       0.37046728
H       -0.55289315      -1.01937859      -1.08505265
H       -0.16676205      -1.65244841       0.50035752
H       -1.52559264       0.26354674       1.52023078
H       -2.46877207      -0.87384599       0.55550848
H       -1.54578337       1.61288773      -0.34614704
14
Frame=12 idx=004131 GeodesicLength=0.5999418979951052 rxn_smarts="[C:1]([C:2](=[O:3])[C:4]([C:5]([O:6][H:14])([H:12])[H:13])([H:10])[H:11])([H:7])([H:8])[H:9]>>[C:1](=[C:2]([O:3][H:8])[C:4]([C:5]([O:6][H:14])([H:12])[H:13])([H:10])[H:11])([H:7])[H:9]"
C        2.10899545      -0.19015897      -0.22968248
C        0.77448186       0.17546126       0.09164008
O        0.62171154       1.42229104      -0.21260914
C       -0.41178310      -0.72726776      -0.05074325
C       -1.69078295      -0.11334108       0.50524286
O       -2.20244720       0.91706166      -0.30693697
H        2.32214476      -1.24580912      -0.36084565
H        1.85162252       1.14355234      -0.93020489
H        2.87726885       0.28977734       0.37175822
H       -0.55858750      -0.99274795      -1.10257138
H       -0.16388355      -1.65719634       0.46866048
H       -1.51913815       0.24173976       1.52933896
H       -2.46662887      -0.87996523       0.55004885
H       -1.54297366       1.61660304      -0.32309569
14
Frame=13 idx=004131 GeodesicLength=0.6495911888346224 rxn_smarts="[C:1]([C:2](=[O:3])[C:4]([C:5]([O:6][H:14])([H:12])[H:13])([H:10])[H:11])([H:7])([H:8])[H:9]>>[C:1](=[C:2]([O:3][H:8])[C:4]([C:5]([O:6][H:14])([H:12])[H:13])([H:10])[H:11])([H:7])[H:9]"
C        2.10704118      -0.18939555      -0.21169115
C        0.77109931       0.18365732       0.09810468
O        0.61569749       1.41932192      -0.25154718
C       -0.41205515      -0.72227955      -0.06274948
C       -1.68938230      -0.11827428       0.50856379
O       -2.20495151       0.92641325      -0.28269294
H        2.31558581      -1.25064814      -0.29877373
H        1.86074793       1.11826753      -0.97212793
H        2.87801823       0.30740448       0.37207588
H       -0.56423772      -0.96720313      -1.11883982
H       -0.16045433      -1.66097920       0.43832775
H       -1.51321328       0.21948030       1.53798122
H       -2.46478827      -0.88585572       0.54352909
H       -1.53910737       1.62009076      -0.30016019
14
Frame=14 idx=004131 GeodesicLength=0.6991864340747167 rxn_smarts="[C:1]([C:2](=[O:3])[C:4]([C:5]([O:6][H:14])([H:12])[H:13])([H:10])[H:11])([H:7])([H:8])[H:9]>>[C:1](=[C:2]([O:3][H:8])[C:4]([C:5]([O:6][H:14])([H:12])[H:13])([H:10])[H:11])([H:7])[H:9]"
C        2.10461247      -0.18794169      -0.19467463
C        0.76742842       0.19222813       0.10425482
O        0.60972389       1.41555475      -0.28888858
C       -0.41218710      -0.71733010      -0.07413770
C       -1.68805477      -0.12324118       0.51151279
O       -2.20656216       0.93561031      -0.25870252
H        2.30795758      -1.25297817      -0.23832215
H        1.87012545       1.09190033      -1.01256475
H        2.87861527       0.32401374       0.37135403
H       -0.56978923      -0.94274165      -1.13377977
H       -0.15649044      -1.66375175       0.40945720
H       -1.50790051       0.19690083       1.54605121
H       -2.46326064      -0.89138637       0.53604352
H       -1.53421822       1.62316281      -0.27760347
14
Frame=15 idx=004131 GeodesicLength=0.7489065273104228 rxn_smarts="[C:1]([C:2](=[O:3])[C:4]([C:5]([O:6][H:14])([H:12])[H:13])([H:10])[H:11])([H:7])([H:8])[H:9]>>[C:1](=[C:2]([O:3][H:8])[C:4]([C:5]([O:6][H:14])([H:12])[H:13])([H:10])[H:11])([H:7])[H:9]"
C        2.10175412      -0.18589770      -0.17852311
C        0.76349559       0.20114656       0.11012333
O        0.60377768       1.41127874      -0.32472627
C       -0.41220163      -0.71247704      -0.08495917
C       -1.68678867      -0.12824003       0.51415115
O       -2.20737016       0.94468367      -0.23498380
H        2.29934835      -1.25307470      -0.17964018
H        1.87976697       1.06465049      -1.05162895
H        2.87909359       0.33968012       0.36989616
H       -0.57530456      -0.91938967      -1.14759050
H       -0.15202489      -1.66573502       0.38199553
H       -1.50309884       0.17407083       1.55365649
H       -2.46202243      -0.89661037       0.52774735
H       -1.52842512       1.62591411      -0.25551803
14
Frame=16 idx=004131 GeodesicLength=0.7985429783756058 rxn_smarts="[C:1]([C:2](=[O:3])[C:4]([C:5]([O:6][H:14])([H:12])[H:13])([H:10])[H:11])([H:7])([H:8])[H:9]>>[C:1](=[C:2]([O:3][H:8])[C:4]([C:5]([O:6][H:14])([H:12])[H:13])([H:10])[H:11])([H:7])[H:9]"
C        2.09851565      -0.18328751      -0.16331951
C        0.75935330       0.21034241       0.11577977
O        0.59782377       1.40647581      -0.35875432
C       -0.41209126      -0.70768935      -0.09516906
C       -1.68559456      -0.13321304       0.51648565
O       -2.20746077       0.95351143      -0.21160357
H        2.28987171      -1.25095842      -0.12306662
H        1.88962242       1.03664226      -1.08910585
H        2.87949817       0.35425428       0.36769057
H       -0.58074399      -0.89709385      -1.16022777
H       -0.14707624      -1.66689913       0.35598094
H       -1.49882608       0.15114711       1.56069902
H       -2.46105114      -0.90142406       0.51877033
H       -1.52184099       1.62819206      -0.23415959
