8
Frame=0 idx=005035 GeodesicLength=0.0 rxn_smarts="[O:1]=[C:2]([N:3]([C:4](=[O:5])[H:8])[H:7])[H:6]>>[N:3](=[C:4](/[O:5][H:6])[H:8])\[H:7].[O+:1]#[C-:2]"
O       -2.32904715       0.68715350      -0.29492820
C       -1.25625071       0.39346935      -0.59673706
N       -0.08272094       0.08500873       0.75284849
C        0.99813002      -0.30157892       0.13992468
O        1.06193924      -0.22417892      -1.12829152
H       -0.10561452       0.10500979      -1.30091405
H       -0.14979649      -0.03657051       1.75183259
H        1.86336055      -0.70831305       0.67626505
8
Frame=1 idx=005035 GeodesicLength=0.06551188358018985 rxn_smarts="[O:1]=[C:2]([N:3]([C:4](=[O:5])[H:8])[H:7])[H:6]>>[N:3](=[C:4](/[O:5][H:6])[H:8])\[H:7].[O+:1]#[C-:2]"
O       -2.34044796       0.69312747      -0.29410263
C       -1.26017277       0.42474381      -0.59410321
N       -0.07644858       0.09009342       0.75128382
C        0.99794266      -0.32225482       0.14120964
O        1.05941304      -0.27765224      -1.12828298
H       -0.10791490       0.11909717      -1.30283793
H       -0.16307576      -0.07241130       1.74317284
H        1.89070426      -0.65474351       0.68366046
8
Frame=2 idx=005035 GeodesicLength=0.13059516845426714 rxn_smarts="[O:1]=[C:2]([N:3]([C:4](=[O:5])[H:8])[H:7])[H:6]>>[N:3](=[C:4](/[O:5][H:6])[H:8])\[H:7].[O+:1]#[C-:2]"
O       -2.34990332       0.70293297      -0.29511802
C       -1.26336738       0.45457812      -0.59088717
N       -0.07208057       0.08927362       0.75076912
C        0.99961692      -0.33869939       0.14411413
O        1.05415406      -0.33459316      -1.12606585
H       -0.10880868       0.13270168      -1.30338553
H       -0.17664266      -0.10946326       1.73450069
H        1.91703164      -0.59673059       0.68607263
8
Frame=3 idx=005035 GeodesicLength=0.19596324397042814 rxn_smarts="[O:1]=[C:2]([N:3]([C:4](=[O:5])[H:8])[H:7])[H:6]>>[N:3](=[C:4](/[O:5][H:6])[H:8])\[H:7].[O+:1]#[C-:2]"
O       -2.35691482       0.72055001      -0.29736344
C       -1.26634609       0.48154592      -0.58728643
N       -0.06958056       0.08312402       0.75120641
C        1.00318828      -0.35144402       0.14828615
O        1.04814298      -0.39109023      -1.12136261
H       -0.11012816       0.14043976      -1.30330220
H       -0.19069978      -0.15003570       1.72567185
H        1.94233815      -0.53308977       0.68415028
8
Frame=4 idx=005035 GeodesicLength=0.2614358932516881 rxn_smarts="[O:1]=[C:2]([N:3]([C:4](=[O:5])[H:8])[H:7])[H:6]>>[N:3](=[C:4](/[O:5][H:6])[H:8])\[H:7].[O+:1]#[C-:2]"
O       -2.36068431       0.74849661      -0.29977628
C       -1.26893561       0.50566000      -0.58333028
N       -0.06880926       0.07182512       0.75237915
C        1.00837857      -0.36165611       0.15356067
O        1.04304047      -0.44604926      -1.11396381
H       -0.11327107       0.13914254      -1.30301102
H       -0.20578010      -0.19637399       1.71589121
H        1.96606130      -0.46104491       0.67825037
8
Frame=5 idx=005035 GeodesicLength=0.32710498920327374 rxn_smarts="[O:1]=[C:2]([N:3]([C:4](=[O:5])[H:8])[H:7])[H:6]>>[N:3](=[C:4](/[O:5][H:6])[H:8])\[H:7].[O+:1]#[C-:2]"
O       -2.36201092       0.78240021      -0.30194450
C       -1.27107808       0.52727327      -0.57907526
N       -0.06885636       0.05781253       0.75413482
C        1.01466280      -0.37048103       0.15980747
O        1.03986076      -0.49850065      -1.10407155
H       -0.11761551       0.13190786      -1.30250561
H       -0.22098602      -0.24537979       1.70514095
H        1.98602334      -0.38503241       0.66851367
8
Frame=6 idx=005035 GeodesicLength=0.39292530381997803 rxn_smarts="[O:1]=[C:2]([N:3]([C:4](=[O:5])[H:8])[H:7])[H:6]>>[N:3](=[C:4](/[O:5][H:6])[H:8])\[H:7].[O+:1]#[C-:2]"
O       -2.36237974       0.81640145      -0.30394796
C       -1.27265919       0.54783927      -0.57445092
N       -0.06869150       0.04402303       0.75634050
C        1.02176358      -0.37785520       0.16674824
O        1.03888645      -0.54752616      -1.09218153
H       -0.12259452       0.12207375      -1.30172607
H       -0.23549658      -0.29343821       1.69347533
H        2.00117150      -0.31151792       0.65574240
8
Frame=7 idx=005035 GeodesicLength=0.45902982213463717 rxn_smarts="[O:1]=[C:2]([N:3]([C:4](=[O:5])[H:8])[H:7])[H:6]>>[N:3](=[C:4](/[O:5][H:6])[H:8])\[H:7].[O+:1]#[C-:2]"
O       -2.36063678       0.85344077      -0.30583360
C       -1.27315420       0.56801429      -0.56936491
N       -0.06902137       0.02828346       0.75910903
C        1.02955408      -0.38461557       0.17466305
O        1.03971384      -0.59547795      -1.07799279
H       -0.12842579       0.10862887      -1.30047691
H       -0.24988292      -0.34337781       1.68080282
H        2.01185316      -0.23489607       0.63909330
8
Frame=8 idx=005035 GeodesicLength=0.5252570104371705 rxn_smarts="[O:1]=[C:2]([N:3]([C:4](=[O:5])[H:8])[H:7])[H:6]>>[N:3](=[C:4](/[O:5][H:6])[H:8])\[H:7].[O+:1]#[C-:2]"
O       -2.35919321       0.88674125      -0.30785887
C       -1.27321053       0.58777854      -0.56389168
N       -0.06860373       0.01420322       0.76218664
C        1.03762236      -0.39109325       0.18312387
O        1.04229940      -0.64048163      -1.06240004
H       -0.13374251       0.09671154      -1.29876454
H       -0.26311625      -0.38967757       1.66764620
H        2.01794448      -0.16418210       0.61995842
8
Frame=9 idx=005035 GeodesicLength=0.5915708745460546 rxn_smarts="[O:1]=[C:2]([N:3]([C:4](=[O:5])[H:8])[H:7])[H:6]>>[N:3](=[C:4](/[O:5][H:6])[H:8])\[H:7].[O+:1]#[C-:2]"
O       -2.35778697       0.91831367      -0.30972539
C       -1.27337074       0.60631615      -0.55819458
N       -0.06772675       0.00109036       0.76535584
C        1.04617298      -0.39656580       0.19188543
O        1.04681118      -0.68279667      -1.04564854
H       -0.13904891       0.08535618      -1.29680714
H       -0.27530112      -0.43332030       1.65386460
H        2.02025033      -0.09839358       0.59926978
8
Frame=10 idx=005035 GeodesicLength=0.6579981726932549 rxn_smarts="[O:1]=[C:2]([N:3]([C:4](=[O:5])[H:8])[H:7])[H:6]>>[N:3](=[C:4](/[O:5][H:6])[H:8])\[H:7].[O+:1]#[C-:2]"
O       -2.35718611       0.94617926      -0.31194899
C       -1.27317420       0.62515276      -0.55205241
N       -0.06621426      -0.01056788       0.76879348
C        1.05496101      -0.40167987       0.20105862
O        1.05234420      -0.72354603      -1.02766799
H       -0.14366479       0.07625942      -1.29445049
H       -0.28668966      -0.47401472       1.63960327
H        2.01962380      -0.03778294       0.57666449
8
Frame=11 idx=005035 GeodesicLength=0.7246206928936884 rxn_smarts="[O:1]=[C:2]([N:3]([C:4](=[O:5])[H:8])[H:7])[H:6]>>[N:3](=[C:4](/[O:5][H:6])[H:8])\[H:7].[O+:1]#[C-:2]"
O       -2.35649185       0.97328460      -0.31419166
C       -1.27283771       0.64354925      -0.54555833
N       -0.06447590      -0.02192253       0.77244013
C        1.06417754      -0.40606481       0.21067600
O        1.05932528      -0.76304971      -1.00832666
H       -0.14826530       0.06752809      -1.29180231
H       -0.29753007      -0.51356439       1.62457932
H        2.01609802       0.02023951       0.55218350
8
Frame=12 idx=005035 GeodesicLength=0.7914872650461473 rxn_smarts="[O:1]=[C:2]([N:3]([C:4](=[O:5])[H:8])[H:7])[H:6]>>[N:3](=[C:4](/[O:5][H:6])[H:8])\[H:7].[O+:1]#[C-:2]"
O       -2.35406840       1.00370763      -0.31584701
C       -1.27255812       0.66039713      -0.53890982
N       -0.06307411      -0.03456713       0.77615077
C        1.07404860      -0.40909567       0.22077773
O        1.06871280      -0.80141224      -0.98735519
H       -0.15395929       0.05621709      -1.28893879
H       -0.30788170      -0.55427131       1.60836766
H        2.00878022       0.07902449       0.52575464
8
Frame=13 idx=005035 GeodesicLength=0.8586249919858715 rxn_smarts="[O:1]=[C:2]([N:3]([C:4](=[O:5])[H:8])[H:7])[H:6]>>[N:3](=[C:4](/[O:5][H:6])[H:8])\[H:7].[O+:1]#[C-:2]"
O       -2.35100846       1.03471739      -0.31730829
C       -1.27224628       0.67666235      -0.53196957
N       -0.06161184      -0.04729338       0.78002202
C        1.08436994      -0.41099265       0.23131513
O        1.07999227      -0.83870970      -0.96482656
H       -0.16016360       0.04429372      -1.28578851
H       -0.31766781      -0.59479856       1.59102878
H        1.99833578       0.13612083       0.49752700
8
Frame=14 idx=005035 GeodesicLength=0.9260277745546595 rxn_smarts="[O:1]=[C:2]([N:3]([C:4](=[O:5])[H:8])[H:7])[H:6]>>[N:3](=[C:4](/[O:5][H:6])[H:8])\[H:7].[O+:1]#[C-:2]"
O       -2.34727695       1.06638912      -0.31859071
C       -1.27193165       0.69240426      -0.52473354
N       -0.06011790      -0.06012769       0.78404037
C        1.09508114      -0.41171703       0.24228900
O        1.09323286      -0.87497514      -0.94066189
H       -0.16694068       0.03177997      -1.28233670
H       -0.32683162      -0.63522306       1.57248538
H        1.98478481       0.19146957       0.46750808
8
Frame=15 idx=005035 GeodesicLength=0.9937736522998344 rxn_smarts="[O:1]=[C:2]([N:3]([C:4](=[O:5])[H:8])[H:7])[H:6]>>[N:3](=[C:4](/[O:5][H:6])[H:8])\[H:7].[O+:1]#[C-:2]"
O       -2.34219632       1.10031327      -0.31941190
C       -1.27195966       0.70684306      -0.51737985
N       -0.05884511      -0.07369604       0.78802480
C        1.10616711      -0.41107074       0.25363244
O        1.10899174      -0.91005990      -0.91483953
H       -0.17462694       0.01784956      -1.27868294
H       -0.33513091      -0.67600219       1.55278340
H        1.96760007       0.24582298       0.43587359
8
Frame=16 idx=005035 GeodesicLength=1.0616239265389533 rxn_smarts="[O:1]=[C:2]([N:3]([C:4](=[O:5])[H:8])[H:7])[H:6]>>[N:3](=[C:4](/[O:5][H:6])[H:8])\[H:7].[O+:1]#[C-:2]"
O       -2.33768744       1.13273332      -0.32027067
C       -1.27251246       0.72091520      -0.50975208
N       -0.05730727      -0.08648615       0.79192478
C        1.11733165      -0.40961165       0.26510838
O        1.12631237      -0.94395033      -0.88775637
H       -0.18220644       0.00559414      -1.27495429
H       -0.34246795      -0.71488679       1.53234087
H        1.94853753       0.29569225       0.40335938
