14
Frame=0 idx=006636 GeodesicLength=0.0 rxn_smarts="[O:1]=[C:2]([C@@:3]1([H:9])[C@@:4]2([H:10])[C:5]([H:11])([H:12])[C:6]([H:13])([H:14])[N:7]12)[H:8]>>[O+:1]1=[C:2]([H:8])[C@@:3]2([H:9])[C@@:4]([H:10])([C:5]([H:11])([H:12])[C:6]1([H:13])[H:14])[N-:7]2"
O        0.42719267       1.05893253       1.41944905
C        1.03415664       1.30661298       0.38790074
C        0.52023886       0.95988360      -0.93138054
C       -0.09610949      -0.41329877      -1.08674577
C       -0.21611503      -1.27320593       0.14036556
C       -1.00570229      -0.37356081       1.03590130
N       -0.89518876       0.75689124      -0.97150537
H        1.99831356       1.82451739       0.46824556
H        1.07070082       1.37411851      -1.77367741
H        0.08296268      -0.87979637      -2.05910621
H        0.74053570      -1.56457339       0.57736475
H       -0.78107248      -2.19769148      -0.03863862
H       -0.87618314      -0.46390359       2.10674222
H       -2.00372975      -0.11492593       0.72508475
14
Frame=1 idx=006636 GeodesicLength=0.038542420932810316 rxn_smarts="[O:1]=[C:2]([C@@:3]1([H:9])[C@@:4]2([H:10])[C:5]([H:11])([H:12])[C:6]([H:13])([H:14])[N:7]12)[H:8]>>[O+:1]1=[C:2]([H:8])[C@@:3]2([H:9])[C@@:4]([H:10])([C:5]([H:11])([H:12])[C:6]1([H:13])[H:14])[N-:7]2"
O        0.44079790       1.04852647       1.42481057
C        1.03943513       1.30331698       0.38764672
C        0.51648565       0.96259435      -0.92763918
C       -0.09164132      -0.41634654      -1.08709212
C       -0.21623549      -1.27485853       0.14149026
C       -1.00275362      -0.36073756       1.02818551
N       -0.89958614       0.74625240      -0.96703757
H        2.00129503       1.82644853       0.46181743
H        1.05664378       1.38568404      -1.77194379
H        0.09739916      -0.88004781      -2.05874025
H        0.73852701      -1.56967803       0.58012993
H       -0.78728728      -2.19497255      -0.03757445
H       -0.88432158      -0.45476060       2.10021122
H       -2.00875824      -0.12142116       0.72573571
14
Frame=2 idx=006636 GeodesicLength=0.07709299836659189 rxn_smarts="[O:1]=[C:2]([C@@:3]1([H:9])[C@@:4]2([H:10])[C:5]([H:11])([H:12])[C:6]([H:13])([H:14])[N:7]12)[H:8]>>[O+:1]1=[C:2]([H:8])[C@@:3]2([H:9])[C@@:4]([H:10])([C:5]([H:11])([H:12])[C:6]1([H:13])[H:14])[N-:7]2"
O        0.45426350       1.03793610       1.43000128
C        1.04450069       1.30008111       0.38737106
C        0.51268220       0.96526009      -0.92387477
C       -0.08721393      -0.41938159      -1.08744457
C       -0.21649572      -1.27649438       0.14259226
C       -0.99979239      -0.34804137       1.02047636
N       -0.90391978       0.73559575      -0.96287338
H        2.00395347       1.82847930       0.45553467
H        1.04264033       1.39701067      -1.76999400
H        0.11197848      -0.88025093      -2.05825086
H        0.73635653      -1.57483360       0.58283510
H       -0.79357923      -2.19220176      -0.03660921
H       -0.89207806      -0.44553127       2.09355470
H       -2.01329609      -0.12762812       0.72668135
14
Frame=3 idx=006636 GeodesicLength=0.11564307000548962 rxn_smarts="[O:1]=[C:2]([C@@:3]1([H:9])[C@@:4]2([H:10])[C:5]([H:11])([H:12])[C:6]([H:13])([H:14])[N:7]12)[H:8]>>[O+:1]1=[C:2]([H:8])[C@@:3]2([H:9])[C@@:4]([H:10])([C:5]([H:11])([H:12])[C:6]1([H:13])[H:14])[N-:7]2"
O        0.46757826       1.02717256       1.43501672
C        1.04935962       1.29690224       0.38707767
C        0.50883622       0.96787835      -0.92009065
C       -0.08282993      -0.42240617      -1.08780468
C       -0.21689331      -1.27812073       0.14367028
C       -0.99681614      -0.33548071       1.01277800
N       -0.90819050       0.72492680      -0.95900653
H        2.00627840       1.83064437       0.44940759
H        1.02871891       1.40808128      -1.76784021
H        0.12667326      -0.88040238      -2.05764144
H        0.73403083      -1.58004612       0.58547790
H       -0.79994754      -2.18938932      -0.03574286
H       -0.89943982      -0.43623744       2.08678882
H       -2.01735826      -0.13352273       0.72790939
14
Frame=4 idx=006636 GeodesicLength=0.15418875751007022 rxn_smarts="[O:1]=[C:2]([C@@:3]1([H:9])[C@@:4]2([H:10])[C:5]([H:11])([H:12])[C:6]([H:13])([H:14])[N:7]12)[H:8]>>[O+:1]1=[C:2]([H:8])[C@@:3]2([H:9])[C@@:4]([H:10])([C:5]([H:11])([H:12])[C:6]1([H:13])[H:14])[N-:7]2"
O        0.48072133       1.01625582       1.43985164
C        1.05400826       1.29378037       0.38677065
C        0.50494918       0.97044518      -0.91628776
C       -0.07849100      -0.42542114      -1.08817278
C       -0.21742047      -1.27973714       0.14472098
C       -0.99381991      -0.32305868       1.00509222
N       -0.91239773       0.71424777      -0.95542506
H        2.00826672       1.83293912       0.44344886
H        1.01489823       1.41887464      -1.76549157
H        0.14145600      -0.88049812      -2.05691467
H        0.73155867      -1.58530804       0.58805228
H       -0.80637856      -2.18653757      -0.03497765
H       -0.90639604      -0.42689322       2.07992578
H       -2.02095467      -0.13908898       0.72940709
14
Frame=5 idx=006636 GeodesicLength=0.19273915790702437 rxn_smarts="[O:1]=[C:2]([C@@:3]1([H:9])[C@@:4]2([H:10])[C:5]([H:11])([H:12])[C:6]([H:13])([H:14])[N:7]12)[H:8]>>[O+:1]1=[C:2]([H:8])[C@@:3]2([H:9])[C@@:4]([H:10])([C:5]([H:11])([H:12])[C:6]1([H:13])[H:14])[N-:7]2"
O        0.49370237       1.00517811       1.44450273
C        1.05845845       1.29070726       0.38644935
C        0.50102319       0.97296081      -0.91246876
C       -0.07418936      -0.42843053      -1.08854697
C       -0.21807728      -1.28134860       0.14574551
C       -0.99080094      -0.31077513       0.99742011
N       -0.91654151       0.70355323      -0.95212083
H        2.00992143       1.83537374       0.43765412
H        1.00115946       1.42941830      -1.76296225
H        0.15634279      -0.88054120      -2.05606191
H        0.72893638      -1.59062953       0.59056228
H       -0.81287972      -2.18364798      -0.03431055
H       -0.91295209      -0.41750212       2.07297875
H       -2.02410317      -0.14431636       0.73115843
14
Frame=6 idx=006636 GeodesicLength=0.23130650431105382 rxn_smarts="[O:1]=[C:2]([C@@:3]1([H:9])[C@@:4]2([H:10])[C:5]([H:11])([H:12])[C:6]([H:13])([H:14])[N:7]12)[H:8]>>[O+:1]1=[C:2]([H:8])[C@@:3]2([H:9])[C@@:4]([H:10])([C:5]([H:11])([H:12])[C:6]1([H:13])[H:14])[N-:7]2"
O        0.50653428       0.99393398       1.44896892
C        1.06272311       1.28767322       0.38611398
C        0.49705991       0.97542134      -0.90863467
C       -0.06991898      -0.43144136      -1.08892645
C       -0.21886541      -1.28296169       0.14674163
C       -0.98775418      -0.29862866       0.98976098
N       -0.92062100       0.69283526      -0.94908490
H        2.01123672       1.83797167       0.43202191
H        0.98748423       1.43973138      -1.76026153
H        0.17135223      -0.88053600      -2.05507477
H        0.72615891      -1.59602303       0.59300748
H       -0.81946306      -2.18072170      -0.03374287
H       -0.91910960      -0.40806786       2.06595823
H       -2.02681716      -0.14918656       0.73315205
14
Frame=7 idx=006636 GeodesicLength=0.2698973121714641 rxn_smarts="[O:1]=[C:2]([C@@:3]1([H:9])[C@@:4]2([H:10])[C:5]([H:11])([H:12])[C:6]([H:13])([H:14])[N:7]12)[H:8]>>[O+:1]1=[C:2]([H:8])[C@@:3]2([H:9])[C@@:4]([H:10])([C:5]([H:11])([H:12])[C:6]1([H:13])[H:14])[N-:7]2"
O        0.51922748       0.98251884       1.45324497
C        1.06681319       1.28466941       0.38576312
C        0.49305994       0.97782517      -0.90478704
C       -0.06567378      -0.43445751      -1.08931031
C       -0.21978515      -1.28458081       0.14770859
C       -0.98467513      -0.28661785       0.98211603
N       -0.92463506       0.68208918      -0.94630730
H        2.01220990       1.84074479       0.42655006
H        0.97385381       1.44983231      -1.75739864
H        0.18650362      -0.88048392      -2.05394343
H        0.72322215      -1.60150054       0.59538758
H       -0.82613810      -2.17775668      -0.03327329
H       -0.92487063      -0.39859075       2.05887587
H       -2.02911225      -0.15369165       0.73537380
14
Frame=8 idx=006636 GeodesicLength=0.3085066237362867 rxn_smarts="[O:1]=[C:2]([C@@:3]1([H:9])[C@@:4]2([H:10])[C:5]([H:11])([H:12])[C:6]([H:13])([H:14])[N:7]12)[H:8]>>[O+:1]1=[C:2]([H:8])[C@@:3]2([H:9])[C@@:4]([H:10])([C:5]([H:11])([H:12])[C:6]1([H:13])[H:14])[N-:7]2"
O        0.53176149       0.97095532       1.45732783
C        1.07072864       1.28169970       0.38539926
C        0.48902752       0.98017174      -0.90092918
C       -0.06145723      -0.43747777      -1.08969898
C       -0.22082701      -1.28620545       0.14864606
C       -0.98156176      -0.27474642       0.97448586
N       -0.92858461       0.67132030      -0.94377536
H        2.01284938       1.84368078       0.42125094
H        0.96028945       1.45970499      -1.75438542
H        0.20175855      -0.88037956      -2.05267386
H        0.72013891      -1.60704996       0.59770232
H       -0.83288651      -2.17475959      -0.03289886
H       -0.93023295      -0.38908531       2.05174116
H       -2.03100389      -0.15782877       0.73780823
14
Frame=9 idx=006636 GeodesicLength=0.3471279043049724 rxn_smarts="[O:1]=[C:2]([C@@:3]1([H:9])[C@@:4]2([H:10])[C:5]([H:11])([H:12])[C:6]([H:13])([H:14])[N:7]12)[H:8]>>[O+:1]1=[C:2]([H:8])[C@@:3]2([H:9])[C@@:4]([H:10])([C:5]([H:11])([H:12])[C:6]1([H:13])[H:14])[N-:7]2"
O        0.54411076       0.95927435       1.46121269
C        1.07446276       1.27877356       0.38502415
C        0.48496281       0.98246355      -0.89706394
C       -0.05727212      -0.44049893      -1.09009158
C       -0.22197781      -1.28783212       0.14955480
C       -0.97841359      -0.26301652       0.96686990
N       -0.93247085       0.66053449      -0.94147480
H        2.01317911       1.84673435       0.41613355
H        0.94680279       1.46934066      -1.75123167
H        0.21708073      -0.88021712      -2.05126961
H        0.71692600      -1.61265254       0.59995285
H       -0.83968223      -2.17173636      -0.03261476
H       -0.93519994      -0.37956338       2.04456164
H       -2.03250841      -0.16160399       0.74043678
14
Frame=10 idx=006636 GeodesicLength=0.38575238665994377 rxn_smarts="[O:1]=[C:2]([C@@:3]1([H:9])[C@@:4]2([H:10])[C:5]([H:11])([H:12])[C:6]([H:13])([H:14])[N:7]12)[H:8]>>[O+:1]1=[C:2]([H:8])[C@@:3]2([H:9])[C@@:4]([H:10])([C:5]([H:11])([H:12])[C:6]1([H:13])[H:14])[N-:7]2"
O        0.55624334       0.94751391       1.46489740
C        1.07800585       1.27590598       0.38464035
C        0.48086426       0.98470634      -0.89319529
C       -0.05312230      -0.44351554      -1.09048807
C       -0.22322173      -1.28945570       0.15043702
C       -0.97523298      -0.25143150       0.95926869
N       -0.93629835       0.64973837      -0.93939160
H        2.01323798       1.84984221       0.41120502
H        0.93340644       1.47873223      -1.74795040
H        0.23243214      -0.87998874      -2.04973740
H        0.71360558      -1.61828460       0.60214176
H       -0.84649470      -2.16869412      -0.03241345
H       -0.93977878      -0.37003811       2.03734608
H       -2.03364674      -0.16503074       0.74323988
14
Frame=11 idx=006636 GeodesicLength=0.424394273160921 rxn_smarts="[O:1]=[C:2]([C@@:3]1([H:9])[C@@:4]2([H:10])[C:5]([H:11])([H:12])[C:6]([H:13])([H:14])[N:7]12)[H:8]>>[O+:1]1=[C:2]([H:8])[C@@:3]2([H:9])[C@@:4]([H:10])([C:5]([H:11])([H:12])[C:6]1([H:13])[H:14])[N-:7]2"
O        0.56819648       0.93564923       1.46838281
C        1.08139594       1.27306431       0.38424556
C        0.47674833       0.98688614      -0.88932384
C       -0.04900396      -0.44653870      -1.09088775
C       -0.22457101      -1.29108907       0.15128805
C       -0.97201081      -0.23998830       0.95168233
N       -0.94005487       0.63892934      -0.93751148
H        2.01297593       1.85311780       0.40646519
H        0.92009429       1.48788925      -1.74454838
H        0.24782724      -0.87970591      -2.04806849
H        0.71015781      -1.62398035       0.60426443
H       -0.85335925      -2.16563105      -0.03230049
H       -0.94396866      -0.36051433       2.03010170
H       -2.03442745      -0.16808835       0.74621035
14
Frame=12 idx=006636 GeodesicLength=0.4630606533227926 rxn_smarts="[O:1]=[C:2]([C@@:3]1([H:9])[C@@:4]2([H:10])[C:5]([H:11])([H:12])[C:6]([H:13])([H:14])[N:7]12)[H:8]>>[O+:1]1=[C:2]([H:8])[C@@:3]2([H:9])[C@@:4]([H:10])([C:5]([H:11])([H:12])[C:6]1([H:13])[H:14])[N-:7]2"
O        0.57999643       0.92365737       1.47166466
C        1.08466428       1.27022001       0.38383750
C        0.47262963       0.98899275      -0.88545066
C       -0.04491140      -0.44957469      -1.09129010
C       -0.22603171      -1.29273837       0.15210823
C       -0.96874008      -0.22868312       0.94411214
N       -0.94372939       0.62810749      -0.93582184
H        2.01235439       1.85663201       0.40191220
H        0.90685671       1.49682573      -1.74103273
H        0.26327258      -0.87937369      -2.04626040
H        0.70656712      -1.62976076       0.60632349
H       -0.86029658      -2.16254104      -0.03227431
H       -0.94777307      -0.35099132       2.02283716
H       -2.03485890      -0.17077237       0.74933465
14
Frame=13 idx=006636 GeodesicLength=0.5017429652138338 rxn_smarts="[O:1]=[C:2]([C@@:3]1([H:9])[C@@:4]2([H:10])[C:5]([H:11])([H:12])[C:6]([H:13])([H:14])[N:7]12)[H:8]>>[O+:1]1=[C:2]([H:8])[C@@:3]2([H:9])[C@@:4]([H:10])([C:5]([H:11])([H:12])[C:6]1([H:13])[H:14])[N-:7]2"
O        0.59158056       0.91160830       1.47474228
C        1.08776386       1.26742408       0.38341574
C        0.46848542       0.99104807      -0.88158135
C       -0.04084908      -0.45260895      -1.09169195
C       -0.22757604      -1.29438912       0.15290249
C       -0.96543171      -0.21752294       0.93655455
N       -0.94733958       0.61727340      -0.93430941
H        2.01148416       1.86018858       0.39754261
H        0.89368614       1.50554723      -1.73741696
H        0.27874415      -0.87896985      -2.04431130
H        0.70287381      -1.63556975       0.60832700
H       -0.86724448      -2.15943612      -0.03232428
H       -0.95121132      -0.34147938       2.01555487
H       -2.03496591      -0.17311356       0.75259570
14
Frame=14 idx=006636 GeodesicLength=0.5404499810006301 rxn_smarts="[O:1]=[C:2]([C@@:3]1([H:9])[C@@:4]2([H:10])[C:5]([H:11])([H:12])[C:6]([H:13])([H:14])[N:7]12)[H:8]>>[O+:1]1=[C:2]([H:8])[C@@:3]2([H:9])[C@@:4]([H:10])([C:5]([H:11])([H:12])[C:6]1([H:13])[H:14])[N-:7]2"
O        0.60298596       0.89947813       1.47761649
C        1.09074069       1.26464141       0.38298058
C        0.46433793       0.99303814      -0.87771665
C       -0.03681540      -0.45565255      -1.09209585
C       -0.22921379      -1.29605332       0.15366763
C       -0.96207855      -0.20650184       0.92901168
N       -0.95087419       0.60643263      -0.93296056
H        2.01031206       1.86390748       0.39336319
H        0.88058312       1.51405898      -1.73370756
H        0.29423900      -0.87851104      -2.04222362
H        0.69906276      -1.64144119       0.61027189
H       -0.87423401      -2.15631557      -0.03245404
H       -0.95428476      -0.33197716       2.00826463
H       -2.03476082      -0.17510410       0.75598221
14
Frame=15 idx=006636 GeodesicLength=0.5791935175784971 rxn_smarts="[O:1]=[C:2]([C@@:3]1([H:9])[C@@:4]2([H:10])[C:5]([H:11])([H:12])[C:6]([H:13])([H:14])[N:7]12)[H:8]>>[O+:1]1=[C:2]([H:8])[C@@:3]2([H:9])[C@@:4]([H:10])([C:5]([H:11])([H:12])[C:6]1([H:13])[H:14])[N-:7]2"
O        0.61422501       0.88726321       1.48028500
C        1.09360426       1.26186377       0.38252856
C        0.46018913       0.99495963      -0.87385796
C       -0.03280849      -0.45870801      -1.09249940
C       -0.23094556      -1.29773224       0.15440379
C       -0.95867488      -0.19561700       0.92148149
N       -0.95433005       0.59558108      -0.93176222
H        2.00883438       1.86779234       0.38937092
H        0.86752735       1.52237750      -1.72990907
H        0.30977245      -0.87799791      -2.03998554
H        0.69512728      -1.64737934       0.61215967
H       -0.88127290      -2.15317413      -0.03266254
H       -0.95699777      -0.32248070       2.00096651
H       -2.03425023      -0.17674819       0.75948077
14
Frame=16 idx=006636 GeodesicLength=0.6179623437702645 rxn_smarts="[O:1]=[C:2]([C@@:3]1([H:9])[C@@:4]2([H:10])[C:5]([H:11])([H:12])[C:6]([H:13])([H:14])[N:7]12)[H:8]>>[O+:1]1=[C:2]([H:8])[C@@:3]2([H:9])[C@@:4]([H:10])([C:5]([H:11])([H:12])[C:6]1([H:13])[H:14])[N-:7]2"
O        0.62527195       0.87499571       1.48274899
C        1.09635789       1.25909537       0.38205967
C        0.45604712       0.99681479      -0.87001006
C       -0.02883346      -0.46177082      -1.09290390
C       -0.23275923      -1.29942288       0.15511236
C       -0.95522528      -0.18487210       0.91396463
N       -0.95770583       0.58473125      -0.93069879
H        2.00707179       1.87181766       0.38557268
H        0.85454219       1.53049012      -1.72603308
H        0.32529769      -0.87742561      -2.03760992
H        0.69108628      -1.65336714       0.61399128
H       -0.88833612      -2.15002065      -0.03294197
H       -0.95936255      -0.31300672       1.99366850
H       -2.03345243      -0.17805897       0.76307960
