12
Frame=0 idx=001030 GeodesicLength=0.0 rxn_smarts="[O:1]([C:2]1([C:5](=[O:6])[H:12])[C:3]([H:8])([H:9])[C:4]1([H:10])[H:11])[H:7]>>[O:1]([C:2]1=[C:5]([H:12])[O:6][C:4]([H:10])([H:11])[C:3]1([H:8])[H:9])[H:7]"
O        0.39702168       0.41112708      -1.94371819
C        0.35458512       0.03319021      -0.63036970
C       -0.91201392      -0.65693249      -0.16114778
C       -1.01950033       0.10102095       1.05710631
C        1.41626218       0.07429394       0.26293769
O        1.24630131       0.05471654       1.49984735
H        0.82959083       1.26284411      -2.02496339
H       -0.83371733      -1.73719151      -0.04437406
H       -1.67627785      -0.40083192      -0.89545101
H       -0.94761320      -0.33974350       2.03846062
H       -1.28894877       1.14664737       0.99454703
H        2.43431024       0.05085921      -0.15287487
12
Frame=1 idx=001030 GeodesicLength=0.05398242895353153 rxn_smarts="[O:1]([C:2]1([C:5](=[O:6])[H:12])[C:3]([H:8])([H:9])[C:4]1([H:10])[H:11])[H:7]>>[O:1]([C:2]1=[C:5]([H:12])[O:6][C:4]([H:10])([H:11])[C:3]1([H:8])[H:9])[H:7]"
O        0.38126947       0.44795356      -1.93147262
C        0.34664662       0.03724215      -0.62777569
C       -0.91043061      -0.66863509      -0.16378421
C       -1.00107129       0.10656224       1.04957572
C        1.41875087       0.06085764       0.25371607
O        1.24908144       0.12807844       1.49087606
H        0.83992855       1.28789236      -1.99395352
H       -0.82005892      -1.74706334      -0.04148957
H       -1.68303802      -0.42321284      -0.89256088
H       -0.94341169      -0.33603429       2.03144940
H       -1.31242234       1.14032981       0.98053789
H        2.43475591      -0.03397065      -0.15511865
12
Frame=2 idx=001030 GeodesicLength=0.10772080352966798 rxn_smarts="[O:1]([C:2]1([C:5](=[O:6])[H:12])[C:3]([H:8])([H:9])[C:4]1([H:10])[H:11])[H:7]>>[O:1]([C:2]1=[C:5]([H:12])[O:6][C:4]([H:10])([H:11])[C:3]1([H:8])[H:9])[H:7]"
O        0.36689883       0.48153104      -1.91951115
C        0.33904368       0.04019090      -0.62572110
C       -0.90941689      -0.67933980      -0.16668006
C       -0.98244927       0.11188414       1.04231371
C        1.41998653       0.04981950       0.24544577
O        1.25223621       0.19638754       1.47801460
H        0.85058706       1.30878290      -1.96532208
H       -0.80828147      -1.75603975      -0.03989690
H       -1.69000250      -0.44281825      -0.88946198
H       -0.93766496      -0.33330567       2.02414929
H       -1.33237968       1.13324824       0.96892167
H        2.43144247      -0.11034078      -0.15225178
12
Frame=3 idx=001030 GeodesicLength=0.16138825770847026 rxn_smarts="[O:1]([C:2]1([C:5](=[O:6])[H:12])[C:3]([H:8])([H:9])[C:4]1([H:10])[H:11])[H:7]>>[O:1]([C:2]1=[C:5]([H:12])[O:6][C:4]([H:10])([H:11])[C:3]1([H:8])[H:9])[H:7]"
O        0.35338370       0.51275564      -1.90778850
C        0.33153083       0.04296584      -0.62399031
C       -0.90873757      -0.68912232      -0.16973294
C       -0.96377912       0.11695131       1.03535549
C        1.42019274       0.04128401       0.23794126
O        1.25562425       0.26031539       1.46224787
H        0.86211508       1.32590454      -1.93938150
H       -0.79745946      -1.76417668      -0.03949957
H       -1.69711751      -0.46035237      -0.88608574
H       -0.93078876      -0.33157252       2.01663693
H       -1.34974743       1.12543553       0.95962772
H        2.42478323      -0.18038837      -0.14533071
12
Frame=4 idx=001030 GeodesicLength=0.21533283295565123 rxn_smarts="[O:1]([C:2]1([C:5](=[O:6])[H:12])[C:3]([H:8])([H:9])[C:4]1([H:10])[H:11])[H:7]>>[O:1]([C:2]1=[C:5]([H:12])[O:6][C:4]([H:10])([H:11])[C:3]1([H:8])[H:9])[H:7]"
O        0.34055998       0.54226642      -1.89634898
C        0.32421501       0.04552005      -0.62272268
C       -0.90820210      -0.69818711      -0.17299406
C       -0.94501821       0.12174280       1.02854567
C        1.41980147       0.03489021       0.23080761
O        1.25899455       0.32150988       1.44377746
H        0.87342835       1.34059621      -1.91546894
H       -0.78726640      -1.77166033      -0.04020058
H       -1.70433218      -0.47624332      -0.88243953
H       -0.92271211      -0.33070015       2.00885629
H       -1.36485427       1.11694748       0.95218967
H        2.41538591      -0.24668214      -0.13400192
12
Frame=5 idx=001030 GeodesicLength=0.2693669836231425 rxn_smarts="[O:1]([C:2]1([C:5](=[O:6])[H:12])[C:3]([H:8])([H:9])[C:4]1([H:10])[H:11])[H:7]>>[O:1]([C:2]1=[C:5]([H:12])[O:6][C:4]([H:10])([H:11])[C:3]1([H:8])[H:9])[H:7]"
O        0.32813092       0.57037287      -1.88519207
C        0.31703044       0.04803304      -0.62183103
C       -0.90777198      -0.70660121      -0.17639553
C       -0.92623791       0.12638084       1.02187592
C        1.41899837       0.03028447       0.22393700
O        1.26237302       0.37908914       1.42337349
H        0.88480950       1.35287417      -1.89376112
H       -0.77745354      -1.77854761      -0.04178753
H       -1.71166450      -0.49084232      -0.87852966
H       -0.91395486      -0.33047519       2.00089402
H       -1.37785587       1.10808451       0.94641638
H        2.40359641      -0.30865272      -0.11899987
12
Frame=6 idx=001030 GeodesicLength=0.32341345559778534 rxn_smarts="[O:1]([C:2]1([C:5](=[O:6])[H:12])[C:3]([H:8])([H:9])[C:4]1([H:10])[H:11])[H:7]>>[O:1]([C:2]1=[C:5]([H:12])[O:6][C:4]([H:10])([H:11])[C:3]1([H:8])[H:9])[H:7]"
O        0.31596428       0.59728685      -1.87417152
C        0.30999375       0.05038826      -0.62124808
C       -0.90745613      -0.71446955      -0.17987991
C       -0.90747101       0.13096587       1.01524771
C        1.41794013       0.02684777       0.21722245
O        1.26574498       0.43262612       1.40156974
H        0.89618267       1.36295607      -1.87397632
H       -0.76807921      -1.78492680      -0.04402205
H       -1.71910190      -0.50440664      -0.87434237
H       -0.90493972      -0.33064627       1.99271357
H       -1.38876402       1.09910723       0.94193277
H        2.38998619      -0.36572891      -0.10104599
12
Frame=7 idx=001030 GeodesicLength=0.3777253715180624 rxn_smarts="[O:1]([C:2]1([C:5](=[O:6])[H:12])[C:3]([H:8])([H:9])[C:4]1([H:10])[H:11])[H:7]>>[O:1]([C:2]1=[C:5]([H:12])[O:6][C:4]([H:10])([H:11])[C:3]1([H:8])[H:9])[H:7]"
O        0.30405172       0.62330361      -1.86336370
C        0.30312845       0.05275471      -0.62103222
C       -0.90712586      -0.72182644      -0.18352106
C       -0.88862893       0.13537208       1.00867356
C        1.41678909       0.02456670       0.21047701
O        1.26906016       0.48369528       1.37825790
H        0.90712929       1.37148941      -1.85596180
H       -0.75890281      -1.79084496      -0.04709829
H       -1.72659433      -0.51699092      -0.86987848
H       -0.89528968      -0.33139529       1.98431048
H       -1.39798601       1.08981670       0.93873659
H        2.37436892      -0.41994087      -0.07960001
12
Frame=8 idx=001030 GeodesicLength=0.43228829676649355 rxn_smarts="[O:1]([C:2]1([C:5](=[O:6])[H:12])[C:3]([H:8])([H:9])[C:4]1([H:10])[H:11])[H:7]>>[O:1]([C:2]1=[C:5]([H:12])[O:6][C:4]([H:10])([H:11])[C:3]1([H:8])[H:9])[H:7]"
O        0.29240597       0.64845484      -1.85276873
C        0.29649812       0.05498006      -0.62121242
C       -0.90675735      -0.72876373      -0.18732185
C       -0.86968831       0.13967541       1.00205349
C        1.41569820       0.02309539       0.20358869
O        1.27235571       0.53217837       1.35366007
H        0.91718522       1.37897328      -1.83933869
H       -0.74993697      -1.79638992      -0.05086926
H       -1.73410593      -0.52876935      -0.86518495
H       -0.88513660      -0.33251931       1.97565186
H       -1.40546765       1.08042257       0.93652524
H        2.35694959      -0.47133761      -0.05478345
12
Frame=9 idx=001030 GeodesicLength=0.48720873551155686 rxn_smarts="[O:1]([C:2]1([C:5](=[O:6])[H:12])[C:3]([H:8])([H:9])[C:4]1([H:10])[H:11])[H:7]>>[O:1]([C:2]1=[C:5]([H:12])[O:6][C:4]([H:10])([H:11])[C:3]1([H:8])[H:9])[H:7]"
O        0.28020645       0.67393276      -1.84200607
C        0.28977262       0.05793167      -0.62157499
C       -0.90624410      -0.73519503      -0.19122181
C       -0.85074274       0.14362597       0.99566598
C        1.41447889       0.02285457       0.19654726
O        1.27552543       0.57864527       1.32803974
H        0.92861811       1.38392825      -1.82543755
H       -0.74055742      -1.80143390      -0.05561686
H       -1.74166723      -0.53995511      -0.86005005
H       -0.87439714      -0.33454534       1.96687360
H       -1.41180116       1.07048557       0.93581631
H        2.33680827      -0.52027468      -0.02703556
12
Frame=10 idx=001030 GeodesicLength=0.5425203815172966 rxn_smarts="[O:1]([C:2]1([C:5](=[O:6])[H:12])[C:3]([H:8])([H:9])[C:4]1([H:10])[H:11])[H:7]>>[O:1]([C:2]1=[C:5]([H:12])[O:6][C:4]([H:10])([H:11])[C:3]1([H:8])[H:9])[H:7]"
O        0.26839936       0.69854997      -1.83147143
C        0.28336632       0.06060099      -0.62236485
C       -0.90567961      -0.74127445      -0.19533539
C       -0.83156782       0.14743569       0.98917024
C        1.41351000       0.02294655       0.18919667
O        1.27873224       0.62303045       1.30120614
H        0.93860241       1.38842743      -1.81256337
H       -0.73148757      -1.80618593      -0.06111866
H       -1.74922988      -0.55034576      -0.85468996
H       -0.86305960      -0.33695345       1.95779363
H       -1.41640817       1.06050016       0.93587336
H        2.31482232      -0.56673165       0.00430363
12
Frame=11 idx=001030 GeodesicLength=0.5981947863465251 rxn_smarts="[O:1]([C:2]1([C:5](=[O:6])[H:12])[C:3]([H:8])([H:9])[C:4]1([H:10])[H:11])[H:7]>>[O:1]([C:2]1=[C:5]([H:12])[O:6][C:4]([H:10])([H:11])[C:3]1([H:8])[H:9])[H:7]"
O        0.25617278       0.72351798      -1.82062413
C        0.27696017       0.06371572      -0.62330978
C       -0.90504242      -0.74692346      -0.19959413
C       -0.81235535       0.15089334       0.98286590
C        1.41256294       0.02360235       0.18169600
O        1.28184811       0.66543990       1.27362084
H        0.94955434       1.39058065      -1.80215580
H       -0.72228557      -1.81054329      -0.06760803
H       -1.75686848      -0.56012029      -0.84895384
H       -0.85125870      -0.34019941       1.94858731
H       -1.41980590       1.05014851       0.93719597
H        2.29051811      -0.61011200       0.03827969
12
Frame=12 idx=001030 GeodesicLength=0.6543111910163475 rxn_smarts="[O:1]([C:2]1([C:5](=[O:6])[H:12])[C:3]([H:8])([H:9])[C:4]1([H:10])[H:11])[H:7]>>[O:1]([C:2]1=[C:5]([H:12])[O:6][C:4]([H:10])([H:11])[C:3]1([H:8])[H:9])[H:7]"
O        0.24428022       0.74785050      -1.80985196
C        0.27082737       0.06663784      -0.62457858
C       -0.90438784      -0.75223676      -0.20406918
C       -0.79291565       0.15412444       0.97651271
C        1.41188320       0.02427828       0.17391035
O        1.28502051       0.70587572       1.24509093
H        0.95947230       1.39202859      -1.79291738
H       -0.71342015      -1.81463554      -0.07492600
H       -1.76453618      -0.56913499      -0.84296893
H       -0.83893781      -0.34395205       1.93911351
H       -1.42161187       1.03973990       0.93928478
H        2.26432592      -0.65057593       0.07539975
12
Frame=13 idx=001030 GeodesicLength=0.7107857769010204 rxn_smarts="[O:1]([C:2]1([C:5](=[O:6])[H:12])[C:3]([H:8])([H:9])[C:4]1([H:10])[H:11])[H:7]>>[O:1]([C:2]1=[C:5]([H:12])[O:6][C:4]([H:10])([H:11])[C:3]1([H:8])[H:9])[H:7]"
O        0.23228327       0.77230948      -1.79872062
C        0.26478378       0.06976381      -0.62595280
C       -0.90373370      -0.75717111      -0.20871349
C       -0.77342217       0.15700434       0.97030733
C        1.41132465       0.02505497       0.16601287
O        1.28813026       0.74423713       1.21609353
H        0.96981073       1.39142372      -1.78578236
H       -0.70470019      -1.81840508      -0.08318275
H       -1.77227727      -0.57747989      -0.83666612
H       -0.82633262      -0.34847041       1.92948993
H       -1.42212742       1.02914230       0.94239812
H        2.23626069      -0.68740925       0.11471635
12
Frame=14 idx=001030 GeodesicLength=0.767643011895774 rxn_smarts="[O:1]([C:2]1([C:5](=[O:6])[H:12])[C:3]([H:8])([H:9])[C:4]1([H:10])[H:11])[H:7]>>[O:1]([C:2]1=[C:5]([H:12])[O:6][C:4]([H:10])([H:11])[C:3]1([H:8])[H:9])[H:7]"
O        0.22078161       0.79608971      -1.78752188
C        0.25899609       0.07264840      -0.62749007
C       -0.90315136      -0.76180176      -0.21353542
C       -0.75379798       0.15963340       0.96409052
C        1.41099362       0.02546453       0.15800953
O        1.29129304       0.78044874       1.18657675
H        0.97930536       1.38995810      -1.77969425
H       -0.69649666      -1.82195452      -0.09218815
H       -1.78006083      -0.58508817      -0.83013540
H       -0.81353340      -0.35347246       1.91963694
H       -1.42115154       1.01860717       0.94613315
H        2.20682205      -0.72053314       0.15611830
12
Frame=15 idx=001030 GeodesicLength=0.8248698978827969 rxn_smarts="[O:1]([C:2]1([C:5](=[O:6])[H:12])[C:3]([H:8])([H:9])[C:4]1([H:10])[H:11])[H:7]>>[O:1]([C:2]1=[C:5]([H:12])[O:6][C:4]([H:10])([H:11])[C:3]1([H:8])[H:9])[H:7]"
O        0.20962764       0.81954880      -1.77603748
C        0.25337822       0.07548515      -0.62906290
C       -0.90265257      -0.76611285      -0.21851291
C       -0.73414092       0.16194233       0.95796823
C        1.41081576       0.02556156       0.15001950
O        1.29444061       0.81455844       1.15682844
H        0.98859826       1.38700138      -1.77506172
H       -0.68872043      -1.82526030      -0.10199121
H       -1.78790171      -0.59200833      -0.82335474
H       -0.80067832      -0.35908520       1.90961824
H       -1.41888164       1.00806876       0.95058664
H        2.17611510      -0.74969974       0.19899990
12
Frame=16 idx=001030 GeodesicLength=0.8824360146038444 rxn_smarts="[O:1]([C:2]1([C:5](=[O:6])[H:12])[C:3]([H:8])([H:9])[C:4]1([H:10])[H:11])[H:7]>>[O:1]([C:2]1=[C:5]([H:12])[O:6][C:4]([H:10])([H:11])[C:3]1([H:8])[H:9])[H:7]"
O        0.19909131       0.84235351      -1.76436674
C        0.24797129       0.07811942      -0.63063358
C       -0.90228343      -0.77014759      -0.22361610
C       -0.71448892       0.16398115       0.95189713
C        1.41078918       0.02513612       0.14212702
O        1.29760343       0.84649871       1.12698560
H        0.99732349       1.38299534      -1.77139325
H       -0.68152406      -1.82837159      -0.11244092
H       -1.79578579      -0.59826884      -0.81636225
H       -0.78794693      -0.36515072       1.89942955
H       -1.41533674       0.99766030       0.95553829
H        2.14458719      -0.77480581       0.24283523
