14
Frame=0 idx=007710 GeodesicLength=0.0 rxn_smarts="[C:1](/[N:2]=[C:3]1\[O:4][C@@:5]2([H:11])[C:6]([H:12])([H:13])[C@@:7]12[H:14])([H:8])([H:9])[H:10]>>[C:1]([O:4][C@@:5]1([H:11])[C:6]([H:12])([H:13])[C@:7]1([C:3]#[N:2])[H:14])([H:8])([H:9])[H:10]"
C        2.20066487      -0.57004517       0.51453137
N        1.12239486       1.65074960       0.60829247
C        0.25162710       1.06311820       0.02001107
O        0.48667362      -0.30262018      -0.48117834
C       -0.91012651      -0.44466867      -0.89345514
C       -1.80523053      -0.25654716       0.27212977
C       -1.19983435       0.94107841      -0.43636128
H        2.92981270       0.08255523       0.06432745
H        2.00188130      -0.41173490       1.56214374
H        2.13441555      -1.57851050       0.13577638
H       -1.11381760      -0.95547538      -1.82138932
H       -1.45695714      -0.52180027       1.26307562
H       -2.86161956      -0.41846882       0.09290113
H       -1.77988435       1.72236960      -0.90080486
14
Frame=1 idx=007710 GeodesicLength=0.0668968292525309 rxn_smarts="[C:1](/[N:2]=[C:3]1\[O:4][C@@:5]2([H:11])[C:6]([H:12])([H:13])[C@@:7]12[H:14])([H:8])([H:9])[H:10]>>[C:1]([O:4][C@@:5]1([H:11])[C:6]([H:12])([H:13])[C@:7]1([C:3]#[N:2])[H:14])([H:8])([H:9])[H:10]"
C        2.18631248      -0.56555073       0.51412423
N        1.11757074       1.65339787       0.61208515
C        0.24808128       1.08445707       0.00434077
O        0.49258164      -0.30054342      -0.50330164
C       -0.90637891      -0.44484703      -0.89308539
C       -1.79616007      -0.25715094       0.27642751
C       -1.20138022       0.94206176      -0.43822841
H        2.94142464       0.07311863       0.08565228
H        1.98815486      -0.43172749       1.56614203
H        2.12944253      -1.57355302       0.12989337
H       -1.11974835      -0.95571269      -1.81902850
H       -1.43839565      -0.51581457       1.26566565
H       -2.85301834      -0.42405704       0.10536997
H       -1.78848662       1.71592159      -0.90605702
14
Frame=2 idx=007710 GeodesicLength=0.13383832825170866 rxn_smarts="[C:1](/[N:2]=[C:3]1\[O:4][C@@:5]2([H:11])[C:6]([H:12])([H:13])[C@@:7]12[H:14])([H:8])([H:9])[H:10]>>[C:1]([O:4][C@@:5]1([H:11])[C:6]([H:12])([H:13])[C@:7]1([C:3]#[N:2])[H:14])([H:8])([H:9])[H:10]"
C        2.17205714      -0.56072084       0.51350673
N        1.11273941       1.65625957       0.61509800
C        0.24404869       1.10588173      -0.01026311
O        0.49837504      -0.29872590      -0.52486540
C       -0.90232365      -0.44489171      -0.89257147
C       -1.78716810      -0.25777341       0.28057541
C       -1.20281425       0.94306414      -0.43985297
H        2.95231629       0.06287807       0.10662292
H        1.97506261      -0.45155818       1.56950024
H        2.12440726      -1.56842633       0.12446408
H       -1.12511973      -0.95576114      -1.81652265
H       -1.42031572      -0.50997238       1.26809417
H       -2.84436262      -0.42964217       0.11732508
H       -1.79690236       1.70938856      -0.91111102
14
Frame=3 idx=007710 GeodesicLength=0.2007933979478389 rxn_smarts="[C:1](/[N:2]=[C:3]1\[O:4][C@@:5]2([H:11])[C:6]([H:12])([H:13])[C@@:7]12[H:14])([H:8])([H:9])[H:10]>>[C:1]([O:4][C@@:5]1([H:11])[C:6]([H:12])([H:13])[C@:7]1([C:3]#[N:2])[H:14])([H:8])([H:9])[H:10]"
C        2.15790459      -0.55554887       0.51267749
N        1.10788231       1.65932161       0.61738756
C        0.23951046       1.12736692      -0.02378988
O        0.50407031      -0.29719875      -0.54583874
C       -0.89794255      -0.44480998      -0.89189567
C       -1.77825970      -0.25839167       0.28457286
C       -1.20413080       0.94406922      -0.44124279
H        2.96243225       0.05183557       0.12719318
H        1.96259272      -0.47121392       1.57218653
H        2.11932311      -1.56311040       0.11944798
H       -1.12988863      -0.95564102      -1.81384304
H       -1.40274797      -0.50423645       1.27036358
H       -2.83564837      -0.43519098       0.12875965
H       -1.80509772       1.70274873      -0.91597871
14
Frame=4 idx=007710 GeodesicLength=0.26781866363924955 rxn_smarts="[C:1](/[N:2]=[C:3]1\[O:4][C@@:5]2([H:11])[C:6]([H:12])([H:13])[C@@:7]12[H:14])([H:8])([H:9])[H:10]>>[C:1]([O:4][C@@:5]1([H:11])[C:6]([H:12])([H:13])[C@:7]1([C:3]#[N:2])[H:14])([H:8])([H:9])[H:10]"
C        2.14376669      -0.55007677       0.51175284
N        1.10312575       1.66269770       0.61886814
C        0.23450396       1.14904480      -0.03643970
O        0.50973071      -0.29583286      -0.56648483
C       -0.89325349      -0.44456540      -0.89114768
C       -1.76929954      -0.25906551       0.28846325
C       -1.20536141       0.94509728      -0.44242960
H        2.97183337       0.03993088       0.14759715
H        1.95049066      -0.49075721       1.57428486
H        2.11404667      -1.55764138       0.11487619
H       -1.13419428      -0.95532660      -1.81106765
H       -1.38539880      -0.49865182       1.27249468
H       -2.82677202      -0.44085261       0.13984729
H       -1.81321827       1.69599950      -0.92061494
14
Frame=5 idx=007710 GeodesicLength=0.33499048189718733 rxn_smarts="[C:1](/[N:2]=[C:3]1\[O:4][C@@:5]2([H:11])[C:6]([H:12])([H:13])[C@@:7]12[H:14])([H:8])([H:9])[H:10]>>[C:1]([O:4][C@@:5]1([H:11])[C:6]([H:12])([H:13])[C@:7]1([C:3]#[N:2])[H:14])([H:8])([H:9])[H:10]"
C        2.12948868      -0.54435190       0.51077828
N        1.09849738       1.66644849       0.61946762
C        0.22905800       1.17100984      -0.04842327
O        0.51544110      -0.29452975      -0.58705350
C       -0.88820603      -0.44413059      -0.89038977
C       -1.76010493      -0.25982300       0.29230228
C       -1.20650004       0.94614907      -0.44342937
H        2.98044961       0.02712908       0.16809742
H        1.93840428      -0.51023911       1.57582053
H        2.10841078      -1.55203016       0.11070942
H       -1.13806755      -0.95480597      -1.80822570
H       -1.36795814      -0.49320513       1.27450276
H       -2.81755214      -0.44672314       0.15078865
H       -1.82136100       1.68910227      -0.92494534
14
Frame=6 idx=007710 GeodesicLength=0.4022389974992137 rxn_smarts="[C:1](/[N:2]=[C:3]1\[O:4][C@@:5]2([H:11])[C:6]([H:12])([H:13])[C@@:7]12[H:14])([H:8])([H:9])[H:10]>>[C:1]([O:4][C@@:5]1([H:11])[C:6]([H:12])([H:13])[C@:7]1([C:3]#[N:2])[H:14])([H:8])([H:9])[H:10]"
C        2.11525036      -0.53833336       0.50972168
N        1.09398055       1.67052268       0.61935625
C        0.22312508       1.19317233      -0.05954466
O        0.52113888      -0.29342578      -0.60728419
C       -0.88284213      -0.44355141      -0.88954548
C       -1.75085482      -0.26061271       0.29604692
C       -1.20754439       0.94721374      -0.44425938
H        2.98827814       0.01351628       0.18842562
H        1.92662696      -0.52963883       1.57674167
H        2.10260649      -1.54625424       0.10689040
H       -1.14146703      -0.95414854      -1.80525436
H       -1.35073952      -0.48785560       1.27640249
H       -2.80816575      -0.45268240       0.16140324
H       -1.82939280       1.68207783      -0.92910019
14
Frame=7 idx=007710 GeodesicLength=0.4696395060551183 rxn_smarts="[C:1](/[N:2]=[C:3]1\[O:4][C@@:5]2([H:11])[C:6]([H:12])([H:13])[C@@:7]12[H:14])([H:8])([H:9])[H:10]>>[C:1]([O:4][C@@:5]1([H:11])[C:6]([H:12])([H:13])[C@:7]1([C:3]#[N:2])[H:14])([H:8])([H:9])[H:10]"
C        2.10091918      -0.53206256       0.50864389
N        1.08962713       1.67499461       0.61846342
C        0.21672194       1.21563031      -0.06997241
O        0.52690024      -0.29241763      -0.62740030
C       -0.87712366      -0.44279637      -0.88867966
C       -1.74139011      -0.26146972       0.29974072
C       -1.20849688       0.94829652      -0.44493117
H        2.99526480      -0.00096581       0.20878287
H        1.91487934      -0.54898405       1.57708567
H        2.09646953      -1.54033538       0.10341490
H       -1.14443140      -0.95333706      -1.80219835
H       -1.33346608      -0.48261028       1.27820396
H       -2.79846042      -0.45883597       0.17185932
H       -1.83741360       1.67489339      -0.93301284
14
Frame=8 idx=007710 GeodesicLength=0.5372357334606024 rxn_smarts="[C:1](/[N:2]=[C:3]1\[O:4][C@@:5]2([H:11])[C:6]([H:12])([H:13])[C@@:7]12[H:14])([H:8])([H:9])[H:10]>>[C:1]([O:4][C@@:5]1([H:11])[C:6]([H:12])([H:13])[C@:7]1([C:3]#[N:2])[H:14])([H:8])([H:9])[H:10]"
C        2.08641878      -0.52558583       0.50756269
N        1.08544712       1.67987928       0.61674194
C        0.20986954       1.23844965      -0.07981189
O        0.53277676      -0.29144741      -0.64753921
C       -0.87101169      -0.44185548      -0.88781028
C       -1.73158346      -0.26240127       0.30342053
C       -1.20933870       0.94939458      -0.44546323
H        3.00130857      -0.01627934       0.22935840
H        1.90286733      -0.56834671       1.57683457
H        2.08993660      -1.53427383       0.10020088
H       -1.14698607      -0.95238403      -1.79903262
H       -1.31593597      -0.47743040       1.27992253
H       -2.78830576      -0.46523277       0.18228159
H       -1.84546305       1.66751354      -0.93666590
14
Frame=9 idx=007710 GeodesicLength=0.604988915408931 rxn_smarts="[C:1](/[N:2]=[C:3]1\[O:4][C@@:5]2([H:11])[C:6]([H:12])([H:13])[C@@:7]12[H:14])([H:8])([H:9])[H:10]>>[C:1]([O:4][C@@:5]1([H:11])[C:6]([H:12])([H:13])[C@:7]1([C:3]#[N:2])[H:14])([H:8])([H:9])[H:10]"
C        2.07186573      -0.51886843       0.50647854
N        1.08145736       1.68516428       0.61429900
C        0.20251281       1.26155980      -0.08891065
O        0.53872954      -0.29061833      -0.66750933
C       -0.86453561      -0.44074556      -0.88690403
C       -1.72157426      -0.26338588       0.30704516
C       -1.21007738       0.95050260      -0.44585122
H        3.00641713      -0.03241991       0.24986952
H        1.89089587      -0.58762860       1.57598309
H        2.08307935      -1.52808076       0.09729795
H       -1.14908070      -0.95130543      -1.79576141
H       -1.29839198      -0.47232607       1.28155980
H       -2.77783963      -0.47180858       0.19251775
H       -1.85345822       1.65996088      -0.94011416
14
Frame=10 idx=007710 GeodesicLength=0.6729737525389893 rxn_smarts="[C:1](/[N:2]=[C:3]1\[O:4][C@@:5]2([H:11])[C:6]([H:12])([H:13])[C@@:7]12[H:14])([H:8])([H:9])[H:10]>>[C:1]([O:4][C@@:5]1([H:11])[C:6]([H:12])([H:13])[C@:7]1([C:3]#[N:2])[H:14])([H:8])([H:9])[H:10]"
C        2.05715570      -0.51197734       0.50542239
N        1.07769041       1.69088306       0.61105427
C        0.19468120       1.28503424      -0.09738268
O        0.54482526      -0.28986349      -0.68748950
C       -0.85764767      -0.43945150      -0.88599529
C       -1.71121093      -0.26444276       0.31065795
C       -1.21068710       0.95161953      -0.44610465
H        3.01048008      -0.04933570       0.27051443
H        1.87860416      -0.60687330       1.57453780
H        2.07580441      -1.52178195       0.09462445
H       -1.15074356      -0.95010605      -1.79238200
H       -1.28059512      -0.46726965       1.28313371
H       -2.76690971      -0.47863818       0.20271501
H       -1.86144713       1.65220309      -0.94330588
14
Frame=11 idx=007710 GeodesicLength=0.7411351288105881 rxn_smarts="[C:1](/[N:2]=[C:3]1\[O:4][C@@:5]2([H:11])[C:6]([H:12])([H:13])[C@@:7]12[H:14])([H:8])([H:9])[H:10]>>[C:1]([O:4][C@@:5]1([H:11])[C:6]([H:12])([H:13])[C@:7]1([C:3]#[N:2])[H:14])([H:8])([H:9])[H:10]"
C        2.04242258      -0.50488842       0.50437710
N        1.07412415       1.69698197       0.60714534
C        0.18632633       1.30879654      -0.10509126
O        0.55101668      -0.28930424      -0.70727649
C       -0.85038485      -0.43800020      -0.88503334
C       -1.70063727      -0.26553166       0.31422283
C       -1.21117349       0.95274010      -0.44623415
H        3.01350328      -0.06696340       0.29105304
H        1.86628498      -0.62603855       1.57247605
H        2.06824195      -1.51537167       0.09218248
H       -1.15193861      -0.94881891      -1.78886602
H       -1.26278863      -0.46224436       1.28465041
H       -2.75565979      -0.48561534       0.21273076
H       -1.86933729       1.64425814      -0.94633674
14
Frame=12 idx=007710 GeodesicLength=0.8095523725101981 rxn_smarts="[C:1](/[N:2]=[C:3]1\[O:4][C@@:5]2([H:11])[C:6]([H:12])([H:13])[C@@:7]12[H:14])([H:8])([H:9])[H:10]>>[C:1]([O:4][C@@:5]1([H:11])[C:6]([H:12])([H:13])[C@:7]1([C:3]#[N:2])[H:14])([H:8])([H:9])[H:10]"
C        2.02756744      -0.49764950       0.50336582
N        1.07080334       1.70348972       0.60248904
C        0.17744830       1.33292097      -0.11213981
O        0.55736382      -0.28887189      -0.72701867
C       -0.84270406      -0.43636703      -0.88405905
C       -1.68972103      -0.26667374       0.31777125
C       -1.21152386       0.95386510      -0.44624421
H        3.01539917      -0.08530782       0.31164183
H        1.85367122      -0.64513308       1.56981954
H        2.06027953      -1.50887252       0.08994063
H       -1.15267977      -0.94743173      -1.78522639
H       -1.24476386      -0.45724272       1.28611485
H       -2.74395279      -0.49282212       0.22268567
H       -1.87718746       1.63609637      -0.94914052
14
Frame=13 idx=007710 GeodesicLength=0.8782812614925928 rxn_smarts="[C:1](/[N:2]=[C:3]1\[O:4][C@@:5]2([H:11])[C:6]([H:12])([H:13])[C@@:7]12[H:14])([H:8])([H:9])[H:10]>>[C:1]([O:4][C@@:5]1([H:11])[C:6]([H:12])([H:13])[C@:7]1([C:3]#[N:2])[H:14])([H:8])([H:9])[H:10]"
C        2.01251872      -0.49032147       0.50241975
N        1.06777276       1.71044552       0.59692983
C        0.16807331       1.35740271      -0.11846081
O        0.56390744      -0.28856678      -0.74679474
C       -0.83456369      -0.43453592      -0.88308403
C       -1.67838235      -0.26789565       0.32132009
C       -1.21169130       0.95498755      -0.44610008
H        3.01606790      -0.10425999       0.33229512
H        1.84050799      -0.66410280       1.56655773
H        2.05184370      -1.50234400       0.08788875
H       -1.15296030      -0.94591942      -1.78147064
H       -1.22642319      -0.45229648       1.28753417
H       -2.73170662      -0.50029995       0.23262439
H       -1.88496436       1.62770668      -0.95165952
14
Frame=14 idx=007710 GeodesicLength=0.9472986034926737 rxn_smarts="[C:1](/[N:2]=[C:3]1\[O:4][C@@:5]2([H:11])[C:6]([H:12])([H:13])[C@@:7]12[H:14])([H:8])([H:9])[H:10]>>[C:1]([O:4][C@@:5]1([H:11])[C:6]([H:12])([H:13])[C@:7]1([C:3]#[N:2])[H:14])([H:8])([H:9])[H:10]"
C        1.99737374      -0.48289419       0.50152339
N        1.06502268       1.71778709       0.59062464
C        0.15813772       1.38221105      -0.12401514
O        0.57061676      -0.28847210      -0.76646765
C       -0.82599838      -0.43252337      -0.88208717
C       -1.66672004      -0.26916139       0.32484073
C       -1.21169602       0.95610944      -0.44583070
H        3.01552828      -0.12379611       0.35284149
H        1.82705065      -0.68290957       1.56272403
H        2.04302511      -1.49578915       0.08602974
H       -1.15276702      -0.94431074      -1.77758801
H       -1.20792404      -0.44737733       1.28891178
H       -2.71901759      -0.50798036       0.24245504
H       -1.89263183       1.61910673      -0.95396217
14
Frame=15 idx=007710 GeodesicLength=1.0165523235607754 rxn_smarts="[C:1](/[N:2]=[C:3]1\[O:4][C@@:5]2([H:11])[C:6]([H:12])([H:13])[C@@:7]12[H:14])([H:8])([H:9])[H:10]>>[C:1]([O:4][C@@:5]1([H:11])[C:6]([H:12])([H:13])[C@:7]1([C:3]#[N:2])[H:14])([H:8])([H:9])[H:10]"
C        1.98223279      -0.47539333       0.50066715
N        1.06254511       1.72544955       0.58362168
C        0.14762951       1.40726598      -0.12866824
O        0.57745979      -0.28871521      -0.78590164
C       -0.81704231      -0.43034896      -0.88103660
C       -1.65484201      -0.27044452       0.32830655
C       -1.21152415       0.95722581      -0.44543333
H        3.01380255      -0.14376448       0.37308940
H        1.81344343      -0.70147682       1.55832594
H        2.03394037      -1.48924199       0.08436520
H       -1.15210023      -0.94261378      -1.77356606
H       -1.18944814      -0.44249207       1.29025248
H       -2.70600083      -0.51577721       0.25207240
H       -1.90009588       1.61032705      -0.95609495
14
Frame=16 idx=007710 GeodesicLength=1.085998358436702 rxn_smarts="[C:1](/[N:2]=[C:3]1\[O:4][C@@:5]2([H:11])[C:6]([H:12])([H:13])[C@@:7]12[H:14])([H:8])([H:9])[H:10]>>[C:1]([O:4][C@@:5]1([H:11])[C:6]([H:12])([H:13])[C@:7]1([C:3]#[N:2])[H:14])([H:8])([H:9])[H:10]"
C        1.96718435      -0.46785012       0.49984466
N        1.06033885       1.73336667       0.57595683
C        0.13653153       1.43249970      -0.13231304
O        0.58440807      -0.28941787      -0.80498357
C       -0.80773505      -0.42802714      -0.87991390
C       -1.64284824      -0.27172489       0.33169193
C       -1.21116909       0.95833641      -0.44490796
H        3.01094236      -0.16401919       0.39286745
H        1.79983315      -0.71972481       1.55340507
H        2.02469109      -1.48274450       0.08290987
H       -1.15097513      -0.94082386      -1.76940835
H       -1.17115296      -0.43766186       1.29155715
H       -2.69276639      -0.52361491       0.26138666
H       -1.90728256       1.60140637      -0.95809280
