14
Frame=0 idx=010677 GeodesicLength=0.0 rxn_smarts="[O:1](/[N:2]=[C:3]1/[C:4]([H:9])([H:10])[C:5]([H:11])([H:12])[C@:6]1([O:7][H:14])[H:13])[H:8]>>[H:8][H:9].[O:1]=[N:2][C:3]1=[C:4]([H:10])[C:5]([H:11])([H:12])[C@:6]1([O:7][H:14])[H:13]"
O        2.00069017       0.95556113      -0.02878379
N        1.55097423       0.59831117      -1.20101626
C        0.27533256       0.27036307      -0.95225352
C        0.00842573      -1.07629255      -0.66356523
C       -1.21143256      -0.75256221       0.17596918
C       -0.81367506       0.74974765       0.01774427
O       -0.49272018       1.42953138       1.19178922
H        1.71784553      -0.12390800       0.60137584
H        1.08959965      -0.91531390       0.46700378
H        0.34891721      -1.99625283      -1.12592744
H       -1.18071296      -1.09912020       1.20605459
H       -2.16043525      -1.03204338      -0.28274725
H       -1.56767914       1.31185449      -0.54588471
H        0.43487001       1.68012417       1.14024135
14
Frame=1 idx=010677 GeodesicLength=0.0911446363894414 rxn_smarts="[O:1](/[N:2]=[C:3]1/[C:4]([H:9])([H:10])[C:5]([H:11])([H:12])[C@:6]1([O:7][H:14])[H:13])[H:8]>>[H:8][H:9].[O:1]=[N:2][C:3]1=[C:4]([H:10])[C:5]([H:11])([H:12])[C@:6]1([O:7][H:14])[H:13]"
O        2.00739057       0.96645679      -0.03561489
N        1.54691115       0.60567087      -1.20270341
C        0.27570387       0.26463864      -0.94972703
C        0.01210737      -1.08277733      -0.65378064
C       -1.21451047      -0.75313910       0.17469296
C       -0.81332841       0.74766947       0.01640758
O       -0.49833600       1.42354429       1.19471742
H        1.74809926      -0.12767542       0.61595865
H        1.10245789      -0.93253355       0.47814395
H        0.32582166      -1.99563410      -1.14785915
H       -1.18589723      -1.09716981       1.20586080
H       -2.16424784      -1.03165883      -0.28290796
H       -1.56333432       1.31195180      -0.55046449
H        0.42116250       1.70065628       1.13727619
14
Frame=2 idx=010677 GeodesicLength=0.1821911068710702 rxn_smarts="[O:1](/[N:2]=[C:3]1/[C:4]([H:9])([H:10])[C:5]([H:11])([H:12])[C@:6]1([O:7][H:14])[H:13])[H:8]>>[H:8][H:9].[O:1]=[N:2][C:3]1=[C:4]([H:10])[C:5]([H:11])([H:12])[C@:6]1([O:7][H:14])[H:13]"
O        2.01408845       0.97731406      -0.04252386
N        1.54278301       0.61301386      -1.20431860
C        0.27616050       0.25883781      -0.94718467
C        0.01588533      -1.08937572      -0.64401827
C       -1.21749726      -0.75380068       0.17331187
C       -0.81295439       0.74550871       0.01501251
O       -0.50379335       1.41752233       1.19748378
H        1.77931115      -0.13143909       0.63060863
H        1.11538657      -0.95030020       0.48938907
H        0.30189210      -1.99387384      -1.16929458
H       -1.19102529      -1.09528143       1.20556217
H       -2.16800400      -1.03131549      -0.28312615
H       -1.55894202       1.31193613      -0.55510052
H        0.40670923       1.72125355       1.13419863
14
Frame=3 idx=010677 GeodesicLength=0.27314785837169836 rxn_smarts="[O:1](/[N:2]=[C:3]1/[C:4]([H:9])([H:10])[C:5]([H:11])([H:12])[C@:6]1([O:7][H:14])[H:13])[H:8]>>[H:8][H:9].[O:1]=[N:2][C:3]1=[C:4]([H:10])[C:5]([H:11])([H:12])[C@:6]1([O:7][H:14])[H:13]"
O        2.02077899       0.98811042      -0.04953111
N        1.53856568       0.62036089      -1.20588355
C        0.27667947       0.25299603      -0.94464642
C        0.01970377      -1.09605929      -0.63436115
C       -1.22041105      -0.75452825       0.17180275
C       -0.81256357       0.74328519       0.01356049
O       -0.50908624       1.41145980       1.20010019
H        1.81151412      -0.13522395       0.64528846
H        1.12832788      -0.96867211       0.50067803
H        0.27733412      -1.99100091      -1.18999397
H       -1.19609111      -1.09346141       1.20512595
H       -2.17173650      -1.03097614      -0.28340539
H       -1.55451732       1.31184289      -0.55977053
H        0.39150175       1.74186684       1.13103625
14
Frame=4 idx=010677 GeodesicLength=0.36405139662940644 rxn_smarts="[O:1](/[N:2]=[C:3]1/[C:4]([H:9])([H:10])[C:5]([H:11])([H:12])[C@:6]1([O:7][H:14])[H:13])[H:8]>>[H:8][H:9].[O:1]=[N:2][C:3]1=[C:4]([H:10])[C:5]([H:11])([H:12])[C@:6]1([O:7][H:14])[H:13]"
O        2.02745393       0.99883952      -0.05666025
N        1.53423791       0.62772760      -1.20741573
C        0.27723918       0.24714773      -0.94212740
C        0.02350441      -1.10279929      -0.62488382
C       -1.22327509      -0.75529959       0.17014698
C       -0.81216645       0.74102086       0.01205516
O       -0.51420734       1.40535330       1.20258120
H        1.84475106      -0.13904451       0.65996327
H        1.14121645      -0.98772050       0.51194816
H        0.25236804      -1.98708177      -1.20975236
H       -1.20109553      -1.09171191       1.20452497
H       -2.17548156      -1.03059947      -0.28374784
H       -1.55007262       1.31171153      -0.56445156
H        0.37552760       1.76245650       1.12781922
14
Frame=5 idx=010677 GeodesicLength=0.4549036383534136 rxn_smarts="[O:1](/[N:2]=[C:3]1/[C:4]([H:9])([H:10])[C:5]([H:11])([H:12])[C@:6]1([O:7][H:14])[H:13])[H:8]>>[H:8][H:9].[O:1]=[N:2][C:3]1=[C:4]([H:10])[C:5]([H:11])([H:12])[C@:6]1([O:7][H:14])[H:13]"
O        2.03411103       1.00949097      -0.06392974
N        1.52977589       0.63513613      -1.20893443
C        0.27781353       0.24132816      -0.93964581
C        0.02723057      -1.10956325      -0.61564772
C       -1.22611385      -0.75608783       0.16833149
C       -0.81177648       0.73874106       0.01049822
O       -0.51915453       1.39920811       1.20493737
H        1.87905913      -0.14291970       0.67460087
H        1.15399096      -1.00750568       0.52314081
H        0.22722452      -1.98221188      -1.22839845
H       -1.20604170      -1.09002471       1.20373903
H       -2.17927315      -1.03014520      -0.28415222
H       -1.54562523       1.31158061      -0.56912348
H        0.35877932       1.78297322       1.12458406
14
Frame=6 idx=010677 GeodesicLength=0.5457614618427334 rxn_smarts="[O:1](/[N:2]=[C:3]1/[C:4]([H:9])([H:10])[C:5]([H:11])([H:12])[C@:6]1([O:7][H:14])[H:13])[H:8]>>[H:8][H:9].[O:1]=[N:2][C:3]1=[C:4]([H:10])[C:5]([H:11])([H:12])[C@:6]1([O:7][H:14])[H:13]"
O        2.04074003       1.02007859      -0.07136713
N        1.52516581       0.64258698      -1.21044938
C        0.27838640       0.23556270      -0.93720671
C        0.03083043      -1.11632716      -0.60669786
C       -1.22895465      -0.75686930       0.16634772
C       -0.81140220       0.73646718       0.00889598
O       -0.52392165       1.39302654       1.20718382
H        1.91450490      -0.14682480       0.68918120
H        1.16658295      -1.02811285       0.53420957
H        0.20209962      -1.97649950      -1.24582634
H       -1.21094406      -1.08839410       1.20275466
H       -2.18314521      -1.02957359      -0.28462037
H       -1.54118136       1.31148712      -0.57376831
H        0.34123899       1.80339221       1.12136314
14
Frame=7 idx=010677 GeodesicLength=0.6366297700849644 rxn_smarts="[O:1](/[N:2]=[C:3]1/[C:4]([H:9])([H:10])[C:5]([H:11])([H:12])[C@:6]1([O:7][H:14])[H:13])[H:8]>>[H:8][H:9].[O:1]=[N:2][C:3]1=[C:4]([H:10])[C:5]([H:11])([H:12])[C@:6]1([O:7][H:14])[H:13]"
O        2.04733952       1.03060669      -0.07899187
N        1.52039321       0.65008851      -1.21197248
C        0.27893803       0.22987533      -0.93481956
C        0.03426021      -1.12306595      -0.59806307
C       -1.23182186      -0.75761850       0.16419298
C       -0.81105496       0.73422176       0.00725006
O       -0.52851196       1.38682149       1.20932747
H        1.95115064      -0.15074126       0.70369214
H        1.17893460      -1.04960688       0.54511506
H        0.17717158      -1.97006106      -1.26196606
H       -1.21581511      -1.08680322       1.20156606
H       -2.18712516      -1.02885123      -0.28515042
H       -1.53675305       1.31146198      -0.57837518
H        0.32289433       1.82367234       1.11819489
14
Frame=8 idx=010677 GeodesicLength=0.727555168519574 rxn_smarts="[O:1](/[N:2]=[C:3]1/[C:4]([H:9])([H:10])[C:5]([H:11])([H:12])[C@:6]1([O:7][H:14])[H:13])[H:8]>>[H:8][H:9].[O:1]=[N:2][C:3]1=[C:4]([H:10])[C:5]([H:11])([H:12])[C@:6]1([O:7][H:14])[H:13]"
O        2.05390145       1.04110571      -0.08683242
N        1.51544952       0.65763307      -1.21350977
C        0.27946031       0.22427803      -0.93247984
C        0.03748164      -1.12976400      -0.58975536
C       -1.23474264      -0.75831236       0.16186709
C       -0.81073991       0.73202194       0.00556611
O       -0.53292190       1.38060033       1.21137894
H        1.98908608      -0.15460342       0.71812615
H        1.19097362      -1.07208175       0.55582913
H        0.15258613      -1.96302063      -1.27679851
H       -1.22068126      -1.08523779       1.20017142
H       -2.19123967      -1.02794353      -0.28574533
H       -1.53233883       1.31153462      -0.58293463
H        0.30372546       1.84378978       1.11511702
14
Frame=9 idx=010677 GeodesicLength=0.8188166010253226 rxn_smarts="[O:1](/[N:2]=[C:3]1/[C:4]([H:9])([H:10])[C:5]([H:11])([H:12])[C@:6]1([O:7][H:14])[H:13])[H:8]>>[H:8][H:9].[O:1]=[N:2][C:3]1=[C:4]([H:10])[C:5]([H:11])([H:12])[C@:6]1([O:7][H:14])[H:13]"
O        2.06044638       1.05164954      -0.09491971
N        1.51039023       0.66511520      -1.21504281
C        0.27997245       0.21873771      -0.93014014
C        0.04045970      -1.13644542      -0.58175657
C       -1.23774831      -0.75895543       0.15937471
C       -0.81044685       0.72985689       0.00386483
O       -0.53715596       1.37432818       1.21338911
H        2.02857235      -0.15807983       0.73252802
H        1.20257374      -1.09573135       0.56637808
H        0.12827588      -1.95544388      -1.29049242
H       -1.22559951      -1.08371665       1.19857397
H       -2.19551845      -1.02682790      -0.28642317
H       -1.52790596       1.31171410      -0.58744190
H        0.28368431       1.86379885       1.11210799
14
Frame=10 idx=010677 GeodesicLength=0.9101357046544892 rxn_smarts="[O:1](/[N:2]=[C:3]1/[C:4]([H:9])([H:10])[C:5]([H:11])([H:12])[C@:6]1([O:7][H:14])[H:13])[H:8]>>[H:8][H:9].[O:1]=[N:2][C:3]1=[C:4]([H:10])[C:5]([H:11])([H:12])[C@:6]1([O:7][H:14])[H:13]"
O        2.06694447       1.06222361      -0.10327062
N        1.50516083       0.67261024      -1.21659551
C        0.28044526       0.21329852      -0.92783332
C        0.04317511      -1.14306669      -0.57407553
C       -1.24085100      -0.75950611       0.15671857
C       -0.81019344       0.72776528       0.00213430
O       -0.54121104       1.36805896       1.21532104
H        2.06955120      -0.16132940       0.74686816
H        1.21373603      -1.12055151       0.57670684
H        0.10448531      -1.94747273      -1.30293207
H       -1.23056554      -1.08218731       1.19677817
H       -2.19996915      -1.02547598      -0.28717362
H       -1.52348241       1.31203122      -0.59189588
H        0.26277437       1.88360190       1.10924947
14
Frame=11 idx=010677 GeodesicLength=1.0015127228518081 rxn_smarts="[O:1](/[N:2]=[C:3]1/[C:4]([H:9])([H:10])[C:5]([H:11])([H:12])[C@:6]1([O:7][H:14])[H:13])[H:8]>>[H:8][H:9].[O:1]=[N:2][C:3]1=[C:4]([H:10])[C:5]([H:11])([H:12])[C@:6]1([O:7][H:14])[H:13]"
O        2.07339483       1.07285982      -0.11191866
N        1.49976358       0.68010149      -1.21817635
C        0.28087699       0.20796074      -0.92555129
C        0.04561310      -1.14962286      -0.56669815
C       -1.24406468      -0.75995083       0.15390491
C       -0.80998060       0.72575693       0.00037811
O       -0.54509266       1.36180352       1.21718154
H        2.11212062      -0.16426446       0.76118680
H        1.22439939      -1.14663295       0.58681498
H        0.08125582      -1.93918639      -1.31417873
H       -1.23559943      -1.08063463       1.19479162
H       -2.20460044      -1.02387085      -0.28800082
H       -1.51906438       1.31249817      -0.59629724
H        0.24097784       1.90318231       1.10656328
14
Frame=12 idx=010677 GeodesicLength=1.0929212506461226 rxn_smarts="[O:1](/[N:2]=[C:3]1/[C:4]([H:9])([H:10])[C:5]([H:11])([H:12])[C@:6]1([O:7][H:14])[H:13])[H:8]>>[H:8][H:9].[O:1]=[N:2][C:3]1=[C:4]([H:10])[C:5]([H:11])([H:12])[C@:6]1([O:7][H:14])[H:13]"
O        2.07979362       1.08358876      -0.12088740
N        1.49420748       0.68756039      -1.21978162
C        0.28127029       0.20271886      -0.92327889
C        0.04775864      -1.15611381      -0.55960153
C       -1.24740728      -0.76027728       0.15094013
C       -0.80980821       0.72383973      -0.00139965
O       -0.54880539       1.35557076       1.21897651
H        2.15641188      -0.16676142       0.77549826
H        1.23449954      -1.17408213       0.59671003
H        0.05860964      -1.93065908      -1.32431058
H       -1.24073207      -1.07904404       1.19262315
H       -2.20942423      -1.02199514      -0.28891256
H       -1.51464242       1.31312560      -0.60065082
H        0.21826852       1.92252879       1.10407497
14
Frame=13 idx=010677 GeodesicLength=1.1843195194741303 rxn_smarts="[O:1](/[N:2]=[C:3]1/[C:4]([H:9])([H:10])[C:5]([H:11])([H:12])[C@:6]1([O:7][H:14])[H:13])[H:8]>>[H:8][H:9].[O:1]=[N:2][C:3]1=[C:4]([H:10])[C:5]([H:11])([H:12])[C@:6]1([O:7][H:14])[H:13]"
O        2.08614159       1.09444623      -0.13020599
N        1.48849985       0.69496730      -1.22141829
C        0.28162744       0.19756581      -0.92100445
C        0.04960224      -1.16254030      -0.55275835
C       -1.25089184      -0.76047275       0.14782987
C       -0.80967609       0.72202069      -0.00319841
O       -0.55235688       1.34937126       1.22070782
H        2.20254627      -0.16870737       0.78983487
H        1.24397112      -1.20299307       0.60639657
H        0.03655350      -1.92195738      -1.33339956
H       -1.24599065      -1.07739531       1.19028006
H       -2.21444600      -1.01983343      -0.28991628
H       -1.51020844       1.31392026      -0.60496337
H        0.19462789       1.94160806       1.10181551
14
Frame=14 idx=010677 GeodesicLength=1.2756995005954863 rxn_smarts="[O:1](/[N:2]=[C:3]1/[C:4]([H:9])([H:10])[C:5]([H:11])([H:12])[C@:6]1([O:7][H:14])[H:13])[H:8]>>[H:8][H:9].[O:1]=[N:2][C:3]1=[C:4]([H:10])[C:5]([H:11])([H:12])[C@:6]1([O:7][H:14])[H:13]"
O        2.09243042       1.10547794      -0.13991229
N        1.48265355       0.70228285      -1.22308748
C        0.28195890       0.19248561      -0.91870538
C        0.05113185      -1.16891249      -0.54614167
C       -1.25453764      -0.76052858       0.14457695
C       -0.80957732       0.72030132      -0.00501203
O       -0.55574508       1.34320499       1.22238517
H        2.25069257      -0.16992130       0.80422600
H        1.25272053      -1.23350400       0.61588643
H        0.01507611      -1.91313473      -1.34152807
H       -1.25141653      -1.07567893       1.18776738
H       -2.21967821      -1.01736534      -0.29102881
H       -1.50574044       1.31489150      -0.60923992
H        0.17003130       1.96040118       1.09981373
14
Frame=15 idx=010677 GeodesicLength=1.3670181907154981 rxn_smarts="[O:1](/[N:2]=[C:3]1/[C:4]([H:9])([H:10])[C:5]([H:11])([H:12])[C@:6]1([O:7][H:14])[H:13])[H:8]>>[H:8][H:9].[O:1]=[N:2][C:3]1=[C:4]([H:10])[C:5]([H:11])([H:12])[C@:6]1([O:7][H:14])[H:13]"
O        2.09865748       1.11672665      -0.15004038
N        1.47668355       0.70947272      -1.22479477
C        0.28227273       0.18746168      -0.91636355
C        0.05233760      -1.17524055      -0.53972076
C       -1.25836126      -0.76043493       0.14118337
C       -0.80950680       0.71868389      -0.00683914
O       -0.55897151       1.33707487       1.22401362
H        2.30101843      -0.17022981       0.81869904
H        1.26065443      -1.26574021       0.62519138
H       -0.00584384      -1.90423689      -1.34876905
H       -1.25704784      -1.07387897       1.18508906
H       -2.22512952      -1.01457208      -0.29226658
H       -1.50121901       1.31604580      -0.61348932
H        0.14445555       1.97886783       1.09810706
14
Frame=16 idx=010677 GeodesicLength=1.4582319873040488 rxn_smarts="[O:1](/[N:2]=[C:3]1/[C:4]([H:9])([H:10])[C:5]([H:11])([H:12])[C@:6]1([O:7][H:14])[H:13])[H:8]>>[H:8][H:9].[O:1]=[N:2][C:3]1=[C:4]([H:10])[C:5]([H:11])([H:12])[C@:6]1([O:7][H:14])[H:13]"
O        2.10481716       1.12823386      -0.16062689
N        1.47060708       0.71649581      -1.22654561
C        0.28257981       0.18247363      -0.91395788
C        0.05320682      -1.18153882      -0.53346613
C       -1.26238130      -0.76018304       0.13764830
C       -0.80945620       0.71716851      -0.00867671
O       -0.56202969       1.33097762       1.22560152
H        2.35371185      -0.16942567       0.83327964
H        1.26766625      -1.29984666       0.63432552
H       -0.02623463      -1.89530206      -1.35519174
H       -1.26292926      -1.07198307       1.18224614
H       -2.23081207      -1.01143095      -0.29365159
H       -1.49661886       1.31739200      -0.61771871
H        0.11787303       1.99696883       1.09673414
