19
Frame=0 idx=009431 GeodesicLength=0.0 rxn_smarts="[C:1]([C:2]([O:3][C@@:4]1([H:13])[C:5]([H:14])([H:15])[C@:6]1([C:7]([H:17])([H:18])[H:19])[H:16])([H:11])[H:12])([H:8])([H:9])[H:10]>>[C:1]([C:2]([O:3][C@@:4]1([H:13])[C:5]([H:14])([H:15])[C:6]1)([H:11])[H:12])([H:8])([H:9])[H:10].[C:7]([H:16])([H:17])([H:18])[H:19]"
C        2.56544173       0.80599017       0.00709174
C        1.55723525      -0.29499641      -0.22107674
O        0.54589733      -0.19017778       0.76573786
C       -0.43038730      -1.16887258       0.63454863
C       -1.77228319      -0.87586829       1.19156337
C       -1.63153515      -1.11054685      -0.29226176
C       -1.61035809       1.00987584      -0.93793367
H        3.00690248       0.72293112       1.00095196
H        2.09234054       1.78590530      -0.07621496
H        3.36455175       0.74472583      -0.73332865
H        2.03483405      -1.28136226      -0.15378763
H        1.10908048      -0.21928499      -1.22064646
H       -0.03616170      -2.18312359       0.71438772
H       -1.89504700       0.13408889       1.56550791
H       -2.32856510      -1.62068263       1.74984992
H       -1.82440872      -0.19258973      -1.14471845
H       -1.37205965       1.27219762      -1.96870403
H       -2.57114539       1.40370706      -0.62090322
H       -0.80433231       1.25808326      -0.26006352
19
Frame=1 idx=009431 GeodesicLength=0.07014864900638498 rxn_smarts="[C:1]([C:2]([O:3][C@@:4]1([H:13])[C:5]([H:14])([H:15])[C@:6]1([C:7]([H:17])([H:18])[H:19])[H:16])([H:11])[H:12])([H:8])([H:9])[H:10]>>[C:1]([C:2]([O:3][C@@:4]1([H:13])[C:5]([H:14])([H:15])[C:6]1)([H:11])[H:12])([H:8])([H:9])[H:10].[C:7]([H:16])([H:17])([H:18])[H:19]"
C        2.56400643       0.80572029       0.00407776
C        1.56011837      -0.30042561      -0.21804578
O        0.54893463      -0.19456653       0.76891407
C       -0.42749461      -1.17294142       0.63967725
C       -1.76903493      -0.88261410       1.19983890
C       -1.62644541      -1.09649181      -0.28515310
C       -1.61350605       1.01552029      -0.94217597
H        3.00576942       0.72985215       0.99838212
H        2.08663676       1.78302930      -0.08493290
H        3.36340926       0.74352256      -0.73595984
H        2.04134225      -1.28471529      -0.14545630
H        1.11194165      -0.23166617      -1.21799489
H       -0.03628710      -2.18847592       0.71648874
H       -1.89749527       0.12385272       1.58131644
H       -2.32096616      -1.63585526       1.75094203
H       -1.84056591      -0.19390747      -1.16601812
H       -1.35806836       1.28388089      -1.96746005
H       -2.57543231       1.41819263      -0.63876850
H       -0.81686266       1.27808875      -0.25767186
19
Frame=2 idx=009431 GeodesicLength=0.1403143431937638 rxn_smarts="[C:1]([C:2]([O:3][C@@:4]1([H:13])[C:5]([H:14])([H:15])[C@:6]1([C:7]([H:17])([H:18])[H:19])[H:16])([H:11])[H:12])([H:8])([H:9])[H:10]>>[C:1]([C:2]([O:3][C@@:4]1([H:13])[C:5]([H:14])([H:15])[C:6]1)([H:11])[H:12])([H:8])([H:9])[H:10].[C:7]([H:16])([H:17])([H:18])[H:19]"
C        2.56251369       0.80546389       0.00109860
C        1.56306029      -0.30587909      -0.21494405
O        0.55210187      -0.19913344       0.77225002
C       -0.42457145      -1.17708445       0.64477525
C       -1.76563061      -0.88943429       1.20833269
C       -1.62136173      -1.08170426      -0.27771034
C       -1.61659365       1.02126246      -0.94654609
H        3.00463093       0.73677980       0.99577134
H        2.08076321       1.78006322      -0.09351058
H        3.36216584       0.74245996      -0.73861268
H        2.04796970      -1.28802184      -0.13712499
H        1.11484489      -0.24407176      -1.21521684
H       -0.03656429      -2.19399556       0.71794441
H       -1.89962342       0.11333839       1.59767976
H       -2.31343086      -1.65114325       1.75171634
H       -1.85695496      -0.19524689      -1.18672292
H       -1.34406901       1.29470962      -1.96626699
H       -2.57945996       1.43309315      -0.65743970
H       -0.82979049       1.29854435      -0.25547323
19
Frame=3 idx=009431 GeodesicLength=0.21048679985729407 rxn_smarts="[C:1]([C:2]([O:3][C@@:4]1([H:13])[C:5]([H:14])([H:15])[C@:6]1([C:7]([H:17])([H:18])[H:19])[H:16])([H:11])[H:12])([H:8])([H:9])[H:10]>>[C:1]([C:2]([O:3][C@@:4]1([H:13])[C:5]([H:14])([H:15])[C:6]1)([H:11])[H:12])([H:8])([H:9])[H:10].[C:7]([H:16])([H:17])([H:18])[H:19]"
C        2.56096357       0.80521503      -0.00184396
C        1.56605959      -0.31135802      -0.21177379
O        0.55540609      -0.20388549       0.77575356
C       -0.42162259      -1.18129580       0.64983409
C       -1.76207333      -0.89632165       1.21703546
C       -1.61627756      -1.06619278      -0.26990263
C       -1.61963584       1.02712580      -0.95103336
H        3.00349239       0.74369865       0.99311840
H        2.07472032       1.77700227      -0.10193249
H        3.36081585       0.74153671      -0.74129228
H        2.05471140      -1.29128598      -0.12880813
H        1.11778302      -0.25649191      -1.21231144
H       -0.03700481      -2.19966883       0.71876109
H       -1.90141537       0.10253850       1.61461194
H       -2.30596589      -1.66652472       1.75216058
H       -1.87351125      -0.19662831      -1.20682492
H       -1.33006156       1.30472460      -1.96511954
H       -2.58325138       1.44834758      -0.67693516
H       -0.84313265       1.31946436      -0.25349740
19
Frame=4 idx=009431 GeodesicLength=0.2806601133725131 rxn_smarts="[C:1]([C:2]([O:3][C@@:4]1([H:13])[C:5]([H:14])([H:15])[C@:6]1([C:7]([H:17])([H:18])[H:19])[H:16])([H:11])[H:12])([H:8])([H:9])[H:10]>>[C:1]([C:2]([O:3][C@@:4]1([H:13])[C:5]([H:14])([H:15])[C:6]1)([H:11])[H:12])([H:8])([H:9])[H:10].[C:7]([H:16])([H:17])([H:18])[H:19]"
C        2.55935587       0.80496778      -0.00474828
C        1.56911479      -0.31686422      -0.20853748
O        0.55885550      -0.20883125       0.77943327
C       -0.41865298      -1.18556899       0.65484576
C       -1.75836593      -0.90326850       1.22593915
C       -1.61118479      -1.04996377      -0.26169807
C       -1.62264594       1.03313167      -0.95562700
H        3.00235968       0.75059311       0.99042217
H        2.06850761       1.77384139      -0.11018316
H        3.35935301       0.74075166      -0.74400445
H        2.06156263      -1.29451252      -0.12052110
H        1.12074813      -0.26891692      -1.20927797
H       -0.03762126      -2.20548053       0.71894461
H       -1.90285484       0.09144459       1.63212731
H       -2.29857776      -1.68197634       1.75226279
H       -1.89017321      -0.19807698      -1.22632050
H       -1.31604485       1.31397234      -1.96400722
H       -2.58682875       1.46389301      -0.69727725
H       -0.85690692       1.34086447      -0.25177258
19
Frame=5 idx=009431 GeodesicLength=0.3508310401011991 rxn_smarts="[C:1]([C:2]([O:3][C@@:4]1([H:13])[C:5]([H:14])([H:15])[C@:6]1([C:7]([H:17])([H:18])[H:19])[H:16])([H:11])[H:12])([H:8])([H:9])[H:10]>>[C:1]([C:2]([O:3][C@@:4]1([H:13])[C:5]([H:14])([H:15])[C:6]1)([H:11])[H:12])([H:8])([H:9])[H:10].[C:7]([H:16])([H:17])([H:18])[H:19]"
C        2.55769023       0.80471724      -0.00761317
C        1.57222466      -0.32239951      -0.20523728
O        0.56245846      -0.21397855       0.78329788
C       -0.41566731      -1.18989725       0.65980324
C       -1.75451075      -0.91026771       1.23503649
C       -1.60607341      -1.03302198      -0.25306390
C       -1.62563886       1.03929688      -0.96031812
H        3.00123899       0.75744850       0.98768090
H        2.06212418       1.77057661      -0.11824788
H        3.35777051       0.74010442      -0.74675543
H        2.06851915      -1.29770606      -0.11227832
H        1.12373214      -0.28133762      -1.20611564
H       -0.03842769      -2.21141511       0.71849806
H       -1.90392552       0.08004919       1.65023823
H       -2.29127761      -1.69747283       1.75201001
H       -1.90688332      -0.19962001      -1.24521326
H       -1.30201608       1.32249836      -1.96291494
H       -2.59020687       1.47966675      -0.71848011
H       -0.87113090       1.36275868      -0.25032679
19
Frame=6 idx=009431 GeodesicLength=0.420994990782283 rxn_smarts="[C:1]([C:2]([O:3][C@@:4]1([H:13])[C:5]([H:14])([H:15])[C@:6]1([C:7]([H:17])([H:18])[H:19])[H:16])([H:11])[H:12])([H:8])([H:9])[H:10]>>[C:1]([C:2]([O:3][C@@:4]1([H:13])[C:5]([H:14])([H:15])[C:6]1)([H:11])[H:12])([H:8])([H:9])[H:10].[C:7]([H:16])([H:17])([H:18])[H:19]"
C        2.55596657       0.80445704      -0.01043652
C        1.57538804      -0.32796562      -0.20187555
O        0.56622438      -0.21933691       0.78735676
C       -0.41267114      -1.19427302       0.66469931
C       -1.75051078      -0.91731083       1.24432115
C       -1.60093248      -1.01536734      -0.24396600
C       -1.62862542       1.04563656      -0.96510023
H        3.00013727       0.76424808       0.98489374
H        2.05556952       1.76720328      -0.12610968
H        3.35606132       0.73959396      -0.74955160
H        2.07557636      -1.30087236      -0.10409625
H        1.12672668      -0.29374417      -1.20282390
H       -0.03943811      -2.21745490       0.71742430
H       -1.90461174       0.06834410       1.66895749
H       -2.28407228      -1.71298818       1.75138863
H       -1.92358743      -0.20128820      -1.26350507
H       -1.28797305       1.33035439      -1.96182599
H       -2.59340417       1.49559990      -0.74056074
H       -0.88582355       1.38516424      -0.24918985
19
Frame=7 idx=009431 GeodesicLength=0.491146263791957 rxn_smarts="[C:1]([C:2]([O:3][C@@:4]1([H:13])[C:5]([H:14])([H:15])[C@:6]1([C:7]([H:17])([H:18])[H:19])[H:16])([H:11])[H:12])([H:8])([H:9])[H:10]>>[C:1]([C:2]([O:3][C@@:4]1([H:13])[C:5]([H:14])([H:15])[C:6]1)([H:11])[H:12])([H:8])([H:9])[H:10].[C:7]([H:16])([H:17])([H:18])[H:19]"
C        2.55418552       0.80418207      -0.01321590
C        1.57860445      -0.33356416      -0.19845491
O        0.57016392      -0.22491581       0.79161945
C       -0.40966925      -1.19868757       0.66952659
C       -1.74636736      -0.92438852       1.25378719
C       -1.59574895      -0.99699645      -0.23436938
C       -1.63161811       1.05216233      -0.96996702
H        2.99906314       0.77097542       0.98205978
H        2.04884397       1.76371807      -0.13374916
H        3.35421836       0.73922140      -0.75239901
H        2.08273057      -1.30401687      -0.09599207
H        1.12972342      -0.30612549      -1.19940253
H       -0.04066881      -2.22358499       0.71572052
H       -1.90489658       0.05631977       1.68829873
H       -2.27697679      -1.72849460       1.75038628
H       -1.94023559      -0.20311790      -1.28119777
H       -1.27391762       1.33758866      -1.96072186
H       -2.59642986       1.51162759      -0.76353601
H       -0.90100445       1.40809705      -0.24839290
19
Frame=8 idx=009431 GeodesicLength=0.5612851646227912 rxn_smarts="[C:1]([C:2]([O:3][C@@:4]1([H:13])[C:5]([H:14])([H:15])[C@:6]1([C:7]([H:17])([H:18])[H:19])[H:16])([H:11])[H:12])([H:8])([H:9])[H:10]>>[C:1]([C:2]([O:3][C@@:4]1([H:13])[C:5]([H:14])([H:15])[C:6]1)([H:11])[H:12])([H:8])([H:9])[H:10].[C:7]([H:16])([H:17])([H:18])[H:19]"
C        2.55234804       0.80388637      -0.01594736
C        1.58187376      -0.33919716      -0.19497769
O        0.57428872      -0.23072627       0.79609610
C       -0.40666686      -1.20313198       0.67427836
C       -1.74208216      -0.93149055       1.26342987
C       -1.59050831      -0.97789975      -0.22423678
C       -1.63462632       1.05888465      -0.97491393
H        2.99802589       0.77761258       0.97918003
H        2.04194763       1.76011673      -0.14114522
H        3.35223435       0.73898671      -0.75530344
H        2.08997817      -1.30714613      -0.08798399
H        1.13271403      -0.31847031      -1.19585114
H       -0.04213838      -2.22978389       0.71338118
H       -1.90476169       0.04396743       1.70827413
H       -2.27000187      -1.74396208       1.74898505
H       -1.95678224      -0.20514522      -1.29829569
H       -1.25984855       1.34424656      -1.95958338
H       -2.59929963       1.52767671      -0.78741276
H       -0.91669459       1.43157558      -0.24797333
19
Frame=9 idx=009431 GeodesicLength=0.6314183592690039 rxn_smarts="[C:1]([C:2]([O:3][C@@:4]1([H:13])[C:5]([H:14])([H:15])[C@:6]1([C:7]([H:17])([H:18])[H:19])[H:16])([H:11])[H:12])([H:8])([H:9])[H:10]>>[C:1]([C:2]([O:3][C@@:4]1([H:13])[C:5]([H:14])([H:15])[C:6]1)([H:11])[H:12])([H:8])([H:9])[H:10].[C:7]([H:16])([H:17])([H:18])[H:19]"
C        2.55045610       0.80356500      -0.01862814
C        1.58519755      -0.34486726      -0.19144561
O        0.57861221      -0.23677881       0.80079712
C       -0.40366720      -1.20759665       0.67895008
C       -1.73765435      -0.93860577       1.27324612
C       -1.58519128      -0.95806261      -0.21352856
C       -1.63765537       1.06580845      -0.97993957
H        2.99703593       0.78414416       0.97625487
H        2.03488108       1.75639605      -0.14827876
H        3.35010333       0.73889139      -0.75827087
H        2.09731763      -1.31026646      -0.08008747
H        1.13569227      -0.33076984      -1.19216916
H       -0.04387068      -2.23602851       0.71039103
H       -1.90418923       0.03127998       1.72889436
H       -2.26316813      -1.75935788       1.74716180
H       -1.97318793      -0.20741165      -1.31480534
H       -1.24576428       1.35037082      -1.95839011
H       -2.60203020       1.54367684      -0.81218846
H       -0.93291745       1.45561276      -0.24796334
19
Frame=10 idx=009431 GeodesicLength=0.7015313006797089 rxn_smarts="[C:1]([C:2]([O:3][C@@:4]1([H:13])[C:5]([H:14])([H:15])[C@:6]1([C:7]([H:17])([H:18])[H:19])[H:16])([H:11])[H:12])([H:8])([H:9])[H:10]>>[C:1]([C:2]([O:3][C@@:4]1([H:13])[C:5]([H:14])([H:15])[C:6]1)([H:11])[H:12])([H:8])([H:9])[H:10].[C:7]([H:16])([H:17])([H:18])[H:19]"
C        2.54851320       0.80321086      -0.02124878
C        1.58857501      -0.35057367      -0.18786308
O        0.58314799      -0.24308641       0.80573325
C       -0.40067706      -1.21206948       0.68353198
C       -1.73308502      -0.94572290       1.28323241
C       -1.57978162      -0.93746589      -0.20220225
C       -1.64072257       1.07293878      -0.98504098
H        2.99610856       0.79054127       0.97328896
H        2.02764951       1.75255385      -0.15511331
H        3.34781798       0.73893826      -0.76130419
H        2.10474270      -1.31338493      -0.07233184
H        1.13864663      -0.34300143      -1.18835758
H       -0.04588372      -2.24230008       0.70673856
H       -1.90315843       0.01824503       1.75017555
H       -2.25648654      -1.77465154       1.74490314
H       -1.98941226      -0.20996587      -1.33071249
H       -1.23168264       1.35600639      -1.95712454
H       -2.60461924       1.55955554      -0.83789224
H       -0.94969246       1.48023223      -0.24841255
19
Frame=11 idx=009431 GeodesicLength=0.771622145948345 rxn_smarts="[C:1]([C:2]([O:3][C@@:4]1([H:13])[C:5]([H:14])([H:15])[C@:6]1([C:7]([H:17])([H:18])[H:19])[H:16])([H:11])[H:12])([H:8])([H:9])[H:10]>>[C:1]([C:2]([O:3][C@@:4]1([H:13])[C:5]([H:14])([H:15])[C:6]1)([H:11])[H:12])([H:8])([H:9])[H:10].[C:7]([H:16])([H:17])([H:18])[H:19]"
C        2.54652529       0.80281720      -0.02379976
C        1.59200762      -0.35631614      -0.18423392
O        0.58791126      -0.24966105       0.81091427
C       -0.39770172      -1.21653634       0.68801517
C       -1.72837342      -0.95282671       1.29338450
C       -1.57425710      -0.91608615      -0.19021484
C       -1.64384066       1.08027482      -0.99022167
H        2.99526010       0.79677684       0.97028838
H        2.02026035       1.74858848      -0.16161425
H        3.34537403       0.73912989      -0.76440462
H        2.11224895      -1.31650909      -0.06474358
H        1.14156878      -0.35514443      -1.18441770
H       -0.04820104      -2.24857360       0.70240728
H       -1.90164863       0.00484901       1.77213159
H       -2.24997741      -1.78980620       1.74218874
H       -2.00542160      -0.21285868      -1.34601143
H       -1.21762475       1.36119467      -1.95577096
H       -2.60706894       1.57523557      -0.86452559
H       -0.96704111       1.50545189      -0.24937161
19
Frame=12 idx=009431 GeodesicLength=0.8416920774714973 rxn_smarts="[C:1]([C:2]([O:3][C@@:4]1([H:13])[C:5]([H:14])([H:15])[C@:6]1([C:7]([H:17])([H:18])[H:19])[H:16])([H:11])[H:12])([H:8])([H:9])[H:10]>>[C:1]([C:2]([O:3][C@@:4]1([H:13])[C:5]([H:14])([H:15])[C:6]1)([H:11])[H:12])([H:8])([H:9])[H:10].[C:7]([H:16])([H:17])([H:18])[H:19]"
C        2.54449939       0.80237686      -0.02626889
C        1.59549730      -0.36209465      -0.18056224
O        0.59291981      -0.25651797       0.81635190
C       -0.39474640      -1.22098147       0.69239182
C       -1.72351744      -0.95990447       1.30370214
C       -1.56859303      -0.89389219      -0.17751717
C       -1.64702298       1.08781523      -0.99548036
H        2.99451064       0.80281964       0.96726114
H        2.01272240       1.74449860      -0.16773871
H        3.34276605       0.73947099      -0.76757291
H        2.11983212      -1.31964772      -0.05735371
H        1.14444889      -0.36717456      -1.18035074
H       -0.05084944      -2.25482351       0.69736934
H       -1.89963502      -0.00891997       1.79477756
H       -2.24365887      -1.80478188       1.73899350
H       -2.02118770      -0.21614526      -1.36068488
H       -1.20361520       1.36597239      -1.95431535
H       -2.60938335       1.59063906      -0.89210751
H       -0.98498715       1.53129088      -0.25089493
19
Frame=13 idx=009431 GeodesicLength=0.9117376844531273 rxn_smarts="[C:1]([C:2]([O:3][C@@:4]1([H:13])[C:5]([H:14])([H:15])[C@:6]1([C:7]([H:17])([H:18])[H:19])[H:16])([H:11])[H:12])([H:8])([H:9])[H:10]>>[C:1]([C:2]([O:3][C@@:4]1([H:13])[C:5]([H:14])([H:15])[C:6]1)([H:11])[H:12])([H:8])([H:9])[H:10].[C:7]([H:16])([H:17])([H:18])[H:19]"
C        2.54244603       0.80188212      -0.02864004
C        1.59904787      -0.36790862      -0.17685235
O        0.59819392      -0.26367325       0.82205732
C       -0.39181568      -1.22538808       0.69665136
C       -1.71851346      -0.96693719       1.31418221
C       -1.56276062      -0.87084547      -0.16405750
C       -1.65028211       1.09555381      -1.00082054
H        2.99388420       0.80863439       0.96422030
H        2.00504918       1.74028380      -0.17343818
H        3.33999270       0.73996577      -0.77080662
H        2.12748837      -1.32281027      -0.05019592
H        1.14727911      -0.37906372      -1.17615854
H       -0.05386104      -2.26102128       0.69158864
H       -1.89709088      -0.02307382       1.81812810
H       -2.23755595      -1.81953362       1.73529109
H       -2.03668253      -0.21988917      -1.37470748
H       -1.18969222       1.37037850      -1.95274754
H       -2.61157131       1.60567970      -0.92064269
H       -1.00355559       1.55776641      -0.25305163
19
Frame=14 idx=009431 GeodesicLength=0.9817578349338575 rxn_smarts="[C:1]([C:2]([O:3][C@@:4]1([H:13])[C:5]([H:14])([H:15])[C@:6]1([C:7]([H:17])([H:18])[H:19])[H:16])([H:11])[H:12])([H:8])([H:9])[H:10]>>[C:1]([C:2]([O:3][C@@:4]1([H:13])[C:5]([H:14])([H:15])[C:6]1)([H:11])[H:12])([H:8])([H:9])[H:10].[C:7]([H:16])([H:17])([H:18])[H:19]"
C        2.54037852       0.80132397      -0.03089459
C        1.60266293      -0.37375594      -0.17311028
O        0.60375410      -0.27114274       0.82804059
C       -0.38891672      -1.22973360       0.70078135
C       -1.71335981      -0.97390402       1.32482093
C       -1.55672785      -0.84690166      -0.14978159
C       -1.65363555       1.10348268      -1.00624957
H        2.99340922       0.81417874       0.96118012
H        1.99725893       1.73594485      -0.17865578
H        3.33705268       0.74061934      -0.77410128
H        2.13521125      -1.32600780      -0.04330990
H        1.15005010      -0.39077752      -1.17184477
H       -0.05726780      -2.26713159       0.68503023
H       -1.89398935      -0.03762822       1.84219923
H       -2.23169229      -1.83401265       1.73104894
H       -2.05188544      -0.22415645      -1.38804646
H       -1.17589222       1.37444708      -1.95106154
H       -2.61363969       1.62025922      -0.95013227
H       -1.02277100       1.58489630      -0.25591336
19
Frame=15 idx=009431 GeodesicLength=1.0517521157806629 rxn_smarts="[C:1]([C:2]([O:3][C@@:4]1([H:13])[C:5]([H:14])([H:15])[C@:6]1([C:7]([H:17])([H:18])[H:19])[H:16])([H:11])[H:12])([H:8])([H:9])[H:10]>>[C:1]([C:2]([O:3][C@@:4]1([H:13])[C:5]([H:14])([H:15])[C:6]1)([H:11])[H:12])([H:8])([H:9])[H:10].[C:7]([H:16])([H:17])([H:18])[H:19]"
C        2.53831534       0.80069256      -0.03300655
C        1.60634816      -0.37963321      -0.16934266
O        0.60962461      -0.27894529       0.83431167
C       -0.38605508      -1.23399392       0.70476643
C       -1.70805141      -0.98078153       1.33561358
C       -1.55045716      -0.82200903      -0.13463046
C       -1.65710457       1.11158863      -1.01177328
H        2.99312060       0.81940197       0.95816277
H        1.98937711       1.73148422      -0.18332092
H        3.33394945       0.74143902      -0.77744654
H        2.14299462      -1.32925225      -0.03674235
H        1.15275350      -0.40227290      -1.16741382
H       -0.06110837      -2.27311585       0.67764584
H       -1.89029801      -0.05259915       1.86700644
H       -2.22609618      -1.84816078       1.72623224
H       -2.06678186      -0.22902370      -1.40065469
H       -1.16227641       1.37820393      -1.94926322
H       -2.61559988       1.63428040      -0.98057631
H       -1.04265447       1.61269688      -0.25956818
19
Frame=16 idx=009431 GeodesicLength=1.1217221590231232 rxn_smarts="[C:1]([C:2]([O:3][C@@:4]1([H:13])[C:5]([H:14])([H:15])[C@:6]1([C:7]([H:17])([H:18])[H:19])[H:16])([H:11])[H:12])([H:8])([H:9])[H:10]>>[C:1]([C:2]([O:3][C@@:4]1([H:13])[C:5]([H:14])([H:15])[C:6]1)([H:11])[H:12])([H:8])([H:9])[H:10].[C:7]([H:16])([H:17])([H:18])[H:19]"
C        2.53627883       0.79997690      -0.03494598
C        1.61011060      -0.38553661      -0.16555683
O        0.61583264      -0.28710210       0.84088109
C       -0.38323728      -1.23814054       0.70859058
C       -1.70258293      -0.98754306       1.34655605
C       -1.54390602      -0.79610449      -0.11853687
C       -1.66070942       1.11985413      -1.01739926
H        2.99305981       0.82424695       0.95519402
H        1.98143452       1.72690537      -0.18735344
H        3.33068822       0.74243298      -0.78082976
H        2.15083171      -1.33255757      -0.03054514
H        1.15538083      -0.41350158      -1.16287089
H       -0.06542618      -2.27892863       0.66937717
H       -1.88598151      -0.06800559       1.89256765
H       -2.22079856      -1.86191727       1.72079766
H       -2.08136140      -0.23457464      -1.41246853
H       -1.14891483       1.38167448      -1.94736528
H       -2.61746880       1.64763836      -1.01197972
H       -1.06323023       1.64118292      -0.26411251
