16
Frame=0 idx=009635 GeodesicLength=0.0 rxn_smarts="[C:1]([C@@:2]1([H:11])[N:3]([H:12])[C@:4]1([C@@:5]1([H:14])[C:6]([H:15])([H:16])[O:7]1)[H:13])([H:8])([H:9])[H:10]>>[C:1](/[C:2](=[N:3]\[H:12])[H:11])([H:8])([H:9])[H:10].[C:4](=[C:5]1[C:6]([H:15])([H:16])[O:7]1)([H:13])[H:14]"
C       -1.84473298      -0.55290484       0.05747871
C       -1.15706248       0.62800056       0.72441823
N       -0.63238840       0.52744720       1.97733947
C        0.25222154       1.00808017      -0.05225418
C        1.12897175       0.09283161      -0.61694962
C        2.35565028      -0.63239122      -0.80051551
O        1.02431184      -1.08776637      -1.22632703
H       -2.06796003      -0.36122707      -0.99580962
H       -2.78359566      -0.74428023       0.57919567
H       -1.23424582      -1.45623176       0.12357171
H       -1.75877556       1.53366250       0.59875707
H       -0.28173155      -0.42338815       2.10283100
H        0.74631827       1.86441224       0.39154108
H        0.45617794       1.17743577      -1.27791762
H        3.02387864      -0.38095914      -1.61546124
H        2.77296219      -1.19272127       0.03010183
16
Frame=1 idx=009635 GeodesicLength=0.09090673418981154 rxn_smarts="[C:1]([C@@:2]1([H:11])[N:3]([H:12])[C@:4]1([C@@:5]1([H:14])[C:6]([H:15])([H:16])[O:7]1)[H:13])([H:8])([H:9])[H:10]>>[C:1](/[C:2](=[N:3]\[H:12])[H:11])([H:8])([H:9])[H:10].[C:4](=[C:5]1[C:6]([H:15])([H:16])[O:7]1)([H:13])[H:14]"
C       -1.86103079      -0.54691936       0.05769952
C       -1.15906810       0.61951506       0.73235235
N       -0.58149120       0.49271934       1.95892156
C        0.25435202       1.02251797      -0.07437805
C        1.13050004       0.10884458      -0.64234440
C        2.35604175      -0.62919844      -0.77337124
O        1.03327383      -1.09631561      -1.20797669
H       -2.10169953      -0.33292862      -0.98736127
H       -2.79207018      -0.74617739       0.59061672
H       -1.25304854      -1.45334143       0.09536350
H       -1.76532944       1.52689694       0.64987348
H       -0.24365333      -0.46566576       2.05874094
H        0.74393844       1.89011542       0.35250819
H        0.44442140       1.17423315      -1.31645751
H        3.04178820      -0.40789900      -1.58261231
H        2.75307543      -1.15639684       0.08842520
16
Frame=2 idx=009635 GeodesicLength=0.18196982321119787 rxn_smarts="[C:1]([C@@:2]1([H:11])[N:3]([H:12])[C@:4]1([C@@:5]1([H:14])[C:6]([H:15])([H:16])[O:7]1)[H:13])([H:8])([H:9])[H:10]>>[C:1](/[C:2](=[N:3]\[H:12])[H:11])([H:8])([H:9])[H:10].[C:4](=[C:5]1[C:6]([H:15])([H:16])[O:7]1)([H:13])[H:14]"
C       -1.87714343      -0.54108841       0.05847347
C       -1.16091934       0.61079725       0.74037810
N       -0.53272561       0.45915894       1.93846187
C        0.25745204       1.03589998      -0.09569382
C        1.13245306       0.12313532      -0.66699912
C        2.35613577      -0.62511907      -0.74701167
O        1.04182466      -1.10462304      -1.18870790
H       -2.13413107      -0.30517824      -0.97795143
H       -2.80070524      -0.74792181       0.60166228
H       -1.27229547      -1.45014960       0.06833549
H       -1.76989166       1.51903035       0.70023514
H       -0.20873573      -0.50607428       2.01459475
H        0.74247305       1.91405787       0.31478838
H        0.43422899       1.16991187      -1.35382278
H        3.05824511      -0.43312494      -1.54985066
H        2.73373488      -1.11871218       0.14310789
16
Frame=3 idx=009635 GeodesicLength=0.2732372979357627 rxn_smarts="[C:1]([C@@:2]1([H:11])[N:3]([H:12])[C@:4]1([C@@:5]1([H:14])[C:6]([H:15])([H:16])[O:7]1)[H:13])([H:8])([H:9])[H:10]>>[C:1](/[C:2](=[N:3]\[H:12])[H:11])([H:8])([H:9])[H:10].[C:4](=[C:5]1[C:6]([H:15])([H:16])[O:7]1)([H:13])[H:14]"
C       -1.89306586      -0.53541616       0.05975248
C       -1.16272907       0.60187353       0.74852569
N       -0.48615973       0.42674648       1.91624797
C        0.26146880       1.04836310      -0.11624138
C        1.13480522       0.13580952      -0.69082376
C        2.35600063      -0.62027950      -0.72146637
O        1.04999011      -1.11258783      -1.16867411
H       -2.16525199      -0.27795409      -0.96766864
H       -2.80951761      -0.74958221       0.61231215
H       -1.29187978      -1.44663868       0.04243648
H       -1.77279303       1.51009587       0.74982963
H       -0.17678422      -0.54466711       1.97062107
H        0.74190695       1.93644975       0.27824684
H        0.42558088       1.16454500      -1.39009709
H        3.07337933      -0.45669931      -1.51725372
H        2.71504937      -1.08005837       0.19425277
16
Frame=4 idx=009635 GeodesicLength=0.364679477176813 rxn_smarts="[C:1]([C@@:2]1([H:11])[N:3]([H:12])[C@:4]1([C@@:5]1([H:14])[C:6]([H:15])([H:16])[O:7]1)[H:13])([H:8])([H:9])[H:10]>>[C:1](/[C:2](=[N:3]\[H:12])[H:11])([H:8])([H:9])[H:10].[C:4](=[C:5]1[C:6]([H:15])([H:16])[O:7]1)([H:13])[H:14]"
C       -1.90874068      -0.52994037       0.06151432
C       -1.16459011       0.59277376       0.75683913
N       -0.44187186       0.39553267       1.89255585
C        0.26635662       1.06006345      -0.13602996
C        1.13753650       0.14702825      -0.71375373
C        2.35563773      -0.61481289      -0.69676378
O        1.05773838      -1.12004337      -1.14814782
H       -2.19496189      -0.25134159      -0.95657508
H       -2.81848021      -0.75125791       0.62252882
H       -1.31163680      -1.44281622       0.01770012
H       -1.77432584       1.50009339       0.79853355
H       -0.14759354      -0.58141459       1.92703084
H        0.74222673       1.95749551       0.24281122
H        0.41846677       1.15827856      -1.42531952
H        3.08730802      -0.47867426      -1.48485700
H        2.69693020      -1.04096440       0.24193305
16
Frame=5 idx=009635 GeodesicLength=0.4563271259439206 rxn_smarts="[C:1]([C@@:2]1([H:11])[N:3]([H:12])[C@:4]1([C@@:5]1([H:14])[C:6]([H:15])([H:16])[O:7]1)[H:13])([H:8])([H:9])[H:10]>>[C:1](/[C:2](=[N:3]\[H:12])[H:11])([H:8])([H:9])[H:10].[C:4](=[C:5]1[C:6]([H:15])([H:16])[O:7]1)([H:13])[H:14]"
C       -1.92414815      -0.52467896       0.06372712
C       -1.16656559       0.58350658       0.76534945
N       -0.39983467       0.36552707       1.86761832
C        0.27205994       1.07113898      -0.15512962
C        1.14061615       0.15694240      -0.73580396
C        2.35506014      -0.60885306      -0.67287801
O        1.06505880      -1.12690219      -1.12738082
H       -2.22329280      -0.22532198      -0.94476228
H       -2.82757827      -0.75302303       0.63231111
H       -1.33144633      -1.43870062      -0.00592808
H       -1.77476615       1.48903776       0.84644734
H       -0.12090490      -0.61636535       1.88395335
H        0.74339076       1.97740077       0.20831612
H        0.41283013       1.15122267      -1.45959910
H        3.10019528      -0.49914879      -1.45262573
H        2.67932567      -1.00178225       0.28638479
16
Frame=6 idx=009635 GeodesicLength=0.5481137934661446 rxn_smarts="[C:1]([C@@:2]1([H:11])[N:3]([H:12])[C@:4]1([C@@:5]1([H:14])[C:6]([H:15])([H:16])[O:7]1)[H:13])([H:8])([H:9])[H:10]>>[C:1](/[C:2](=[N:3]\[H:12])[H:11])([H:8])([H:9])[H:10].[C:4](=[C:5]1[C:6]([H:15])([H:16])[O:7]1)([H:13])[H:14]"
C       -1.93921987      -0.51968051       0.06637009
C       -1.16869590       0.57407283       0.77409026
N       -0.36008523       0.33680254       1.84163348
C        0.27854337       1.08172347      -0.17356481
C        1.14403814       0.16572566      -0.75696651
C        2.35424029      -0.60252409      -0.64980744
O        1.07192050      -1.13304276      -1.10665100
H       -2.25014926      -0.19998773      -0.93226930
H       -2.83677347      -0.75496184       0.64162259
H       -1.35116580      -1.43430215      -0.02840711
H       -1.77431254       1.47689817       0.89353900
H       -0.09651656      -0.64945043       1.84152480
H        0.74537703       1.99633307       0.17469102
H        0.40865357       1.14351989      -1.49298481
H        3.11211237      -0.51818690      -1.42052768
H        2.66203336      -0.96293924       0.32770742
16
Frame=7 idx=009635 GeodesicLength=0.6400688432273794 rxn_smarts="[C:1]([C@@:2]1([H:11])[N:3]([H:12])[C@:4]1([C@@:5]1([H:14])[C:6]([H:15])([H:16])[O:7]1)[H:13])([H:8])([H:9])[H:10]>>[C:1](/[C:2](=[N:3]\[H:12])[H:11])([H:8])([H:9])[H:10].[C:4](=[C:5]1[C:6]([H:15])([H:16])[O:7]1)([H:13])[H:14]"
C       -1.95393550      -0.51496203       0.06941477
C       -1.17101011       0.56446298       0.78309767
N       -0.32258328       0.30939437       1.81477120
C        0.28576836       1.09194283      -0.19140657
C        1.14779198       0.17353608      -0.77727874
C        2.35315216      -0.59592700      -0.62750930
O        1.07831860      -1.13841342      -1.08618171
H       -2.27553763      -0.17534847      -0.91917688
H       -2.84605140      -0.75712987       0.65045310
H       -1.37069273      -1.42965192      -0.04977190
H       -1.77316511       1.46365454       0.93995218
H       -0.07419425      -0.68067527       1.79982586
H        0.74815557       2.01446578       0.14178942
H        0.40587878       1.13527788      -1.52558611
H        3.12317469      -0.53589558      -1.38852071
H        2.64492987      -0.92473088       0.36612772
16
Frame=8 idx=009635 GeodesicLength=0.7321532311537252 rxn_smarts="[C:1]([C@@:2]1([H:11])[N:3]([H:12])[C@:4]1([C@@:5]1([H:14])[C:6]([H:15])([H:16])[O:7]1)[H:13])([H:8])([H:9])[H:10]>>[C:1](/[C:2](=[N:3]\[H:12])[H:11])([H:8])([H:9])[H:10].[C:4](=[C:5]1[C:6]([H:15])([H:16])[O:7]1)([H:13])[H:14]"
C       -1.96826328      -0.51054943       0.07283834
C       -1.17351816       0.55466171       0.79240149
N       -0.28732273       0.28336022       1.78717974
C        0.29371064       1.10189905      -0.20870008
C        1.15187589       0.18051100      -0.79676685
C        2.35177748      -0.58915738      -0.60596196
O        1.08423882      -1.14298367      -1.06617367
H       -2.29943654      -0.15143131      -0.90554524
H       -2.85539793      -0.75956572       0.65878237
H       -1.38994285      -1.42478022      -0.07001701
H       -1.77146040       1.44926470       0.98577695
H       -0.05374856      -0.71001050       1.75891581
H        0.75170027       2.03193618       0.10951332
H        0.40448327       1.12658793      -1.55747407
H        3.13344646      -0.55235328      -1.35658402
H        2.62785763      -0.88738927       0.40181487
16
Frame=9 idx=009635 GeodesicLength=0.824395689050874 rxn_smarts="[C:1]([C@@:2]1([H:11])[N:3]([H:12])[C@:4]1([C@@:5]1([H:14])[C:6]([H:15])([H:16])[O:7]1)[H:13])([H:8])([H:9])[H:10]>>[C:1](/[C:2](=[N:3]\[H:12])[H:11])([H:8])([H:9])[H:10].[C:4](=[C:5]1[C:6]([H:15])([H:16])[O:7]1)([H:13])[H:14]"
C       -1.98218380      -0.50652037       0.07660670
C       -1.17636586       0.54475535       0.80200241
N       -0.25426504       0.25873224       1.75890165
C        0.30239785       1.11166564      -0.22537899
C        1.15626179       0.18674031      -0.81543668
C        2.35016533      -0.58234215      -0.58526054
O        1.08963754      -1.14681159      -1.04675586
H       -2.32188153      -0.12835717      -0.89157493
H       -2.86480109      -0.76228763       0.66654674
H       -1.40877979      -1.41986660      -0.08901293
H       -1.76940693       1.43395055       1.03112850
H       -0.03505502      -0.73739418       1.71886200
H        0.75603498       2.04884784       0.07795091
H        0.40442280       1.11760974      -1.58860943
H        3.14309172      -0.56770768      -1.32491039
H        2.61072704      -0.85101431       0.43494085
16
Frame=10 idx=009635 GeodesicLength=0.9168029554429099 rxn_smarts="[C:1]([C@@:2]1([H:11])[N:3]([H:12])[C@:4]1([C@@:5]1([H:14])[C:6]([H:15])([H:16])[O:7]1)[H:13])([H:8])([H:9])[H:10]>>[C:1](/[C:2](=[N:3]\[H:12])[H:11])([H:8])([H:9])[H:10].[C:4](=[C:5]1[C:6]([H:15])([H:16])[O:7]1)([H:13])[H:14]"
C       -1.99571376      -0.50281722       0.08068939
C       -1.17946604       0.53465079       0.81197384
N       -0.22327341       0.23549602       1.73015629
C        0.31175394       1.12136313      -0.24161299
C        1.16095198       0.19239617      -0.83337829
C        2.34824015      -0.57549395      -0.56524071
O        1.09455237      -1.14985670      -1.02804964
H       -2.34289220      -0.10601423      -0.87722284
H       -2.87430731      -0.76528544       0.67377718
H       -1.42723506      -1.41482011      -0.10692091
H       -1.76709397       1.41745798       1.07607008
H       -0.01779345      -0.76295637       1.67968658
H        0.76110675       2.06535038       0.04679610
H        0.40564072       1.10836883      -1.61920061
H        3.15203797      -0.58201995      -1.29329707
H        2.59349133      -0.81581932       0.46577362
16
Frame=11 idx=009635 GeodesicLength=1.009385327259364 rxn_smarts="[C:1]([C@@:2]1([H:11])[N:3]([H:12])[C@:4]1([C@@:5]1([H:14])[C:6]([H:15])([H:16])[O:7]1)[H:13])([H:8])([H:9])[H:10]>>[C:1](/[C:2](=[N:3]\[H:12])[H:11])([H:8])([H:9])[H:10].[C:4](=[C:5]1[C:6]([H:15])([H:16])[O:7]1)([H:13])[H:14]"
C       -2.00886823      -0.49943588       0.08506260
C       -1.18284139       0.52433774       0.82235642
N       -0.19423010       0.21365294       1.70104843
C        0.32175751       1.13106854      -0.25744255
C        1.16593034       0.19757829      -0.85063766
C        2.34600881      -0.56865931      -0.54586884
O        1.09898834      -1.15216146      -1.01011494
H       -2.36250836      -0.08438678      -0.86257655
H       -2.88394324      -0.76853703       0.68046188
H       -1.44529492      -1.40968779      -0.12376959
H       -1.76466229       1.39978008       1.12068231
H       -0.00177471      -0.78676244       1.64140788
H        0.76690064       2.08154834       0.01594958
H        0.40807947       1.09893732      -1.64931589
H        3.16031579      -0.59539752      -1.26177690
H        2.57614233      -0.78187504       0.49453380
16
Frame=12 idx=009635 GeodesicLength=1.1021015223850417 rxn_smarts="[C:1]([C@@:2]1([H:11])[N:3]([H:12])[C@:4]1([C@@:5]1([H:14])[C:6]([H:15])([H:16])[O:7]1)[H:13])([H:8])([H:9])[H:10]>>[C:1](/[C:2](=[N:3]\[H:12])[H:11])([H:8])([H:9])[H:10].[C:4](=[C:5]1[C:6]([H:15])([H:16])[O:7]1)([H:13])[H:14]"
C       -2.02165225      -0.49638202       0.08969627
C       -1.18650880       0.51380236       0.83317396
N       -0.16705148       0.19322040       1.67167008
C        0.33240162       1.14084392      -0.27288542
C        1.17118443       0.20237930      -0.86725078
C        2.34346078      -0.56187652      -0.52713281
O        1.10293445      -1.15375847      -0.99300562
H       -2.38073271      -0.06349198      -0.84768230
H       -2.89373403      -0.77202138       0.68658093
H       -1.46294501      -1.40450500      -0.13954250
H       -1.76221186       1.38089906       1.16497658
H        0.01314794      -0.80884016       1.60404627
H        0.77341618       2.09751212      -0.01464384
H        0.41171800       1.08937853      -1.67899088
H        3.16792078      -0.60791460      -1.23039266
H        2.55865194      -0.74924555       0.52138271
16
Frame=13 idx=009635 GeodesicLength=1.1949636349404658 rxn_smarts="[C:1]([C@@:2]1([H:11])[N:3]([H:12])[C@:4]1([C@@:5]1([H:14])[C:6]([H:15])([H:16])[O:7]1)[H:13])([H:8])([H:9])[H:10]>>[C:1](/[C:2](=[N:3]\[H:12])[H:11])([H:8])([H:9])[H:10].[C:4](=[C:5]1[C:6]([H:15])([H:16])[O:7]1)([H:13])[H:14]"
C       -2.03409418      -0.49364658       0.09456416
C       -1.19048473       0.50302731       0.84445736
N       -0.14163812       0.17420421       1.64208069
C        0.34367394       1.15074915      -0.28799348
C        1.17670113       0.20687207      -0.88327353
C        2.34060712      -0.55517276      -0.50899206
O        1.10639841      -1.15469876      -0.97673854
H       -2.39763472      -0.04329590      -0.83262046
H       -2.90371547      -0.77570624       0.69213588
H       -1.48018494      -1.39931908      -0.15428287
H       -1.75983335       1.36077969       1.20909211
H        0.02713009      -0.82924208       1.56760446
H        0.78065275       2.11331520      -0.04508328
H        0.41650987       1.07973880      -1.70830210
H        3.17488833      -0.61967035      -1.19915681
H        2.54102388      -0.71793470       0.54650846
16
Frame=14 idx=009635 GeodesicLength=1.2879395168981667 rxn_smarts="[C:1]([C@@:2]1([H:11])[N:3]([H:12])[C@:4]1([C@@:5]1([H:14])[C:6]([H:15])([H:16])[O:7]1)[H:13])([H:8])([H:9])[H:10]>>[C:1](/[C:2](=[N:3]\[H:12])[H:11])([H:8])([H:9])[H:10].[C:4](=[C:5]1[C:6]([H:15])([H:16])[O:7]1)([H:13])[H:14]"
C       -2.04621295      -0.49122541       0.09964790
C       -1.19477573       0.49198406       0.85622531
N       -0.11793750       0.15661486       1.61233755
C        0.35558219       1.16082579      -0.30278983
C        1.18247396       0.21111681      -0.89873776
C        2.33745260      -0.54857088      -0.49144166
O        1.10938903      -1.15503086      -0.96130550
H       -2.41324437      -0.02377900      -0.81744136
H       -2.91392331      -0.77955860       0.69710405
H       -1.49701608      -1.39416621      -0.16799664
H       -1.75759116       1.33937786       1.25310089
H        0.04027725      -0.84799232       1.53209697
H        0.78861836       2.12900417      -0.07542551
H        0.42244708       1.07004999      -1.73729431
H        3.18120654      -0.63074849      -1.16813145
H        2.52325410      -0.68790175       0.57005136
16
Frame=15 idx=009635 GeodesicLength=1.3810226299127195 rxn_smarts="[C:1]([C@@:2]1([H:11])[N:3]([H:12])[C@:4]1([C@@:5]1([H:14])[C:6]([H:15])([H:16])[O:7]1)[H:13])([H:8])([H:9])[H:10]>>[C:1](/[C:2](=[N:3]\[H:12])[H:11])([H:8])([H:9])[H:10].[C:4](=[C:5]1[C:6]([H:15])([H:16])[O:7]1)([H:13])[H:14]"
C       -2.05804191      -0.48910674       0.10492420
C       -1.19939261       0.48064446       0.86850334
N       -0.09589446       0.14046887       1.58247057
C        0.36812515       1.17111992      -0.31732417
C        1.18849251       0.21515846      -0.91369327
C        2.33401221      -0.54208609      -0.47445668
O        1.11191286      -1.15480732      -0.94668498
H       -2.42763216      -0.00488939      -0.80220590
H       -2.92439888      -0.78354074       0.70147217
H       -1.51344860      -1.38909209      -0.18072989
H       -1.75551772       1.31661482       1.29716551
H        0.05269695      -0.86512502       1.49753764
H        0.79732013       2.14463031      -0.10575869
H        0.42950229       1.06033584      -1.76604035
H        3.18691207      -0.64125296      -1.13733888
H        2.50535217      -0.65907234       0.59215939
16
Frame=16 idx=009635 GeodesicLength=1.4742140583030239 rxn_smarts="[C:1]([C@@:2]1([H:11])[N:3]([H:12])[C@:4]1([C@@:5]1([H:14])[C:6]([H:15])([H:16])[O:7]1)[H:13])([H:8])([H:9])[H:10]>>[C:1](/[C:2](=[N:3]\[H:12])[H:11])([H:8])([H:9])[H:10].[C:4](=[C:5]1[C:6]([H:15])([H:16])[O:7]1)([H:13])[H:14]"
C       -2.06961698      -0.48727974       0.11036325
C       -1.20434225       0.46897172       0.88133194
N       -0.07546694       0.12577980       1.55249454
C        0.38130843       1.18167125      -0.33164623
C        1.19474485       0.21902810      -0.92818818
C        2.33030514      -0.53572869      -0.45801556
O        1.11397657      -1.15408116      -0.93283681
H       -2.44088095       0.01344291      -0.78697382
H       -2.93519010      -0.78760541       0.70523391
H       -1.52950154      -1.38414419      -0.19253881
H       -1.75362291       1.29239734       1.34144738
H        0.06448844      -0.88068258       1.46394323
H        0.80677025       2.16023556      -0.13617252
H        0.43765363       1.05060726      -1.79461377
H        3.19204169      -0.65128225      -1.10679762
H        2.48733269      -0.63132990       0.61296906
