16
Frame=0 idx=008624 GeodesicLength=0.0 rxn_smarts="[C:1]([C:2]([C:3]([O:4][C:5](=[O:6])[N:7]([H:15])[H:16])([H:13])[H:14])([H:11])[H:12])([H:8])([H:9])[H:10]>>[C:1]([C@@:2]1([H:12])[C:3]([H:13])([H:14])[O:4][C@:5]1([O:6][H:11])[N:7]([H:15])[H:16])([H:8])([H:9])[H:10]"
C       -2.16712150       0.08607376      -0.39611489
C       -0.76548873       0.47815727       0.04650033
C       -0.26422176      -0.24083577       1.25535304
O        1.20868461      -0.24518777       1.09041349
C        1.49228226      -0.23194754      -0.19090225
O        1.07241004      -1.11902643      -1.08871315
N        2.61562137       0.39081315      -0.50573852
H       -2.96019321       0.34551466       0.32234801
H       -2.43058011       0.57761437      -1.33621560
H       -2.25810857      -0.99443048      -0.56975144
H        0.11604891      -0.83678598      -1.09159879
H       -0.69767710       1.56036316       0.18879464
H       -0.38675682       0.20321741       2.25050530
H       -0.60416311      -1.28055613       1.29893382
H        2.97065035       0.31850365      -1.44148129
H        3.05861336       0.98851264       0.16766725
16
Frame=1 idx=008624 GeodesicLength=0.1121789920225316 rxn_smarts="[C:1]([C:2]([C:3]([O:4][C:5](=[O:6])[N:7]([H:15])[H:16])([H:13])[H:14])([H:11])[H:12])([H:8])([H:9])[H:10]>>[C:1]([C@@:2]1([H:12])[C:3]([H:13])([H:14])[O:4][C@:5]1([O:6][H:11])[N:7]([H:15])[H:16])([H:8])([H:9])[H:10]"
C       -2.16546750       0.09153263      -0.39195679
C       -0.75831225       0.47187757       0.04308738
C       -0.26180634      -0.25297211       1.25234437
O        1.20699864      -0.25373916       1.08899840
C        1.49270596      -0.23518391      -0.19448980
O        1.07568535      -1.12031647      -1.09262445
N        2.62428727       0.38626305      -0.49666573
H       -2.94992571       0.35444568       0.33378986
H       -2.43095519       0.58831458      -1.32853868
H       -2.26445922      -0.98761716      -0.56755091
H        0.09362709      -0.82894823      -1.09976104
H       -0.68888612       1.55364691       0.18950407
H       -0.38616370       0.18876483       2.24776905
H       -0.60779457      -1.29062815       1.29359915
H        3.02251991       0.26100921      -1.40923690
H        2.99794636       1.07355073       0.13173204
16
Frame=2 idx=008624 GeodesicLength=0.2243551709585637 rxn_smarts="[C:1]([C:2]([C:3]([O:4][C:5](=[O:6])[N:7]([H:15])[H:16])([H:13])[H:14])([H:11])[H:12])([H:8])([H:9])[H:10]>>[C:1]([C@@:2]1([H:12])[C:3]([H:13])([H:14])[O:4][C@:5]1([O:6][H:11])[N:7]([H:15])[H:16])([H:8])([H:9])[H:10]"
C       -2.16387922       0.09660017      -0.38795603
C       -0.75149584       0.46572850       0.03953618
C       -0.25964084      -0.26463858       1.24932501
O        1.20514985      -0.26043714       1.08812978
C        1.49316126      -0.23726594      -0.19748607
O        1.08059721      -1.12121963      -1.09583791
N        2.63248825       0.38408892      -0.48617406
H       -2.93980297       0.36267841       0.34491867
H       -2.43146305       0.59851962      -1.32101071
H       -2.27054283      -0.98118367      -0.56537957
H        0.07137469      -0.82087300      -1.10753240
H       -0.68085898       1.54709583       0.18993114
H       -0.38650162       0.17467685       2.24498033
H       -0.61097549      -1.30042564       1.28814702
H        3.07121248       0.20994639      -1.37188027
H        2.94117708       1.14670890       0.08828890
16
Frame=3 idx=008624 GeodesicLength=0.3365140551546246 rxn_smarts="[C:1]([C:2]([C:3]([O:4][C:5](=[O:6])[N:7]([H:15])[H:16])([H:13])[H:14])([H:11])[H:12])([H:8])([H:9])[H:10]>>[C:1]([C@@:2]1([H:12])[C:3]([H:13])([H:14])[O:4][C@:5]1([O:6][H:11])[N:7]([H:15])[H:16])([H:8])([H:9])[H:10]"
C       -2.16227797       0.10139049      -0.38414578
C       -0.74485578       0.45958095       0.03573799
C       -0.25769407      -0.27590493       1.24629243
O        1.20315043      -0.26586065       1.08776547
C        1.49370397      -0.23868074      -0.19993279
O        1.08710915      -1.12237047      -1.09820844
N        2.63981384       0.38432245      -0.47487555
H       -2.92968643       0.37068293       0.35565505
H       -2.43190840       0.60820730      -1.31377735
H       -2.27654863      -0.97504104      -0.56303802
H        0.04916303      -0.81309250      -1.11484470
H       -0.67318050       1.54059722       0.18981503
H       -0.38758261       0.16108844       2.24206883
H       -0.61393553      -1.30994181       1.28273394
H        3.11568847       0.16628429      -1.33133998
H        2.88904102       1.20873805       0.04009388
16
Frame=4 idx=008624 GeodesicLength=0.4489771388841981 rxn_smarts="[C:1]([C:2]([C:3]([O:4][C:5](=[O:6])[N:7]([H:15])[H:16])([H:13])[H:14])([H:11])[H:12])([H:8])([H:9])[H:10]>>[C:1]([C@@:2]1([H:12])[C:3]([H:13])([H:14])[O:4][C@:5]1([O:6][H:11])[N:7]([H:15])[H:16])([H:8])([H:9])[H:10]"
C       -2.15995257       0.10673854      -0.38057929
C       -0.73739408       0.45303875       0.03175268
C       -0.25576940      -0.28754256       1.24342253
O        1.20123563      -0.27210032       1.08825818
C        1.49477355      -0.24154065      -0.20144011
O        1.09535809      -1.12520687      -1.09983262
N        2.64516989       0.38749207      -0.46304062
H       -2.91868649       0.38018766       0.36582921
H       -2.43099678       0.61828013      -1.30704371
H       -2.28278663      -0.96829382      -0.56035917
H        0.02702502      -0.80685681      -1.12144530
H       -0.66391055       1.53372675       0.18915079
H       -0.38891896       0.14745064       2.23917659
H       -0.61734545      -1.31967793       1.27748721
H        3.15647561       0.12992132      -1.28773133
H        2.83572312       1.26438310      -0.01360503
16
Frame=5 idx=008624 GeodesicLength=0.5611349985681502 rxn_smarts="[C:1]([C:2]([C:3]([O:4][C:5](=[O:6])[N:7]([H:15])[H:16])([H:13])[H:14])([H:11])[H:12])([H:8])([H:9])[H:10]>>[C:1]([C@@:2]1([H:12])[C:3]([H:13])([H:14])[O:4][C@:5]1([O:6][H:11])[N:7]([H:15])[H:16])([H:8])([H:9])[H:10]"
C       -2.15904034       0.11083038      -0.37669959
C       -0.73192738       0.44725331       0.02782207
C       -0.25423505      -0.29821273       1.24000311
O        1.19883488      -0.27398034       1.08815229
C        1.49499527      -0.23996347      -0.20358351
O        1.10457618      -1.12589952      -1.10053935
N        2.65190794       0.39108107      -0.45051078
H       -2.90928540       0.38615613       0.37670495
H       -2.43270824       0.62760490      -1.29927201
H       -2.28853254      -0.96272312      -0.55840289
H        0.00431068      -0.79774462      -1.12886610
H       -0.65841306       1.52756845       0.18912463
H       -0.39150376       0.13368390       2.23599366
H       -0.61920783      -1.32903217       1.27117052
H        3.19661320       0.09401134      -1.23990275
H        2.79361546       1.30936647      -0.07119425
16
Frame=6 idx=008624 GeodesicLength=0.6736971213886326 rxn_smarts="[C:1]([C:2]([C:3]([O:4][C:5](=[O:6])[N:7]([H:15])[H:16])([H:13])[H:14])([H:11])[H:12])([H:8])([H:9])[H:10]>>[C:1]([C@@:2]1([H:12])[C:3]([H:13])([H:14])[O:4][C@:5]1([O:6][H:11])[N:7]([H:15])[H:16])([H:8])([H:9])[H:10]"
C       -2.15696274       0.11606887      -0.37308275
C       -0.72500620       0.44078203       0.02370565
C       -0.25257630      -0.30980661       1.23678421
O        1.19666756      -0.27796006       1.08909129
C        1.49599064      -0.24117454      -0.20455566
O        1.11569797      -1.12933131      -1.10038309
N        2.65559367       0.39823731      -0.43801541
H       -2.89838595       0.39488676       0.38691990
H       -2.43223027       0.63795129      -1.29210839
H       -2.29480728      -0.95589027      -0.55593818
H       -0.01841773      -0.79099822      -1.13544028
H       -0.65009201       1.52070445       0.18855118
H       -0.39406720       0.11934606       2.23285305
H       -0.62189676      -1.33897223       1.26497984
H        3.23332069       0.06567370      -1.18903504
H        2.74717191       1.35048275      -0.13432630
16
Frame=7 idx=008624 GeodesicLength=0.7862146198505299 rxn_smarts="[C:1]([C:2]([C:3]([O:4][C:5](=[O:6])[N:7]([H:15])[H:16])([H:13])[H:14])([H:11])[H:12])([H:8])([H:9])[H:10]>>[C:1]([C@@:2]1([H:12])[C:3]([H:13])([H:14])[O:4][C@:5]1([O:6][H:11])[N:7]([H:15])[H:16])([H:8])([H:9])[H:10]"
C       -2.15518751       0.12110115      -0.36939018
C       -0.71848903       0.43434078       0.01937754
C       -0.25108819      -0.32120155       1.23334233
O        1.19431341      -0.28088256       1.09006479
C        1.49688086      -0.24137510      -0.20551438
O        1.12828132      -1.13322234      -1.09931044
N        2.65873817       0.40699982      -0.42545610
H       -2.88767838       0.40318168       0.39724732
H       -2.43224078       0.64808002      -1.28478196
H       -2.30127716      -0.94923676      -0.55331686
H       -0.04165878      -0.78405220      -1.14216532
H       -0.64238479       1.51390242       0.18770810
H       -0.39714963       0.10507347       2.22949257
H       -0.62432576      -1.34885782       1.25848781
H        3.26734922       0.04226067      -1.13632298
H        2.70591702       1.38388832      -0.19946224
16
Frame=8 idx=008624 GeodesicLength=0.8988811191314219 rxn_smarts="[C:1]([C:2]([C:3]([O:4][C:5](=[O:6])[N:7]([H:15])[H:16])([H:13])[H:14])([H:11])[H:12])([H:8])([H:9])[H:10]>>[C:1]([C@@:2]1([H:12])[C:3]([H:13])([H:14])[O:4][C@:5]1([O:6][H:11])[N:7]([H:15])[H:16])([H:8])([H:9])[H:10]"
C       -2.15297203       0.12664274      -0.36578554
C       -0.71144207       0.42753279       0.01480651
C       -0.24961276      -0.33293965       1.22984937
O        1.19198383      -0.28439984       1.09152712
C        1.49809005      -0.24250744      -0.20590920
O        1.14263674      -1.13900017      -1.09705004
N        2.66001588       0.41816477      -0.41308289
H       -2.87627407       0.41265029       0.40731277
H       -2.43140942       0.65866595      -1.27764991
H       -2.30810685      -0.94195983      -0.55036948
H       -0.06528498      -0.77815556      -1.14861640
H       -0.63354421       1.50672711       0.18636870
H       -0.40044363       0.09061342       2.22596097
H       -0.62706654      -1.35894806       1.25191404
H        3.29810939       0.02552510      -1.08229924
H        2.66532068       1.41138838      -0.26697679
16
Frame=9 idx=008624 GeodesicLength=1.0114306536569744 rxn_smarts="[C:1]([C:2]([C:3]([O:4][C:5](=[O:6])[N:7]([H:15])[H:16])([H:13])[H:14])([H:11])[H:12])([H:8])([H:9])[H:10]>>[C:1]([C@@:2]1([H:12])[C:3]([H:13])([H:14])[O:4][C@:5]1([O:6][H:11])[N:7]([H:15])[H:16])([H:8])([H:9])[H:10]"
C       -2.15157024       0.13171942      -0.36180481
C       -0.70533397       0.42092897       0.01002050
C       -0.24827226      -0.34440581       1.22584458
O        1.18940804      -0.28614966       1.09248375
C        1.49889350      -0.24155361      -0.20688925
O        1.15840398      -1.14445867      -1.09411220
N        2.66131601       0.43049782      -0.40082896
H       -2.86547768       0.42089700       0.41804108
H       -2.43203460       0.66892171      -1.26982114
H       -2.31525994      -0.93511112      -0.54722558
H       -0.08986979      -0.77116517      -1.15575726
H       -0.62623294       1.49976374       0.18499651
H       -0.40419582       0.07594355       2.22204548
H       -0.62910080      -1.36905366       1.24458989
H        3.32771894       0.01117904      -1.02509349
H        2.63160758       1.43204643      -0.33648909
16
Frame=10 idx=008624 GeodesicLength=1.124215501462077 rxn_smarts="[C:1]([C:2]([C:3]([O:4][C:5](=[O:6])[N:7]([H:15])[H:16])([H:13])[H:14])([H:11])[H:12])([H:8])([H:9])[H:10]>>[C:1]([C@@:2]1([H:12])[C:3]([H:13])([H:14])[O:4][C@:5]1([O:6][H:11])[N:7]([H:15])[H:16])([H:8])([H:9])[H:10]"
C       -2.14941715       0.13768185      -0.35795348
C       -0.69830005       0.41375448       0.00495018
C       -0.24689015      -0.35651525       1.22181867
O        1.18693057      -0.28918389       1.09411117
C        1.50019278      -0.24238046      -0.20709830
O        1.17627571      -1.15262631      -1.08962758
N        2.66007567       0.44551298      -0.38904295
H       -2.85355492       0.43105162       0.42841816
H       -2.43125600       0.68006655      -1.26227500
H       -2.32290409      -0.92718950      -0.54369925
H       -0.11492606      -0.76565662      -1.16258586
H       -0.61700906       1.49220746       0.18303815
H       -0.40808277       0.06084848       2.21796049
H       -0.63170364      -1.37954841       1.23717769
H        3.35384842       0.00443215      -0.96717903
H        2.59672072       1.44754486      -0.40801305
16
Frame=11 idx=008624 GeodesicLength=1.2369183378376605 rxn_smarts="[C:1]([C:2]([C:3]([O:4][C:5](=[O:6])[N:7]([H:15])[H:16])([H:13])[H:14])([H:11])[H:12])([H:8])([H:9])[H:10]>>[C:1]([C@@:2]1([H:12])[C:3]([H:13])([H:14])[O:4][C@:5]1([O:6][H:11])[N:7]([H:15])[H:16])([H:8])([H:9])[H:10]"
C       -2.14804574       0.14332344      -0.35363760
C       -0.69209019       0.40667677      -0.00042889
C       -0.24558018      -0.36849821       1.21718961
O        1.18424537      -0.29073386       1.09515894
C        1.50112938      -0.24143019      -0.20797277
O        1.19584831      -1.16081088      -1.08431116
N        2.65859927       0.46176895      -0.37761894
H       -2.84206972       0.44031450       0.43958156
H       -2.43188855       0.69101728      -1.25394293
H       -2.33107020      -0.91952907      -0.53977766
H       -0.14119541      -0.75920322      -1.17021210
H       -0.60902339       1.48475367       0.18091521
H       -0.41231041       0.04540782       2.21339522
H       -0.63364012      -1.39017272       1.22891693
H        3.37868307       0.00040018      -0.90607991
H        2.56840850       1.45671553      -0.48117550
16
Frame=12 idx=008624 GeodesicLength=1.3498935594507127 rxn_smarts="[C:1]([C:2]([C:3]([O:4][C:5](=[O:6])[N:7]([H:15])[H:16])([H:13])[H:14])([H:11])[H:12])([H:8])([H:9])[H:10]>>[C:1]([C@@:2]1([H:12])[C:3]([H:13])([H:14])[O:4][C@:5]1([O:6][H:11])[N:7]([H:15])[H:16])([H:8])([H:9])[H:10]"
C       -2.14579347       0.15003780      -0.34945413
C       -0.68479805       0.39888741      -0.00619541
C       -0.24421120      -0.38124611       1.21249261
O        1.18168240      -0.29380420       1.09691740
C        1.50263478      -0.24265720      -0.20803343
O        1.21791155      -1.17225272      -1.07701861
N        2.65412003       0.48073199      -0.36701194
H       -2.82920428       0.45184511       0.45039103
H       -2.43089621       0.70305984      -1.24591760
H       -2.33982869      -0.91054033      -0.53538759
H       -0.16812557      -0.75435911      -1.17762215
H       -0.59877174       1.47656352       0.17802934
H       -0.41667175       0.02946891       2.20858478
H       -0.63624841      -1.40125464       1.22052092
H        3.39974825       0.00475675      -0.84526523
H        2.53845237       1.46076298      -0.55503000
16
Frame=13 idx=008624 GeodesicLength=1.4627653978019177 rxn_smarts="[C:1]([C:2]([C:3]([O:4][C:5](=[O:6])[N:7]([H:15])[H:16])([H:13])[H:14])([H:11])[H:12])([H:8])([H:9])[H:10]>>[C:1]([C@@:2]1([H:12])[C:3]([H:13])([H:14])[O:4][C@:5]1([O:6][H:11])[N:7]([H:15])[H:16])([H:8])([H:9])[H:10]"
C       -2.14451698       0.15638580      -0.34461732
C       -0.67848462       0.39116555      -0.01241492
C       -0.24285383      -0.39387740       1.20698635
O        1.17890600      -0.29518179       1.09781530
C        1.50368234      -0.24189901      -0.20907981
O        1.24199743      -1.18362918      -1.06877154
N        2.64941222       0.50079171      -0.35706960
H       -2.81679142       0.46242153       0.46228731
H       -2.43170480       0.71483935      -1.23685825
H       -2.34932733      -0.90184506      -0.53032771
H       -0.19669809      -0.74837116      -1.18610060
H       -0.58993570       1.46844819       0.17482117
H       -0.42127804       0.01308601       2.20311647
H       -0.63800341      -1.41252257       1.21105225
H        3.41946656       0.01162079      -0.78084617
H        2.51612966       1.45856723      -0.62999294
16
Frame=14 idx=008624 GeodesicLength=1.5758612824995966 rxn_smarts="[C:1]([C:2]([C:3]([O:4][C:5](=[O:6])[N:7]([H:15])[H:16])([H:13])[H:14])([H:11])[H:12])([H:8])([H:9])[H:10]>>[C:1]([C@@:2]1([H:12])[C:3]([H:13])([H:14])[O:4][C@:5]1([O:6][H:11])[N:7]([H:15])[H:16])([H:8])([H:9])[H:10]"
C       -2.14277637       0.16358547      -0.33966451
C       -0.67153330       0.38280348      -0.01916656
C       -0.24143400      -0.40717361       1.20111898
O        1.17617683      -0.29732964       1.09899898
C        1.50508853      -0.24253800      -0.20980383
O        1.26892964      -1.19778616      -1.05838760
N        2.64204008       0.52310210      -0.34826421
H       -2.80325346       0.47470832       0.47427928
H       -2.43168651       0.72754687      -1.22769778
H       -2.35959586      -0.89202436      -0.52461788
H       -0.22643906      -0.74331637      -1.19483739
H       -0.57954008       1.45967567       0.17078379
H       -0.42606927      -0.00392910       2.19718990
H       -0.64005472      -1.42428921       1.20106193
H        3.43574522       0.02589780      -0.71616756
H        2.49440235       1.45106673      -0.70482554
16
Frame=15 idx=008624 GeodesicLength=1.6891051390763625 rxn_smarts="[C:1]([C:2]([C:3]([O:4][C:5](=[O:6])[N:7]([H:15])[H:16])([H:13])[H:14])([H:11])[H:12])([H:8])([H:9])[H:10]>>[C:1]([C@@:2]1([H:12])[C:3]([H:13])([H:14])[O:4][C@:5]1([O:6][H:11])[N:7]([H:15])[H:16])([H:8])([H:9])[H:10]"
C       -2.14100857       0.17133185      -0.33436305
C       -0.66441875       0.37391850      -0.02656545
C       -0.23994639      -0.42094497       1.19464407
O        1.17341999      -0.29948685       1.10004283
C        1.50662544      -0.24370706      -0.21069328
O        1.29886258      -1.21406200      -1.04588647
N        2.63254048       0.54715128      -0.34073941
H       -2.78891940       0.48805396       0.48677082
H       -2.43168034       0.74086588      -1.21807844
H       -2.37074828      -0.88140109      -0.51806498
H       -0.25776580      -0.73855897      -1.20421544
H       -0.56837628       1.45037550       0.16585027
H       -0.43104811      -0.02155796       2.19062123
H       -0.64201889      -1.43650702       1.19027655
H        3.44890511       0.04638171      -0.65062591
H        2.47557721       1.43814724      -0.77897334
16
Frame=16 idx=008624 GeodesicLength=1.8025528479277604 rxn_smarts="[C:1]([C:2]([C:3]([O:4][C:5](=[O:6])[N:7]([H:15])[H:16])([H:13])[H:14])([H:11])[H:12])([H:8])([H:9])[H:10]>>[C:1]([C@@:2]1([H:12])[C:3]([H:13])([H:14])[O:4][C@:5]1([O:6][H:11])[N:7]([H:15])[H:16])([H:8])([H:9])[H:10]"
C       -2.13913330       0.17974942      -0.32867878
C       -0.65705664       0.36439402      -0.03471598
C       -0.23837371      -0.43529920       1.18748806
O        1.17063733      -0.30171791       1.10096064
C        1.50835418      -0.24567763      -0.21173276
O        1.33222954      -1.23269712      -1.03086745
N        2.62060912       0.57285448      -0.33473713
H       -2.77357355       0.50269083       0.49980736
H       -2.43157842       0.75494099      -1.20795882
H       -2.38286939      -0.86978902      -0.51054942
H       -0.29087668      -0.73413401      -1.21431721
H       -0.55622373       1.44042631       0.15985926
H       -0.43623935      -0.03992432       2.18332902
H       -0.64390528      -1.44926952       1.17858064
H        3.45859570       0.07346783      -0.58453306
H        2.45940417       1.41998483      -0.85193436
