14
Frame=0 idx=006292 GeodesicLength=0.0 rxn_smarts="[C:1]([C@@:2]1([H:10])[C:3]([H:11])([H:12])[O:4][C:5]([H:13])([H:14])[O:6]1)([H:7])([H:8])[H:9]>>[C:1]([C@@:2]1([H:10])[C-:3]([H:12])[O+:4]=[C:5]([H:14])[O:6]1)([H:7])([H:8])[H:9].[H:11][H:13]"
C       -1.81814223       0.15525213       0.29905468
C       -0.35201494      -0.11447404       0.58487418
C        0.40015393      -1.04318896      -0.35027711
O        0.94303706      -0.18551510      -1.30067537
C        1.20411003       0.90741404      -0.68115910
O        0.41353047       1.12408308       0.36206210
H       -2.40194729      -0.74206715       0.51535714
H       -2.19027514       0.96743750       0.92690888
H       -1.96883471       0.41972529      -0.74908740
H       -0.21584208      -0.38550409       1.63484026
H        1.95260048      -0.81416542       0.40630191
H       -0.09027624      -1.89377841      -0.80751699
H        2.44233461      -0.12938701       0.34129813
H        1.68156602       1.73416810      -1.18198131
14
Frame=1 idx=006292 GeodesicLength=0.07475877860019603 rxn_smarts="[C:1]([C@@:2]1([H:10])[C:3]([H:11])([H:12])[O:4][C:5]([H:13])([H:14])[O:6]1)([H:7])([H:8])[H:9]>>[C:1]([C@@:2]1([H:10])[C-:3]([H:12])[O+:4]=[C:5]([H:14])[O:6]1)([H:7])([H:8])[H:9].[H:11][H:13]"
C       -1.81942801       0.15113036       0.29980788
C       -0.35166355      -0.10963700       0.58283972
C        0.40318905      -1.04326398      -0.34702031
O        0.94271661      -0.18158206      -1.30187005
C        1.21665351       0.90725208      -0.67359402
O        0.40730225       1.13098777       0.35506948
H       -2.39792448      -0.74815778       0.52203205
H       -2.19496702       0.96424387       0.92432276
H       -1.97301922       0.40913696      -0.74954841
H       -0.21139171      -0.37390538       1.63418295
H        1.94882799      -0.83270270       0.40556321
H       -0.10029336      -1.88271935      -0.81160105
H        2.44100287      -0.12574332       0.33820052
H        1.68899506       1.73496052      -1.17838473
14
Frame=2 idx=006292 GeodesicLength=0.1492375782004041 rxn_smarts="[C:1]([C@@:2]1([H:10])[C:3]([H:11])([H:12])[O:4][C:5]([H:13])([H:14])[O:6]1)([H:7])([H:8])[H:9]>>[C:1]([C@@:2]1([H:10])[C-:3]([H:12])[O+:4]=[C:5]([H:14])[O:6]1)([H:7])([H:8])[H:9].[H:11][H:13]"
C       -1.82074733       0.14699268       0.30065162
C       -0.35135058      -0.10476446       0.58066767
C        0.40605592      -1.04331649      -0.34395268
O        0.94264972      -0.17763015      -1.30303821
C        1.22893910       0.90708761      -0.66603015
O        0.40097027       1.13788348       0.34765693
H       -2.39385027      -0.75421737       0.52890321
H       -2.19963453       0.96101115       0.92185595
H       -1.97737435       0.39848606      -0.74986032
H       -0.20687686      -0.36217481       1.63333630
H        1.94471760      -0.85152701       0.40475783
H       -0.11004703      -1.87158346      -0.81571378
H        2.43981878      -0.12180603       0.33529808
H        1.69672956       1.73555879      -1.17453245
14
Frame=3 idx=006292 GeodesicLength=0.22354345761052885 rxn_smarts="[C:1]([C@@:2]1([H:10])[C:3]([H:11])([H:12])[O:4][C:5]([H:13])([H:14])[O:6]1)([H:7])([H:8])[H:9]>>[C:1]([C@@:2]1([H:10])[C-:3]([H:12])[O+:4]=[C:5]([H:14])[O:6]1)([H:7])([H:8])[H:9].[H:11][H:13]"
C       -1.82209184       0.14284554       0.30158253
C       -0.35107380      -0.09986300       0.57836342
C        0.40875945      -1.04335609      -0.34106280
O        0.94285559      -0.17368051      -1.30417298
C        1.24095950       0.90692212      -0.65846238
O        0.39454844       1.14475316       0.33983979
H       -2.38972245      -0.76023520       0.53595448
H       -2.20426826       0.95774529       0.91950771
H       -1.98188088       0.38778597      -0.75002460
H       -0.20230409      -0.35032265       1.63230310
H        1.94024937      -0.87068781       0.40389803
H       -0.11955569      -1.86037407      -0.81986707
H        2.43881191      -0.11751683       0.33258845
H        1.70471276       1.73598408      -1.17044768
14
Frame=4 idx=006292 GeodesicLength=0.2977803136336069 rxn_smarts="[C:1]([C@@:2]1([H:10])[C:3]([H:11])([H:12])[O:4][C:5]([H:13])([H:14])[O:6]1)([H:7])([H:8])[H:9]>>[C:1]([C@@:2]1([H:10])[C-:3]([H:12])[O+:4]=[C:5]([H:14])[O:6]1)([H:7])([H:8])[H:9].[H:11][H:13]"
C       -1.82345335       0.13869565       0.30259724
C       -0.35083076      -0.09493995       0.57593170
C        0.41130272      -1.04339245      -0.33834163
O        0.94335439      -0.16975500      -1.30526684
C        1.25270834       0.90675727      -0.65088705
O        0.38805098       1.15157952       0.33163325
H       -2.38553912      -0.76620002       0.54317106
H       -2.20885817       0.95445240       0.91727798
H       -1.98652050       0.37705147      -0.75004260
H       -0.19767949      -0.33836072       1.63108502
H        1.93540031      -0.89024019       0.40299663
H       -0.12883572      -1.84909427      -0.82407226
H        2.43801328      -0.11280999       0.33007107
H        1.71288709       1.73625629      -1.16615358
14
Frame=5 idx=006292 GeodesicLength=0.37201991666040374 rxn_smarts="[C:1]([C@@:2]1([H:10])[C:3]([H:11])([H:12])[O:4][C:5]([H:13])([H:14])[O:6]1)([H:7])([H:8])[H:9]>>[C:1]([C@@:2]1([H:10])[C-:3]([H:12])[O+:4]=[C:5]([H:14])[O:6]1)([H:7])([H:8])[H:9].[H:11][H:13]"
C       -1.82482366       0.13455024       0.30369240
C       -0.35061895      -0.09000281       0.57337734
C        0.41368848      -1.04343527      -0.33577988
O        0.94416625      -0.16587567      -1.30631294
C        1.26417969       0.90659513      -0.64330031
O        0.38149241       1.15834485       0.32305466
H       -2.38130008      -0.77210098       0.55053689
H       -2.21339378       0.95113961       0.91516694
H       -1.99127483       0.36629790      -0.74991622
H       -0.19300903      -0.32630272       1.62968509
H        1.93014739      -0.91024190       0.40206482
H       -0.13790189      -1.83774709      -0.82833900
H        2.43745352      -0.10761821       0.32774693
H        1.72119448       1.73639691      -1.16167670
14
Frame=6 idx=006292 GeodesicLength=0.4463746492282844 rxn_smarts="[C:1]([C@@:2]1([H:10])[C:3]([H:11])([H:12])[O:4][C:5]([H:13])([H:14])[O:6]1)([H:7])([H:8])[H:9]>>[C:1]([C@@:2]1([H:10])[C-:3]([H:12])[O+:4]=[C:5]([H:14])[O:6]1)([H:7])([H:8])[H:9].[H:11][H:13]"
C       -1.82619429       0.13041605       0.30486486
C       -0.35043475      -0.08505816       0.57070518
C        0.41591969      -1.04349319      -0.33336912
O        0.94531413      -0.16206563      -1.30730348
C        1.27536826       0.90644049      -0.63570144
O        0.37488619       1.16503401       0.31411979
H       -2.37700293      -0.77792828       0.55803861
H       -2.21786535       0.94781231       0.91317486
H       -1.99612703       0.35553987      -0.74964678
H       -0.18829686      -0.31416049       1.62810460
H        1.92445538      -0.93076850       0.40111404
H       -0.14676801      -1.82633200      -0.83267820
H        2.43716895      -0.10186226       0.32561980
H        1.72957661       1.73642575      -1.15704272
14
Frame=7 idx=006292 GeodesicLength=0.5208548174032649 rxn_smarts="[C:1]([C@@:2]1([H:10])[C:3]([H:11])([H:12])[O:4][C:5]([H:13])([H:14])[O:6]1)([H:7])([H:8])[H:9]>>[C:1]([C@@:2]1([H:10])[C-:3]([H:12])[O+:4]=[C:5]([H:14])[O:6]1)([H:7])([H:8])[H:9].[H:11][H:13]"
C       -1.82755749       0.12629925       0.30611200
C       -0.35027484      -0.08011332       0.56791999
C        0.41799894      -1.04357489      -0.33110097
O        0.94681822      -0.15834681      -1.30823155
C        1.28626892       0.90629750      -0.62808937
O        0.36824545       1.17163108       0.30484396
H       -2.37264742      -0.78367234       0.56566247
H       -2.22226258       0.94447707       0.91130245
H       -2.00106161       0.34479104      -0.74923565
H       -0.18354637      -0.30194729       1.62634630
H        1.91829598      -0.95188550       0.40015179
H       -0.15544711      -1.81484857      -0.83710025
H        2.43718943      -0.09546948       0.32369737
H        1.73798047       1.73636226      -1.15227855
14
Frame=8 idx=006292 GeodesicLength=0.5955267428395086 rxn_smarts="[C:1]([C@@:2]1([H:10])[C:3]([H:11])([H:12])[O:4][C:5]([H:13])([H:14])[O:6]1)([H:7])([H:8])[H:9]>>[C:1]([C@@:2]1([H:10])[C-:3]([H:12])[O+:4]=[C:5]([H:14])[O:6]1)([H:7])([H:8])[H:9].[H:11][H:13]"
C       -1.82890531       0.12220588       0.30743194
C       -0.35013478      -0.07517412       0.56502543
C        0.41992730      -1.04368763      -0.32896985
O        0.94870368      -0.15474311      -1.30908967
C        1.29687934       0.90617257      -0.62046507
O        0.36158139       1.17812334       0.29524220
H       -2.36823137      -0.78932464       0.57339647
H       -2.22657585       0.94113911       0.90955148
H       -2.00606453       0.33406519      -0.74868324
H       -0.17875915      -0.28967564       1.62441076
H        1.91162528      -0.97368117       0.39918726
H       -0.16394997      -1.80329513      -0.84161493
H        2.43755321      -0.08835142       0.32198972
H        1.74635077       1.73622677      -1.14741250
14
Frame=9 idx=006292 GeodesicLength=0.6703966796134023 rxn_smarts="[C:1]([C@@:2]1([H:10])[C:3]([H:11])([H:12])[O:4][C:5]([H:13])([H:14])[O:6]1)([H:7])([H:8])[H:9]>>[C:1]([C@@:2]1([H:10])[C-:3]([H:12])[O+:4]=[C:5]([H:14])[O:6]1)([H:7])([H:8])[H:9].[H:11][H:13]"
C       -1.83023045       0.11814165       0.30882360
C       -0.35001031      -0.07024784       0.56202478
C        0.42170391      -1.04383982      -0.32697178
O        0.95099561      -0.15127893      -1.30986940
C        1.30720023       0.90607005      -0.61282868
O        0.35490461       1.18449626       0.28532723
H       -2.36375536      -0.79487713       0.58122942
H       -2.23079446       0.93780447       0.90792546
H       -2.01112424       0.32337637      -0.74798947
H       -0.17393518      -0.27735973       1.62229905
H        1.90440287      -0.99624103       0.39822463
H       -0.17228890      -1.79166895      -0.84623439
H        2.43829545      -0.08041360       0.32051603
H        1.75463622       1.73603824      -1.14247649
14
Frame=10 idx=006292 GeodesicLength=0.7454804821473269 rxn_smarts="[C:1]([C@@:2]1([H:10])[C:3]([H:11])([H:12])[O:4][C:5]([H:13])([H:14])[O:6]1)([H:7])([H:8])[H:9]>>[C:1]([C@@:2]1([H:10])[C-:3]([H:12])[O+:4]=[C:5]([H:14])[O:6]1)([H:7])([H:8])[H:9].[H:11][H:13]"
C       -1.83152522       0.11411098       0.31028581
C       -0.34989621      -0.06533961       0.55892130
C        0.42333046      -1.04403741      -0.32510162
O        0.95372356      -0.14797856      -1.31056095
C        1.31722747       0.90599973      -0.60518487
O        0.34822455       1.19073916       0.27510901
H       -2.35921508      -0.80032403       0.58915448
H       -2.23490922       0.93447662       0.90642721
H       -2.01623016       0.31273513      -0.74715356
H       -0.16907200      -0.26500950       1.62001196
H        1.89657084      -1.01966857       0.39727018
H       -0.18047371      -1.77996258      -0.85097316
H        2.43945437      -0.07155482       0.31929228
H        1.76279036       1.73581347      -1.13749807
14
Frame=11 idx=006292 GeodesicLength=0.8207630496492438 rxn_smarts="[C:1]([C@@:2]1([H:10])[C:3]([H:11])([H:12])[O:4][C:5]([H:13])([H:14])[O:6]1)([H:7])([H:8])[H:9]>>[C:1]([C@@:2]1([H:10])[C-:3]([H:12])[O+:4]=[C:5]([H:14])[O:6]1)([H:7])([H:8])[H:9].[H:11][H:13]"
C       -1.83278217       0.11011854       0.31181930
C       -0.34978706      -0.06045502       0.55571709
C        0.42480490      -1.04428721      -0.32335768
O        0.95692080      -0.14486838      -1.31115284
C        1.32696202       0.90596942      -0.59753683
O        0.34154924       1.19684054       0.26459612
H       -2.35460904      -0.80565965       0.59716390
H       -2.23890982       0.93115957       0.90506220
H       -2.02137445       0.30215312      -0.74617362
H       -0.16416560      -0.25263697       1.61754967
H        1.88807099      -1.04407372       0.39632547
H       -0.18851469      -1.76816857      -0.85584619
H        2.44106814      -0.06166136       0.31834411
H        1.77076675       1.73556968      -1.13251071
14
Frame=12 idx=006292 GeodesicLength=0.8961788472794878 rxn_smarts="[C:1]([C@@:2]1([H:10])[C:3]([H:11])([H:12])[O:4][C:5]([H:13])([H:14])[O:6]1)([H:7])([H:8])[H:9]>>[C:1]([C@@:2]1([H:10])[C-:3]([H:12])[O+:4]=[C:5]([H:14])[O:6]1)([H:7])([H:8])[H:9].[H:11][H:13]"
C       -1.83399450       0.10616623       0.31342578
C       -0.34967647      -0.05559771       0.55241355
C        0.42612710      -1.04459343      -0.32173850
O        0.96062055      -0.14197244      -1.31163374
C        1.33640456       0.90599055      -0.58988991
O        0.33488273       1.20279317       0.25379004
H       -2.34993161      -0.81088086       0.60525561
H       -2.24278732       0.92785502       0.90383572
H       -2.02655243       0.29163668      -0.74504608
H       -0.15920837      -0.24024831       1.61491063
H        1.87883433      -1.06957045       0.39538988
H       -0.19641943      -1.75627636      -0.86087051
H        2.44317213      -0.05062496       0.31770029
H        1.77852872       1.73532288      -1.12754276
14
Frame=13 idx=006292 GeodesicLength=0.9716454953377798 rxn_smarts="[C:1]([C@@:2]1([H:10])[C:3]([H:11])([H:12])[O:4][C:5]([H:13])([H:14])[O:6]1)([H:7])([H:8])[H:9]>>[C:1]([C@@:2]1([H:10])[C-:3]([H:12])[O+:4]=[C:5]([H:14])[O:6]1)([H:7])([H:8])[H:9].[H:11][H:13]"
C       -1.83515487       0.10225649       0.31510770
C       -0.34955783      -0.05077157       0.54901134
C        0.42729532      -1.04496099      -0.32024377
O        0.96486031      -0.13931621      -1.31199129
C        1.34555773       0.90607393      -0.58224851
O        0.32822899       1.20858863       0.24269065
H       -2.34517879      -0.81598636       0.61342872
H       -2.24653188       0.92456555       0.90275461
H       -2.03176115       0.28119138      -0.74376690
H       -0.15419144      -0.22785023       1.61209426
H        1.86878769      -1.09628050       0.39445890
H       -0.20419623      -1.74427326      -0.86606530
H        2.44580127      -0.03832462       0.31739539
H        1.78604087       1.73508775      -1.12262580
14
Frame=14 idx=006292 GeodesicLength=1.0470529904629038 rxn_smarts="[C:1]([C@@:2]1([H:10])[C:3]([H:11])([H:12])[O:4][C:5]([H:13])([H:14])[O:6]1)([H:7])([H:8])[H:9]>>[C:1]([C@@:2]1([H:10])[C-:3]([H:12])[O+:4]=[C:5]([H:14])[O:6]1)([H:7])([H:8])[H:9].[H:11][H:13]"
C       -1.83625657       0.09838908       0.31686902
C       -0.34942389      -0.04597868       0.54550989
C        0.42830767      -1.04539338      -0.31887513
O        0.96968053      -0.13692657      -1.31221046
C        1.35442746       0.90623184      -0.57461745
O        0.32158733       1.21422173       0.23129159
H       -2.34034210      -0.82097536       0.62168712
H       -2.25013487       0.92129051       0.90182689
H       -2.03700040       0.27081990      -0.74232990
H       -0.14910277      -0.21544597       1.60909675
H        1.85784611      -1.12433087       0.39352728
H       -0.21185142      -1.73214202      -0.87145321
H        2.44899037      -0.02463886       0.31746823
H        1.79327256       1.73487865      -1.11779061
14
Frame=15 idx=006292 GeodesicLength=1.1222724442415515 rxn_smarts="[C:1]([C@@:2]1([H:10])[C:3]([H:11])([H:12])[O:4][C:5]([H:13])([H:14])[O:6]1)([H:7])([H:8])[H:9]>>[C:1]([C@@:2]1([H:10])[C-:3]([H:12])[O+:4]=[C:5]([H:14])[O:6]1)([H:7])([H:8])[H:9].[H:11][H:13]"
C       -1.83729218       0.09456342       0.31871498
C       -0.34926655      -0.04122088       0.54190832
C        0.42916274      -1.04589411      -0.31763368
O        0.97512580      -0.13482961      -1.31227511
C        1.36301826       0.90647842      -0.56700183
O        0.31495659       1.21968688       0.21958293
H       -2.33541336      -0.82584914       0.63003598
H       -2.25358652       0.91803004       0.90106093
H       -2.04227130       0.26052199      -0.74072793
H       -0.14392855      -0.20303665       1.60591545
H        1.84591746      -1.15385483       0.39258347
H       -0.21939015      -1.71986413      -0.87705760
H        2.45277073      -0.00944043       0.31796206
H        1.80019703       1.73470902      -1.11306797
14
Frame=16 idx=006292 GeodesicLength=1.1971708429495083 rxn_smarts="[C:1]([C@@:2]1([H:10])[C:3]([H:11])([H:12])[O:4][C:5]([H:13])([H:14])[O:6]1)([H:7])([H:8])[H:9]>>[C:1]([C@@:2]1([H:10])[C-:3]([H:12])[O+:4]=[C:5]([H:14])[O:6]1)([H:7])([H:8])[H:9].[H:11][H:13]"
C       -1.83825411       0.09077719       0.32065228
C       -0.34907703      -0.03649884       0.53820410
C        0.42985871      -1.04646527      -0.31652312
O        0.98124516      -0.13305201      -1.31216605
C        1.37133747       0.90682963      -0.55940619
O        0.30833226       1.22497998       0.20754703
H       -2.33038100      -0.83061053       0.63848565
H       -2.25687713       0.91478208       0.90046678
H       -2.04757838       0.25029362      -0.73895144
H       -0.13865136      -0.19061985       1.60254487
H        1.83289450      -1.18499312       0.39161350
H       -0.22681542      -1.70741805      -0.88290498
H        2.45717349       0.00740320       0.31892570
H        1.80679283       1.73459196      -1.10848813
