16
Frame=0 idx=007635 GeodesicLength=0.0 rxn_smarts="[C:1]([C@:2]12[C:3]([H:11])([H:12])[C@@:4]1([H:13])[C@@:5]1([H:14])[N:6]([H:15])[C@@:7]21[H:16])([H:8])([H:9])[H:10]>>[C:1]([C@:2]1([C@@:7]2([H:16])[C:5]([H:13])([H:14])[N:6]2[H:15])[C:3]([H:11])([H:12])[C:4]1)([H:8])([H:9])[H:10]"
C        1.64578392      -0.72114259       0.88448728
C        0.49126931      -0.10056122       0.15298412
C        0.66785841       0.79233586      -1.03710259
C        0.15043938       1.36860537       0.23138700
C       -1.77513293       0.39900029       0.18153635
N       -1.80903252      -0.53933812      -0.84338333
C       -0.86969922      -0.75606705       0.23404643
H        1.37944900      -0.92330219       1.92499775
H        2.50437153      -0.04875539       0.89043313
H        1.95008141      -1.66296063       0.41991864
H        1.69226347       1.08092693      -1.24805011
H        0.07222398       0.69860466      -1.93976848
H       -0.99090785       1.63260916       0.31722178
H       -2.62372404       0.72426716       0.76856869
H       -1.46377020      -0.29486475      -1.76524663
H       -1.02147370      -1.64935750       0.82796994
16
Frame=1 idx=007635 GeodesicLength=0.06319903458742776 rxn_smarts="[C:1]([C@:2]12[C:3]([H:11])([H:12])[C@@:4]1([H:13])[C@@:5]1([H:14])[N:6]([H:15])[C@@:7]21[H:16])([H:8])([H:9])[H:10]>>[C:1]([C@:2]1([C@@:7]2([H:16])[C:5]([H:13])([H:14])[N:6]2[H:15])[C:3]([H:11])([H:12])[C:4]1)([H:8])([H:9])[H:10]"
C        1.64647327      -0.72504583       0.88113365
C        0.49306224      -0.10295270       0.14914909
C        0.67285899       0.79395860      -1.03652132
C        0.14933256       1.36375199       0.23254408
C       -1.77411081       0.40337047       0.17899638
N       -1.81086180      -0.54522952      -0.84141749
C       -0.87068917      -0.75407365       0.23671548
H        1.38072116      -0.92662690       1.92187370
H        2.50689092      -0.05492390       0.88690926
H        1.94818381      -1.66760773       0.41645349
H        1.69708348       1.08632316      -1.24302624
H        0.07723876       0.71049731      -1.94012398
H       -1.00590776       1.64883586       0.30874763
H       -2.62661620       0.71358030       0.76871680
H       -1.45989892      -0.30419810      -1.76184063
H       -1.02376053      -1.63965936       0.84169008
16
Frame=2 idx=007635 GeodesicLength=0.1263877565988246 rxn_smarts="[C:1]([C@:2]12[C:3]([H:11])([H:12])[C@@:4]1([H:13])[C@@:5]1([H:14])[N:6]([H:15])[C@@:7]21[H:16])([H:8])([H:9])[H:10]>>[C:1]([C@:2]1([C@@:7]2([H:16])[C:5]([H:13])([H:14])[N:6]2[H:15])[C:3]([H:11])([H:12])[C:4]1)([H:8])([H:9])[H:10]"
C        1.64716482      -0.72897267       0.87776981
C        0.49485851      -0.10539590       0.14528150
C        0.67786122       0.79557946      -1.03590314
C        0.14817608       1.35884619       0.23368241
C       -1.77307237       0.40769404       0.17653893
N       -1.81272127      -0.55113372      -0.83933190
C       -0.87165437      -0.75211746       0.23939807
H        1.38198874      -0.92998539       1.91873508
H        2.50939175      -0.06110205       0.88339097
H        1.94630852      -1.67226437       0.41297803
H        1.70188375       1.09174250      -1.23787999
H        0.08233113       0.72242743      -1.94038119
H       -1.02119508       1.66497314       0.29996836
H       -2.62926460       0.70308539       0.76876307
H       -1.45614302      -0.31346163      -1.75828055
H       -1.02591381      -1.62991495       0.85527054
16
Frame=3 idx=007635 GeodesicLength=0.1888565488218213 rxn_smarts="[C:1]([C@:2]12[C:3]([H:11])([H:12])[C@@:4]1([H:13])[C@@:5]1([H:14])[N:6]([H:15])[C@@:7]21[H:16])([H:8])([H:9])[H:10]>>[C:1]([C@:2]1([C@@:7]2([H:16])[C:5]([H:13])([H:14])[N:6]2[H:15])[C:3]([H:11])([H:12])[C:4]1)([H:8])([H:9])[H:10]"
C        1.64784666      -0.73289636       0.87440282
C        0.49664407      -0.10784725       0.14139973
C        0.68285873       0.79720325      -1.03527280
C        0.14699741       1.35392910       0.23479802
C       -1.77204620       0.41198978       0.17410572
N       -1.81458746      -0.55704456      -0.83719887
C       -0.87261335      -0.75016672       0.24208756
H        1.38324205      -0.93333484       1.91559356
H        2.51188024      -0.06727420       0.87986951
H        1.94442897      -1.67691732       0.40950769
H        1.70666102       1.09716264      -1.23267574
H        0.08743873       0.73433994      -1.94061099
H       -1.03649683       1.68100885       0.29113706
H       -2.63182898       0.69267025       0.76875516
H       -1.45243091      -0.32268809      -1.75465348
H       -1.02799417      -1.62013447       0.86875506
16
Frame=4 idx=007635 GeodesicLength=0.2518818608461735 rxn_smarts="[C:1]([C@:2]12[C:3]([H:11])([H:12])[C@@:4]1([H:13])[C@@:5]1([H:14])[N:6]([H:15])[C@@:7]21[H:16])([H:8])([H:9])[H:10]>>[C:1]([C@:2]1([C@@:7]2([H:16])[C:5]([H:13])([H:14])[N:6]2[H:15])[C:3]([H:11])([H:12])[C:4]1)([H:8])([H:9])[H:10]"
C        1.64853858      -0.73686047       0.87102668
C        0.49844452      -0.11038172       0.13747399
C        0.68786791       0.79880984      -1.03458576
C        0.14577905       1.34893386       0.23588877
C       -1.77097112       0.41621449       0.17181737
N       -1.81650703      -0.56296588      -0.83488050
C       -0.87352142      -0.74828184       0.24478612
H        1.38449253      -0.93675068       1.91243297
H        2.51434069      -0.07346396       0.87637603
H        1.94259985      -1.68158053       0.40601980
H        1.71142727       1.10258302      -1.22730590
H        0.09269160       0.74634287      -1.94067604
H       -1.05238447       1.69694737       0.28177824
H       -2.63400504       0.68257276       0.76863065
H       -1.44892925      -0.33179332      -1.75080149
H       -1.02986367      -1.61032581       0.88201908
16
Frame=5 idx=007635 GeodesicLength=0.31493139965641725 rxn_smarts="[C:1]([C@:2]12[C:3]([H:11])([H:12])[C@@:4]1([H:13])[C@@:5]1([H:14])[N:6]([H:15])[C@@:7]21[H:16])([H:8])([H:9])[H:10]>>[C:1]([C@:2]1([C@@:7]2([H:16])[C:5]([H:13])([H:14])[N:6]2[H:15])[C:3]([H:11])([H:12])[C:4]1)([H:8])([H:9])[H:10]"
C        1.64923334      -0.74084810       0.86764621
C        0.50025067      -0.11295961       0.13352091
C        0.69288777       0.80041068      -1.03386461
C        0.14455984       1.34389657       0.23695892
C       -1.76987249       0.42039806       0.16961429
N       -1.81845187      -0.56889156      -0.83244264
C       -0.87439804      -0.74643043       0.24749215
H        1.38573526      -0.94020097       1.90926281
H        2.51678829      -0.07966706       0.87289828
H        1.94079532      -1.68625350       0.40252697
H        1.71618590       1.10798912      -1.22182986
H        0.09802450       0.75840184      -1.94063988
H       -1.06865583       1.71278348       0.27208973
H       -2.63593946       0.67267660       0.76844965
H       -1.44555307      -0.34081430      -1.74680776
H       -1.03159012      -1.60049083       0.89512485
16
Frame=6 idx=007635 GeodesicLength=0.37798028865689126 rxn_smarts="[C:1]([C@:2]12[C:3]([H:11])([H:12])[C@@:4]1([H:13])[C@@:5]1([H:14])[N:6]([H:15])[C@@:7]21[H:16])([H:8])([H:9])[H:10]>>[C:1]([C@:2]1([C@@:7]2([H:16])[C:5]([H:13])([H:14])[N:6]2[H:15])[C:3]([H:11])([H:12])[C:4]1)([H:8])([H:9])[H:10]"
C        1.64993249      -0.74486171       0.86425855
C        0.50206353      -0.11557781       0.12954421
C        0.69792036       0.80200686      -1.03310424
C        0.14334843       1.33882045       0.23801528
C       -1.76874710       0.42454273       0.16749595
N       -1.82042066      -0.57482100      -0.82988510
C       -0.87524091      -0.74460901       0.25021010
H        1.38697629      -0.94369001       1.90608084
H        2.51922691      -0.08589015       0.86943247
H        1.93901273      -1.69093782       0.39902236
H        1.72093979       1.11337624      -1.21624623
H        0.10344469       0.77052591      -1.94049561
H       -1.08533689       1.72852226       0.26205042
H       -2.63764234       0.66298281       0.76821752
H       -1.44230332      -0.34975726      -1.74267528
H       -1.03317399      -1.59063249       0.90807875
16
Frame=7 idx=007635 GeodesicLength=0.4410332302763378 rxn_smarts="[C:1]([C@:2]12[C:3]([H:11])([H:12])[C@@:4]1([H:13])[C@@:5]1([H:14])[N:6]([H:15])[C@@:7]21[H:16])([H:8])([H:9])[H:10]>>[C:1]([C@:2]1([C@@:7]2([H:16])[C:5]([H:13])([H:14])[N:6]2[H:15])[C:3]([H:11])([H:12])[C:4]1)([H:8])([H:9])[H:10]"
C        1.65063783      -0.74890661       0.86086045
C        0.50388453      -0.11823375       0.12554757
C        0.70296818       0.80360237      -1.03229850
C        0.14215611       1.33370791       0.23906765
C       -1.76759155       0.42865204       0.16546189
N       -1.82240994      -0.58075492      -0.82720388
C       -0.87604735      -0.74281365       0.25294425
H        1.38822102      -0.94722594       1.90288430
H        2.52166167      -0.09214328       0.86597439
H        1.93724844      -1.69563827       0.39549822
H        1.72569207       1.11874285      -1.21055024
H        0.10895555       0.78272708      -1.94023502
H       -1.10246797       1.74416460       0.25162178
H       -2.63911751       0.65349255       0.76794260
H       -1.43917719      -0.35862686      -1.73840437
H       -1.03461389      -1.58074612       0.92088890
16
Frame=8 idx=007635 GeodesicLength=0.5040803924019388 rxn_smarts="[C:1]([C@:2]12[C:3]([H:11])([H:12])[C@@:4]1([H:13])[C@@:5]1([H:14])[N:6]([H:15])[C@@:7]21[H:16])([H:8])([H:9])[H:10]>>[C:1]([C@:2]1([C@@:7]2([H:16])[C:5]([H:13])([H:14])[N:6]2[H:15])[C:3]([H:11])([H:12])[C:4]1)([H:8])([H:9])[H:10]"
C        1.65135160      -0.75298680       0.85744964
C        0.50571504      -0.12092487       0.12153425
C        0.70803401       0.80519940      -1.03144317
C        0.14099302       1.32856079       0.24012217
C       -1.76640249       0.43273081       0.16351120
N       -1.82441686      -0.58669159      -0.82439902
C       -0.87681561      -0.74104172       0.25569810
H        1.38947451      -0.95081483       1.89967123
H        2.52409764      -0.09843371       0.86252106
H        1.93550057      -1.70035870       0.39194887
H        1.73044645       1.12408572      -1.20474108
H        0.11455957       0.79501615      -1.93985181
H       -1.12008492       1.75970968       0.24077899
H       -2.64037077       0.64420885       0.76763389
H       -1.43617084      -0.36742782      -1.73399811
H       -1.03591092      -1.57083134       0.93356379
16
Frame=9 idx=007635 GeodesicLength=0.5671507380098239 rxn_smarts="[C:1]([C@:2]12[C:3]([H:11])([H:12])[C@@:4]1([H:13])[C@@:5]1([H:14])[N:6]([H:15])[C@@:7]21[H:16])([H:8])([H:9])[H:10]>>[C:1]([C@:2]1([C@@:7]2([H:16])[C:5]([H:13])([H:14])[N:6]2[H:15])[C:3]([H:11])([H:12])[C:4]1)([H:8])([H:9])[H:10]"
C        1.65207693      -0.75710928       0.85402162
C        0.50755786      -0.12364877       0.11750790
C        0.71312191       0.80680310      -1.03053073
C        0.13987237       1.32338121       0.24119169
C       -1.76517577       0.43678509       0.16164239
N       -1.82643713      -0.59263004      -0.82146671
C       -0.87754330      -0.73928728       0.25847786
H        1.39074455      -0.95446678       1.89643786
H        2.52654208      -0.10477389       0.85906695
H        1.93376565      -1.70510549       0.38836444
H        1.73520806       1.12940439      -1.19881390
H        0.12026058       0.80740586      -1.93933769
H       -1.13824046       1.77516089       0.22947743
H       -2.64140705       0.63513153       0.76730018
H       -1.43327901      -0.37616598      -1.72945619
H       -1.03706728      -1.56088456       0.94611689
16
Frame=10 idx=007635 GeodesicLength=0.6302534268452296 rxn_smarts="[C:1]([C@:2]12[C:3]([H:11])([H:12])[C@@:4]1([H:13])[C@@:5]1([H:14])[N:6]([H:15])[C@@:7]21[H:16])([H:8])([H:9])[H:10]>>[C:1]([C@:2]1([C@@:7]2([H:16])[C:5]([H:13])([H:14])[N:6]2[H:15])[C:3]([H:11])([H:12])[C:4]1)([H:8])([H:9])[H:10]"
C        1.65281516      -0.76128115       0.85057263
C        0.50941496      -0.12640348       0.11347220
C        0.71823512       0.80841903      -1.02955351
C        0.13880759       1.31817104       0.24228820
C       -1.76390573       0.44082049       0.15985880
N       -1.82846762      -0.59856725      -0.81839756
C       -0.87822741      -0.73754526       0.26129007
H        1.39203603      -0.95819273       1.89318041
H        2.52899956      -0.11117635       0.85560665
H        1.93203838      -1.70988484       0.38473627
H        1.73998072       1.13469774      -1.19275920
H        0.12606344       0.81991209      -1.93867743
H       -1.15699100       1.79050226       0.21765055
H       -2.64222281       0.62626392       0.76695394
H       -1.43050017      -0.38484054      -1.72477172
H       -1.03807623      -1.55089499       0.95854969
16
Frame=11 idx=007635 GeodesicLength=0.6933789092904181 rxn_smarts="[C:1]([C@:2]12[C:3]([H:11])([H:12])[C@@:4]1([H:13])[C@@:5]1([H:14])[N:6]([H:15])[C@@:7]21[H:16])([H:8])([H:9])[H:10]>>[C:1]([C@:2]1([C@@:7]2([H:16])[C:5]([H:13])([H:14])[N:6]2[H:15])[C:3]([H:11])([H:12])[C:4]1)([H:8])([H:9])[H:10]"
C        1.65356928      -0.76550771       0.84709866
C        0.51128847      -0.12918693       0.10942969
C        0.72337701       0.81005042      -1.02850679
C        0.13780822       1.31293225       0.24342137
C       -1.76258866       0.44484412       0.15815818
N       -1.83050559      -0.60450108      -0.81519108
C       -0.87886644      -0.73581088       0.26413949
H        1.39335574      -0.96200028       1.88989555
H        2.53147621      -0.11765024       0.85213546
H        1.93031656      -1.71470165       0.38105608
H        1.74476986       1.13996481      -1.18657666
H        0.13197339       0.83254642      -1.93786338
H       -1.17637757       1.80573768       0.20527201
H       -2.64282552       0.61760795       0.76660240
H       -1.42782851      -0.39346023      -1.71994832
H       -1.03894247      -1.54086464       0.97087735
16
Frame=12 idx=007635 GeodesicLength=0.7567927990791156 rxn_smarts="[C:1]([C@:2]12[C:3]([H:11])([H:12])[C@@:4]1([H:13])[C@@:5]1([H:14])[N:6]([H:15])[C@@:7]21[H:16])([H:8])([H:9])[H:10]>>[C:1]([C@:2]1([C@@:7]2([H:16])[C:5]([H:13])([H:14])[N:6]2[H:15])[C:3]([H:11])([H:12])[C:4]1)([H:8])([H:9])[H:10]"
C        1.65434593      -0.76980347       0.84359888
C        0.51319077      -0.13200676       0.10537757
C        0.72856753       0.81170479      -1.02738203
C        0.13690814       1.30767425       0.24459231
C       -1.76120617       0.44887009       0.15654739
N       -1.83254429      -0.61040587      -0.81183968
C       -0.87945522      -0.73407804       0.26703374
H        1.39471090      -0.96589058       1.88658480
H        2.53398330      -0.12422608       0.84864302
H        1.92858550      -1.71957640       0.37733743
H        1.74959329       1.14519538      -1.18026678
H        0.13801095       0.84533411      -1.93687041
H       -1.19658333       1.82086392       0.19221627
H       -2.64317003       0.60913605       0.76631450
H       -1.42526510      -0.40199397      -1.71497991
H       -1.03967216      -1.53079742       0.98309290
16
Frame=13 idx=007635 GeodesicLength=0.8201602372749787 rxn_smarts="[C:1]([C@:2]12[C:3]([H:11])([H:12])[C@@:4]1([H:13])[C@@:5]1([H:14])[N:6]([H:15])[C@@:7]21[H:16])([H:8])([H:9])[H:10]>>[C:1]([C@:2]1([C@@:7]2([H:16])[C:5]([H:13])([H:14])[N:6]2[H:15])[C:3]([H:11])([H:12])[C:4]1)([H:8])([H:9])[H:10]"
C        1.65513779      -0.77417720       0.84005651
C        0.51511283      -0.13485039       0.10133082
C        0.73378773       0.81339464      -1.02616593
C        0.13609173       1.30238791       0.24583536
C       -1.75976605       0.45289586       0.15502163
N       -1.83458563      -0.61630298      -0.80833818
C       -0.87999140      -0.73233906       0.26997965
H        1.39611799      -0.96989204       1.88323030
H        2.53652395      -0.13089234       0.84513169
H        1.92685496      -1.72449568       0.37354580
H        1.75443696       1.15040422      -1.17381121
H        0.14417173       0.85828029      -1.93568926
H       -1.21751352       1.83585716       0.17846707
H       -2.64330510       0.60088743       0.76604019
H       -1.42280952      -0.41047916      -1.70986410
H       -1.04026444      -1.52067865       0.99522965
16
Frame=14 idx=007635 GeodesicLength=0.883896305410364 rxn_smarts="[C:1]([C@:2]12[C:3]([H:11])([H:12])[C@@:4]1([H:13])[C@@:5]1([H:14])[N:6]([H:15])[C@@:7]21[H:16])([H:8])([H:9])[H:10]>>[C:1]([C@:2]1([C@@:7]2([H:16])[C:5]([H:13])([H:14])[N:6]2[H:15])[C:3]([H:11])([H:12])[C:4]1)([H:8])([H:9])[H:10]"
C        1.65598145      -0.77865654       0.83644654
C        0.51706085      -0.13769308       0.09731579
C        0.73904503       0.81513153      -1.02478825
C        0.13540236       1.29705573       0.24723888
C       -1.75824670       0.45695155       0.15362558
N       -1.83661633      -0.62223628      -0.80458012
C       -0.88045748      -0.73057789       0.27303368
H        1.39760565      -0.97412747       1.87979880
H        2.53913174      -0.13772519       0.84156805
H        1.92512801      -1.72949565       0.36951893
H        1.75931486       1.15560761      -1.16708280
H        0.15043763       0.87150757      -1.93423315
H       -1.23951465       1.85052578       0.16370002
H       -2.64322028       0.59310227       0.76561600
H       -1.42044360      -0.41898482      -1.70450484
H       -1.04060856      -1.51038512       1.00732689
16
Frame=15 idx=007635 GeodesicLength=0.9469996312133832 rxn_smarts="[C:1]([C@:2]12[C:3]([H:11])([H:12])[C@@:4]1([H:13])[C@@:5]1([H:14])[N:6]([H:15])[C@@:7]21[H:16])([H:8])([H:9])[H:10]>>[C:1]([C@:2]1([C@@:7]2([H:16])[C:5]([H:13])([H:14])[N:6]2[H:15])[C:3]([H:11])([H:12])[C:4]1)([H:8])([H:9])[H:10]"
C        1.65682972      -0.78318745       0.83280978
C        0.51902609      -0.14055564       0.09329550
C        0.74433871       0.81690375      -1.02335430
C        0.13478254       1.29173050       0.24867354
C       -1.75668490       0.46101797       0.15226627
N       -1.83863902      -0.62812705      -0.80074383
C       -0.88089158      -0.72879796       0.27612521
H        1.39912554      -0.97839924       1.87634564
H        2.54175972      -0.14463394       0.83797419
H        1.92336933      -1.73453452       0.36548961
H        1.76421355       1.16079112      -1.16028236
H        0.15681124       0.88480959      -1.93265537
H       -1.26202084       1.86513957       0.14845904
H       -2.64298355       0.58535762       0.76531441
H       -1.41813922      -0.42742503      -1.69907129
H       -1.04089735      -1.50008928       1.01935396
16
Frame=16 idx=007635 GeodesicLength=1.0100998526320306 rxn_smarts="[C:1]([C@:2]12[C:3]([H:11])([H:12])[C@@:4]1([H:13])[C@@:5]1([H:14])[N:6]([H:15])[C@@:7]21[H:16])([H:8])([H:9])[H:10]>>[C:1]([C@:2]1([C@@:7]2([H:16])[C:5]([H:13])([H:14])[N:6]2[H:15])[C:3]([H:11])([H:12])[C:4]1)([H:8])([H:9])[H:10]"
C        1.65771099      -0.78782385       0.82911016
C        0.52102134      -0.14342942       0.08929415
C        0.74968194       0.81873663      -1.02179180
C        0.13428627       1.28639150       0.25022953
C       -1.75504679       0.46512270       0.15098933
N       -1.84064624      -0.63400162      -0.79672743
C       -0.88126983      -0.72698444       0.27930667
H        1.40072395      -0.98283112       1.87283023
H        2.54444985      -0.15170122       0.83431775
H        1.92158037      -1.73965565       0.36132916
H        1.76915418       1.16597345      -1.15329214
H        0.16331334       0.89833341      -1.93084037
H       -1.28547497       1.87953552       0.13231905
H       -2.64253792       0.57786395       0.76503295
H       -1.41590343      -0.43584323      -1.69346777
H       -1.04104305      -1.48968661       1.03136053
