15
Frame=0 idx=010996 GeodesicLength=0.0 rxn_smarts="[C:1]([C@@:2]1([O:3][H:11])[C:4]([H:12])([H:13])[C@@:5]2([H:14])[O:6][C@@:7]12[H:15])([H:8])([H:9])[H:10]>>[C:1](=[C:2]([O:3][H:11])[C:7]([O:6][C:5](=[C:4]([H:12])[H:13])[H:14])([H:10])[H:15])([H:8])[H:9]"
C        1.51262887       0.76328616      -0.22494865
C        0.34214026       0.07274192       0.35977765
O        0.55822746      -0.54578808       1.60296500
C       -1.12211294       0.76300778       0.43958445
C       -1.64755602      -0.29746882      -0.41264248
O       -1.00439929      -0.40168131      -1.58728566
C        0.08276067      -0.92832231      -0.77032070
H        1.26140842       1.33728324      -1.11475180
H        2.21449737       1.29821008       0.41976102
H        1.29217457      -0.55988144      -1.12644141
H        1.44469071      -0.91600242       1.58284158
H       -1.52075523       0.78146709       1.44954821
H       -1.12174546       1.74562257      -0.02140443
H       -2.26776333      -1.12818014      -0.08658089
H       -0.02419604      -1.98429436      -0.51010183
15
Frame=1 idx=010996 GeodesicLength=0.10986800217365608 rxn_smarts="[C:1]([C@@:2]1([O:3][H:11])[C:4]([H:12])([H:13])[C@@:5]2([H:14])[O:6][C@@:7]12[H:15])([H:8])([H:9])[H:10]>>[C:1](=[C:2]([O:3][H:11])[C:7]([O:6][C:5](=[C:4]([H:12])[H:13])[H:14])([H:10])[H:15])([H:8])[H:9]"
C        1.51603561       0.75971991      -0.22693291
C        0.35429085       0.06674291       0.36400147
O        0.57949537      -0.55843367       1.60094321
C       -1.13962919       0.77178205       0.43817615
C       -1.64893790      -0.29237478      -0.41535793
O       -0.99418521      -0.39413743      -1.58662404
C        0.07701798      -0.93394498      -0.76321098
H        1.25450467       1.34023292      -1.10942605
H        2.21732195       1.29478831       0.41767866
H        1.30437408      -0.57087509      -1.12615723
H        1.47198394      -0.91366094       1.58509606
H       -1.54303770       0.78787305       1.44629544
H       -1.14355468       1.75477405      -0.02241178
H       -2.27243316      -1.12192757      -0.09330063
H       -0.03324661      -1.99055874      -0.50876945
15
Frame=2 idx=010996 GeodesicLength=0.2196998526721073 rxn_smarts="[C:1]([C@@:2]1([O:3][H:11])[C:4]([H:12])([H:13])[C@@:5]2([H:14])[O:6][C@@:7]12[H:15])([H:8])([H:9])[H:10]>>[C:1](=[C:2]([O:3][H:11])[C:7]([O:6][C:5](=[C:4]([H:12])[H:13])[H:14])([H:10])[H:15])([H:8])[H:9]"
C        1.51952509       0.75606521      -0.22877376
C        0.36679358       0.06036356       0.36836696
O        0.60138107      -0.57175583       1.59871149
C       -1.15767729       0.78097985       0.43645899
C       -1.65028642      -0.28734012      -0.41776948
O       -0.98396918      -0.38668581      -1.58555835
C        0.07116076      -0.93946856      -0.75593965
H        1.24753341       1.34336655      -1.10349820
H        2.22031887       1.29112587       0.41578055
H        1.31668526      -0.58165831      -1.12612619
H        1.49971499      -0.91165950       1.58709422
H       -1.56595381       0.79506075       1.44264909
H       -1.16599857       1.76409803      -0.02421484
H       -2.27699750      -1.11572449      -0.09963311
H       -0.04223028      -1.99676720      -0.50754772
15
Frame=3 idx=010996 GeodesicLength=0.3295124034575457 rxn_smarts="[C:1]([C@@:2]1([O:3][H:11])[C:4]([H:12])([H:13])[C@@:5]2([H:14])[O:6][C@@:7]12[H:15])([H:8])([H:9])[H:10]>>[C:1](=[C:2]([O:3][H:11])[C:7]([O:6][C:5](=[C:4]([H:12])[H:13])[H:14])([H:10])[H:15])([H:8])[H:9]"
C        1.52309337       0.75232448      -0.23045052
C        0.37966917       0.05357371       0.37288737
O        0.62393600      -0.58581060       1.59624753
C       -1.17628792       0.79063136       0.43439985
C       -1.65159991      -0.28236316      -0.41985143
O       -0.97375701      -0.37932627      -1.58406825
C        0.06518917      -0.94489395      -0.74848771
H        1.24048079       1.34668790      -1.09692071
H        2.22348445       1.28722388       0.41408550
H        1.32911647      -0.59221229      -1.12636538
H        1.52792924      -0.91003156       1.58881460
H       -1.58953241       0.80308014       1.43857621
H       -1.18912154       1.77360608      -0.02688303
H       -2.28145664      -1.10956682      -0.10554556
H       -0.05114323      -2.00292291      -0.50643848
15
Frame=4 idx=010996 GeodesicLength=0.43932029196748346 rxn_smarts="[C:1]([C@@:2]1([O:3][H:11])[C:4]([H:12])([H:13])[C@@:5]2([H:14])[O:6][C@@:7]12[H:15])([H:8])([H:9])[H:10]>>[C:1](=[C:2]([O:3][H:11])[C:7]([O:6][C:5](=[C:4]([H:12])[H:13])[H:14])([H:10])[H:15])([H:8])[H:9]"
C        1.52673525       0.74850053      -0.23194013
C        0.39293999       0.04634116       0.37757654
O        0.64721650      -0.60066108       1.59352401
C       -1.19549371       0.80076918       0.43196235
C       -1.65287598      -0.27744155      -0.42157594
O       -0.96355423      -0.37205850      -1.58213110
C        0.05910371      -0.95022238      -0.74083388
H        1.23333264       1.35019846      -1.08963970
H        2.22681481       1.28308334       0.41261568
H        1.34167553      -0.60251536      -1.12689194
H        1.55667906      -0.90881175       1.59023156
H       -1.61380403       0.81198678       1.43404136
H       -1.21297647       1.78330743      -0.03049389
H       -2.28581139      -1.10344720      -0.11100200
H       -0.05998168      -2.00902905      -0.50544291
15
Frame=5 idx=010996 GeodesicLength=0.5491237855183541 rxn_smarts="[C:1]([C@@:2]1([O:3][H:11])[C:4]([H:12])([H:13])[C@@:5]2([H:14])[O:6][C@@:7]12[H:15])([H:8])([H:9])[H:10]>>[C:1](=[C:2]([O:3][H:11])[C:7]([O:6][C:5](=[C:4]([H:12])[H:13])[H:14])([H:10])[H:15])([H:8])[H:9]"
C        1.53044582       0.74459698      -0.23321973
C        0.40662967       0.03863268       0.38244973
O        0.67128078      -0.61636627       1.59051069
C       -1.21532633       0.81142717       0.42910916
C       -1.65411072      -0.27257129      -0.42291140
O       -0.95336644      -0.36488267      -1.57972287
C        0.05290545      -0.95545494      -0.73295547
H        1.22607229       1.35390277      -1.08160078
H        2.23030887       1.27870162       0.41139493
H        1.35436931      -0.61254432      -1.12772686
H        1.58601223      -0.90803754       1.59132008
H       -1.63880225       0.82183391       1.42900642
H       -1.23761692       1.79320923      -0.03512806
H       -2.29006047      -1.09735952      -0.11596323
H       -0.06874129      -2.01508782      -0.50456259
15
Frame=6 idx=010996 GeodesicLength=0.6589425129038052 rxn_smarts="[C:1]([C@@:2]1([O:3][H:11])[C:4]([H:12])([H:13])[C@@:5]2([H:14])[O:6][C@@:7]12[H:15])([H:8])([H:9])[H:10]>>[C:1](=[C:2]([O:3][H:11])[C:7]([O:6][C:5](=[C:4]([H:12])[H:13])[H:14])([H:10])[H:15])([H:8])[H:9]"
C        1.53421815       0.74061749      -0.23425894
C        0.42076457       0.03041096       0.38752317
O        0.69620017      -0.63300285       1.58716916
C       -1.23582689       0.82264212       0.42579312
C       -1.65530075      -0.26774681      -0.42382218
O       -0.94319939      -0.35779887      -1.57681437
C        0.04659373      -0.96059310      -0.72482359
H        1.21868254       1.35780102      -1.07273574
H        2.23396148       1.27407935       0.41045171
H        1.36720440      -0.62226906      -1.12888880
H        1.61599419      -0.90774942       1.59204456
H       -1.66456293       0.83268634       1.42342508
H       -1.26310423       1.80331835      -0.04088168
H       -2.29420526      -1.09129369      -0.12038560
H       -0.07741978      -2.02110183      -0.50379591
15
Frame=7 idx=010996 GeodesicLength=0.7687846792249717 rxn_smarts="[C:1]([C@@:2]1([O:3][H:11])[C:4]([H:12])([H:13])[C@@:5]2([H:14])[O:6][C@@:7]12[H:15])([H:8])([H:9])[H:10]>>[C:1](=[C:2]([O:3][H:11])[C:7]([O:6][C:5](=[C:4]([H:12])[H:13])[H:14])([H:10])[H:15])([H:8])[H:9]"
C        1.53804556       0.73656558      -0.23502606
C        0.43537354       0.02163514       0.39281434
O        0.72204758      -0.65064350       1.58345638
C       -1.25703838       0.83445269       0.42196332
C       -1.65644057      -0.26296176      -0.42426782
O       -0.93305823      -0.35080710      -1.57337406
C        0.04016958      -0.96563786      -0.71640771
H        1.21114020       1.36189679      -1.06297199
H        2.23777023       1.26921293       0.40981705
H        1.38018549      -0.63165595      -1.13040240
H        1.64668293      -0.90799233       1.59237081
H       -1.69111699       0.84461073       1.41724901
H       -1.28950432       1.81363662      -0.04785795
H       -2.29824401      -1.08523934      -0.12422033
H       -0.08601262      -2.02707262      -0.50314259
15
Frame=8 idx=010996 GeodesicLength=0.8786614863837412 rxn_smarts="[C:1]([C@@:2]1([O:3][H:11])[C:4]([H:12])([H:13])[C@@:5]2([H:14])[O:6][C@@:7]12[H:15])([H:8])([H:9])[H:10]>>[C:1](=[C:2]([O:3][H:11])[C:7]([O:6][C:5](=[C:4]([H:12])[H:13])[H:14])([H:10])[H:15])([H:8])[H:9]"
C        1.54191861       0.73244639      -0.23548305
C        0.45048769       0.01226338       0.39834198
O        0.74890922      -0.66937708       1.57931901
C       -1.27900811       0.84690046       0.41756244
C       -1.65752519      -0.25820848      -0.42420398
O       -0.92294807      -0.34390857      -1.56936619
C        0.03363318      -0.97059116      -0.70767098
H        1.20342215       1.36618996      -1.05222651
H        2.24173155       1.26410017       0.40952836
H        1.39331607      -0.64066589      -1.13228903
H        1.67815382      -0.90881434       1.59225253
H       -1.71850700       0.85768264       1.41042181
H       -1.31688944       1.82416557      -0.05617449
H       -2.30217690      -1.07918148      -0.12741302
H       -0.09451757      -2.03300157      -0.50259885
15
Frame=9 idx=010996 GeodesicLength=0.9885888972886873 rxn_smarts="[C:1]([C@@:2]1([O:3][H:11])[C:4]([H:12])([H:13])[C@@:5]2([H:14])[O:6][C@@:7]12[H:15])([H:8])([H:9])[H:10]>>[C:1](=[C:2]([O:3][H:11])[C:7]([O:6][C:5](=[C:4]([H:12])[H:13])[H:14])([H:10])[H:15])([H:8])[H:9]"
C        1.54583010       0.72826485      -0.23558441
C        0.46614285       0.00224739       0.40412736
O        0.77688364      -0.68929536       1.57469220
C       -1.30179556       0.86002641       0.41251434
C       -1.65854461      -0.25347204      -0.42357139
O       -0.91287706      -0.33710557      -1.56474396
C        0.02698467      -0.97545293      -0.69856828
H        1.19549651       1.37068759      -1.04039971
H        2.24584272       1.25873586       0.40962711
H        1.40659339      -0.64924619      -1.13457404
H        1.71047826      -0.91027574       1.59163658
H       -1.74676826       0.87198207       1.40286920
H       -1.34533426       1.83488993      -0.06596800
H       -2.30599913      -1.07309874      -0.12989802
H       -0.10293327      -2.03888753      -0.50215897
15
Frame=10 idx=010996 GeodesicLength=1.09855092203846 rxn_smarts="[C:1]([C@@:2]1([O:3][H:11])[C:4]([H:12])([H:13])[C@@:5]2([H:14])[O:6][C@@:7]12[H:15])([H:8])([H:9])[H:10]>>[C:1](=[C:2]([O:3][H:11])[C:7]([O:6][C:5](=[C:4]([H:12])[H:13])[H:14])([H:10])[H:15])([H:8])[H:9]"
C        1.54976837       0.72402708      -0.23528884
C        0.48237312      -0.00846073       0.41019132
O        0.80606297      -0.71048716       1.56950713
C       -1.32544694       0.87387437       0.40675849
C       -1.65949308      -0.24874335      -0.42231970
O       -0.90284856      -0.33039846      -1.55946869
C        0.02022335      -0.98022658      -0.68905813
H        1.18733804       1.37538769      -1.02739556
H        2.25009966       1.25311390       0.41016113
H        1.42002236      -0.65735121      -1.13728890
H        1.74373328      -0.91242786       1.59047113
H       -1.77594122       0.88759381       1.39453366
H       -1.37492416       1.84580598      -0.07737347
H       -2.30971103      -1.06697647      -0.13161240
H       -0.11125614      -2.04473102      -0.50181717
15
Frame=11 idx=010996 GeodesicLength=1.2085385894654757 rxn_smarts="[C:1]([C@@:2]1([O:3][H:11])[C:4]([H:12])([H:13])[C@@:5]2([H:14])[O:6][C@@:7]12[H:15])([H:8])([H:9])[H:10]>>[C:1](=[C:2]([O:3][H:11])[C:7]([O:6][C:5](=[C:4]([H:12])[H:13])[H:14])([H:10])[H:15])([H:8])[H:9]"
C        1.55372419       0.71973748      -0.23454410
C        0.49921835      -0.01991453       0.41655737
O        0.83655518      -0.73305637       1.56367562
C       -1.35001933       0.88849293       0.40021362
C       -1.66036008      -0.24400432      -0.42038326
O       -0.89286864      -0.32378982      -1.55348921
C        0.01334914      -0.98491408      -0.67908791
H        1.17891220       1.38029288      -1.01309865
H        2.25449750       1.24722856       0.41118690
H        1.43359851      -0.66492120      -1.14046468
H        1.77800622      -0.91533173       1.58869126
H       -1.80606942       0.90460991       1.38533625
H       -1.40574770       1.85688981      -0.09054972
H       -2.31331071      -1.06079000      -0.13248015
H       -0.11948540      -2.05052951      -0.50156333
15
Frame=12 idx=010996 GeodesicLength=1.3185476031608832 rxn_smarts="[C:1]([C@@:2]1([O:3][H:11])[C:4]([H:12])([H:13])[C@@:5]2([H:14])[O:6][C@@:7]12[H:15])([H:8])([H:9])[H:10]>>[C:1](=[C:2]([O:3][H:11])[C:7]([O:6][C:5](=[C:4]([H:12])[H:13])[H:14])([H:10])[H:15])([H:8])[H:9]"
C        1.55768373       0.71540618      -0.23329142
C        0.51672505      -0.03217274       0.42324803
O        0.86848152      -0.75710648       1.55709622
C       -1.37557709       0.90393001       0.39278878
C       -1.66113316      -0.23923444      -0.41768717
O       -0.88294312      -0.31728168      -1.54674724
C        0.00636139      -0.98951668      -0.66859738
H        1.17018417       1.38540345      -0.99737101
H        2.25903810       1.24106470       0.41276266
H        1.44731623      -0.67188399      -1.14413671
H        1.81338398      -0.91905992       1.58622199
H       -1.83719836       0.92313280       1.37518809
H       -1.43790914       1.86810767      -0.10567586
H       -2.31679345      -1.05451011      -0.13241428
H       -0.12761985      -2.05627876      -0.50138470
15
Frame=13 idx=010996 GeodesicLength=1.428567549877415 rxn_smarts="[C:1]([C@@:2]1([O:3][H:11])[C:4]([H:12])([H:13])[C@@:5]2([H:14])[O:6][C@@:7]12[H:15])([H:8])([H:9])[H:10]>>[C:1](=[C:2]([O:3][H:11])[C:7]([O:6][C:5](=[C:4]([H:12])[H:13])[H:14])([H:10])[H:15])([H:8])[H:9]"
C        1.56163341       0.71104263      -0.23146395
C        0.53494291      -0.04529957       0.43029042
O        0.90197371      -0.78274956       1.54964249
C       -1.40219619       0.92022802       0.38437497
C       -1.66179539      -0.23440485      -0.41413965
O       -0.87308051      -0.31087758      -1.53917431
C       -0.00074097      -0.99403600      -0.65751614
H        1.16110865       1.39072345      -0.98006110
H        2.26372051       1.23460775       0.41495963
H        1.46116276      -0.67815588      -1.14834334
H        1.84996084      -0.92368879       1.58297957
H       -1.86937023       0.94326761       1.36398456
H       -1.47150398       1.87941512      -0.12295102
H       -2.32015408      -1.04810038      -0.13131997
H       -0.13566143      -2.06197198      -0.50126219
15
Frame=14 idx=010996 GeodesicLength=1.5385961599652351 rxn_smarts="[C:1]([C@@:2]1([O:3][H:11])[C:4]([H:12])([H:13])[C@@:5]2([H:14])[O:6][C@@:7]12[H:15])([H:8])([H:9])[H:10]>>[C:1](=[C:2]([O:3][H:11])[C:7]([O:6][C:5](=[C:4]([H:12])[H:13])[H:14])([H:10])[H:15])([H:8])[H:9]"
C        1.56555888       0.70665441      -0.22898253
C        0.55392868      -0.05936535       0.43771111
O        0.93718556      -0.81012235       1.54116866
C       -1.42995393       0.93744233       0.37485243
C       -1.66232922      -0.22948129      -0.40964473
O       -0.86328486      -0.30458118      -1.53069606
C       -0.00795979      -0.99847543      -0.64576308
H        1.15163827       1.39625021      -0.96098720
H        2.26854133       1.22784417       0.41786150
H        1.47512403      -0.68364198      -1.15312254
H        1.88785512      -0.92930133       1.57885649
H       -1.90263629       0.96514372       1.35161063
H       -1.50666067       1.89074832      -0.14260561
H       -2.32338973      -1.04151304      -0.12908942
H       -0.14361739      -2.06760122      -0.50116964
15
Frame=15 idx=010996 GeodesicLength=1.6486157786752458 rxn_smarts="[C:1]([C@@:2]1([O:3][H:11])[C:4]([H:12])([H:13])[C@@:5]2([H:14])[O:6][C@@:7]12[H:15])([H:8])([H:9])[H:10]>>[C:1](=[C:2]([O:3][H:11])[C:7]([O:6][C:5](=[C:4]([H:12])[H:13])[H:14])([H:10])[H:15])([H:8])[H:9]"
C        1.56944213       0.70225405      -0.22576130
C        0.57374585      -0.07444703       0.44553690
O        0.97427639      -0.83935541       1.53149606
C       -1.45893737       0.95561662       0.36408337
C       -1.66271100      -0.22441951      -0.40408584
O       -0.85356383      -0.29839750      -1.52122539
C       -0.01529798      -1.00283667      -0.63324513
H        1.14172003       1.40198228      -0.93994519
H        2.27350199       1.22075188       0.42156023
H        1.48917664      -0.68822963      -1.15851807
H        1.92717862      -0.93598611       1.57373811
H       -1.93704280       0.98889015       1.33793391
H       -1.54349802       1.90202330      -0.16488981
H       -2.32649456      -1.03469282      -0.12560437
H       -0.15149608      -2.07315361      -0.50107347
15
Frame=16 idx=010996 GeodesicLength=1.7586165495438308 rxn_smarts="[C:1]([C@@:2]1([O:3][H:11])[C:4]([H:12])([H:13])[C@@:5]2([H:14])[O:6][C@@:7]12[H:15])([H:8])([H:9])[H:10]>>[C:1](=[C:2]([O:3][H:11])[C:7]([O:6][C:5](=[C:4]([H:12])[H:13])[H:14])([H:10])[H:15])([H:8])[H:9]"
C        1.57326766       0.69785092      -0.22169801
C        0.59447009      -0.09062978       0.45379321
O        1.01343073      -0.87059327       1.52040650
C       -1.48924197       0.97479584       0.35190701
C       -1.66291004      -0.21915958      -0.39732525
O       -0.84392499      -0.29233066      -1.51065991
C       -0.02275931      -1.00712113      -0.61985181
H        1.13129041       1.40791356      -0.91668969
H        2.27860897       1.21330256       0.42616263
H        1.50328705      -0.69178516      -1.16457679
H        1.96806046      -0.94383879       1.56748621
H       -1.97265063       1.01464939       1.32279387
H       -1.58215210       1.91312210      -0.19009062
H       -2.32946130      -1.02756449      -0.12072865
H       -0.15931502      -2.07861150      -0.50092872
