12
Frame=0 idx=003865 GeodesicLength=0.0 rxn_smarts="[O:1]([C@@:2]1([H:8])[C:3]([H:9])([H:10])[C:4]([H:11])([H:12])[C:5]1=[O:6])[H:7]>>[C:3](=[C:4]([H:11])[H:12])([H:9])[H:10].[O:1]([C:2](=[C:5]=[O:6])[H:8])[H:7]"
O        2.42123960      -0.56064187      -0.78346914
C        1.10705687      -0.53042291      -0.41370569
C       -1.13162163      -0.14780307       1.00218719
C       -1.48638776       0.10761259      -0.28507715
C        0.51816873       0.61331580      -0.02002329
O        0.66998685       1.78603551       0.17182970
H        2.79259892       0.32249210      -0.70668517
H        0.60846945      -1.48035289      -0.46506433
H       -0.98576070      -1.15891450       1.35786105
H       -1.11420442       0.63669810       1.74626756
H       -1.76314673       1.10294306      -0.60498553
H       -1.63639917      -0.69096188      -0.99913515
12
Frame=1 idx=003865 GeodesicLength=0.06548290300565235 rxn_smarts="[O:1]([C@@:2]1([H:8])[C:3]([H:9])([H:10])[C:4]([H:11])([H:12])[C:5]1=[O:6])[H:7]>>[C:3](=[C:4]([H:11])[H:12])([H:9])[H:10].[O:1]([C:2](=[C:5]=[O:6])[H:8])[H:7]"
O        2.42787666      -0.56994964      -0.75506513
C        1.10898612      -0.52468886      -0.39783225
C       -1.10721259      -0.16056544       1.00211417
C       -1.49483007       0.10963452      -0.27709645
C        0.51162927       0.64101537      -0.07595556
O        0.66627158       1.81392035       0.10340642
H        2.82436320       0.29682228      -0.63313171
H        0.59874351      -1.46464722      -0.50457710
H       -0.98494441      -1.17675413       1.35239606
H       -1.08092162       0.61738033       1.75323805
H       -1.80651976       1.10185583      -0.57449322
H       -1.66344188      -0.68402341      -0.99300330
12
Frame=2 idx=003865 GeodesicLength=0.13125050778296815 rxn_smarts="[O:1]([C@@:2]1([H:8])[C:3]([H:9])([H:10])[C:4]([H:11])([H:12])[C:5]1=[O:6])[H:7]>>[C:3](=[C:4]([H:11])[H:12])([H:9])[H:10].[O:1]([C:2](=[C:5]=[O:6])[H:8])[H:7]"
O        2.43551893      -0.57865547      -0.71650036
C        1.10776591      -0.51775704      -0.38936299
C       -1.08036335      -0.17366170       1.00110101
C       -1.50366934       0.11228084      -0.26790496
C        0.50417036       0.66608035      -0.13644020
O        0.66184721       1.83934145       0.02867084
H        2.85080108       0.27178655      -0.55117430
H        0.59070855      -1.44749637      -0.54899960
H       -0.98224298      -1.19429880       1.34637876
H       -1.04187932       0.59763356       1.75897648
H       -1.84840443       1.10099266      -0.54026697
H       -1.69425263      -0.67624602      -0.98447771
12
Frame=3 idx=003865 GeodesicLength=0.1967419040229194 rxn_smarts="[O:1]([C@@:2]1([H:8])[C:3]([H:9])([H:10])[C:4]([H:11])([H:12])[C:5]1=[O:6])[H:7]>>[C:3](=[C:4]([H:11])[H:12])([H:9])[H:10].[O:1]([C:2](=[C:5]=[O:6])[H:8])[H:7]"
O        2.44117826      -0.58470350      -0.67917509
C        1.10557257      -0.51082761      -0.38119328
C       -1.05434725      -0.18714105       0.99907603
C       -1.51060979       0.11561829      -0.25924894
C        0.49768323       0.68777473      -0.19448989
O        0.65848941       1.86145335      -0.04528663
H        2.87021531       0.24965368      -0.47299265
H        0.58610896      -1.43089306      -0.58871639
H       -0.98263443      -1.21146857       1.34036213
H       -1.00326830       0.57739506       1.76346859
H       -1.88410747       1.10076931      -0.50619102
H       -1.72428051      -0.66763063      -0.97561286
12
Frame=4 idx=003865 GeodesicLength=0.26227411325080335 rxn_smarts="[O:1]([C@@:2]1([H:8])[C:3]([H:9])([H:10])[C:4]([H:11])([H:12])[C:5]1=[O:6])[H:7]>>[C:3](=[C:4]([H:11])[H:12])([H:9])[H:10].[O:1]([C:2](=[C:5]=[O:6])[H:8])[H:7]"
O        2.44552325      -0.58863006      -0.64197678
C        1.10246049      -0.50382133      -0.37443961
C       -1.02899336      -0.20109212       0.99617364
C       -1.51610975       0.11968302      -0.25088470
C        0.49184339       0.70651569      -0.25098370
O        0.65589526       1.88064610      -0.11954199
H        2.88358924       0.23013604      -0.39667863
H        0.58436725      -1.41518178      -0.62505348
H       -0.98492908      -1.22821951       1.33433942
H       -0.96465620       0.55656465       1.76687420
H       -1.91505558       1.10133181      -0.47149435
H       -1.75393493      -0.65793253      -0.96633400
12
Frame=5 idx=003865 GeodesicLength=0.3279273803429295 rxn_smarts="[O:1]([C@@:2]1([H:8])[C:3]([H:9])([H:10])[C:4]([H:11])([H:12])[C:5]1=[O:6])[H:7]>>[C:3](=[C:4]([H:11])[H:12])([H:9])[H:10].[O:1]([C:2](=[C:5]=[O:6])[H:8])[H:7]"
O        2.44870520      -0.59081817      -0.60477332
C        1.09882024      -0.49678774      -0.36819173
C       -1.00474795      -0.21571988       0.99250150
C       -1.52016158       0.12449026      -0.24291941
C        0.48679113       0.72261664      -0.30527795
O        0.65413284       1.89713239      -0.19351494
H        2.89181410       0.21383498      -0.32476032
H        0.58512904      -1.40061954      -0.65719839
H       -0.98956957      -1.24474094       1.32818592
H       -0.92683294       0.53473075       1.76948027
H       -1.94116101       1.10284778      -0.43662933
H       -1.78291949      -0.64696653      -0.95690229
12
Frame=6 idx=003865 GeodesicLength=0.3938708641704085 rxn_smarts="[O:1]([C@@:2]1([H:8])[C:3]([H:9])([H:10])[C:4]([H:11])([H:12])[C:5]1=[O:6])[H:7]>>[C:3](=[C:4]([H:11])[H:12])([H:9])[H:10].[O:1]([C:2](=[C:5]=[O:6])[H:8])[H:7]"
O        2.45080548      -0.59116592      -0.56735452
C        1.09453254      -0.48963598      -0.36359740
C       -0.98105966      -0.23103432       0.98812505
C       -1.52313484       0.13000818      -0.23498791
C        0.48211968       0.73642892      -0.35864932
O        0.65281375       1.91116379      -0.26871252
H        2.89531907       0.19991746      -0.25331694
H        0.58782463      -1.38718547      -0.68690829
H       -0.99521700      -1.26098196       1.32187033
H       -0.88884438       0.51186588       1.77129952
H       -1.96331873       1.10528750      -0.40091010
H       -1.81184053      -0.63466809      -0.94685791
12
Frame=7 idx=003865 GeodesicLength=0.4602560198938346 rxn_smarts="[O:1]([C@@:2]1([H:8])[C:3]([H:9])([H:10])[C:4]([H:11])([H:12])[C:5]1=[O:6])[H:7]>>[C:3](=[C:4]([H:11])[H:12])([H:9])[H:10].[O:1]([C:2](=[C:5]=[O:6])[H:8])[H:7]"
O        2.45185763      -0.58959803      -0.52977737
C        1.08980427      -0.48237550      -0.36027293
C       -0.95794593      -0.24717230       0.98308676
C       -1.52503296       0.13621790      -0.22702876
C        0.47780849       0.74816843      -0.41114905
O        0.65191129       1.92282435      -0.34532847
H        2.89443839       0.18845344      -0.18250971
H        0.59225292      -1.37489202      -0.71425127
H       -1.00208495      -1.27707760       1.31528912
H       -0.85071514       0.48767587       1.77246372
H       -1.98147698       1.10872137      -0.36445867
H       -1.84081704      -0.62094591      -0.93606337
12
Frame=8 idx=003865 GeodesicLength=0.5268893125868512 rxn_smarts="[O:1]([C@@:2]1([H:8])[C:3]([H:9])([H:10])[C:4]([H:11])([H:12])[C:5]1=[O:6])[H:7]>>[C:3](=[C:4]([H:11])[H:12])([H:9])[H:10].[O:1]([C:2](=[C:5]=[O:6])[H:8])[H:7]"
O        2.45196432      -0.58624051      -0.49240489
C        1.08490127      -0.47514713      -0.35737646
C       -0.93581740      -0.26415538       0.97748156
C       -1.52588450       0.14316943      -0.21910659
C        0.47390429       0.75784697      -0.46248219
O        0.65149255       1.93197326      -0.42285233
H        2.88965995       0.17972562      -0.11373699
H        0.59839158      -1.36386001      -0.73885821
H       -1.01019160      -1.29305099       1.30843637
H       -0.81322265       0.46209112       1.77311722
H       -1.99577658       1.11323045      -0.32739623
H       -1.86942125      -0.60558282      -0.92482126
12
Frame=9 idx=003865 GeodesicLength=0.5939667508341901 rxn_smarts="[O:1]([C@@:2]1([H:8])[C:3]([H:9])([H:10])[C:4]([H:11])([H:12])[C:5]1=[O:6])[H:7]>>[C:3](=[C:4]([H:11])[H:12])([H:9])[H:10].[O:1]([C:2](=[C:5]=[O:6])[H:8])[H:7]"
O        2.45120088      -0.58099926      -0.45494194
C        1.07986790      -0.46790439      -0.35495556
C       -0.91453387      -0.28212507       0.97131566
C       -1.52575931       0.15086133      -0.21106630
C        0.47031158       0.76560916      -0.51301877
O        0.65146339       1.93861602      -0.50186901
H        2.88125793       0.17374282      -0.04636570
H        0.60610622      -1.35401706      -0.76113696
H       -1.01958397      -1.30905677       1.30115420
H       -0.77609035       0.43481063       1.77334682
H       -2.00624198       1.11890236      -0.28959740
H       -1.89799842      -0.58843977      -0.91286504
12
Frame=10 idx=003865 GeodesicLength=0.6615571012413204 rxn_smarts="[O:1]([C@@:2]1([H:8])[C:3]([H:9])([H:10])[C:4]([H:11])([H:12])[C:5]1=[O:6])[H:7]>>[C:3](=[C:4]([H:11])[H:12])([H:9])[H:10].[O:1]([C:2](=[C:5]=[O:6])[H:8])[H:7]"
O        2.44953866      -0.57372528      -0.41709875
C        1.07466591      -0.46066903      -0.35334024
C       -0.89391876      -0.30111426       0.96455431
C       -1.52473645       0.15937172      -0.20272077
C        0.46685480       0.77146945      -0.56334328
O        0.65165315       1.94259210      -0.58297074
H        2.86895828       0.17036060       0.02087018
H        0.61530130      -1.34538390      -0.78168319
H       -1.02967982      -1.32517214       1.29328291
H       -0.73899518       0.40568607       1.77313491
H       -2.01297067       1.12585224      -0.25069534
H       -1.92667124      -0.56926757      -0.89999001
12
Frame=11 idx=003865 GeodesicLength=0.7299107299854857 rxn_smarts="[O:1]([C@@:2]1([H:8])[C:3]([H:9])([H:10])[C:4]([H:11])([H:12])[C:5]1=[O:6])[H:7]>>[C:3](=[C:4]([H:11])[H:12])([H:9])[H:10].[O:1]([C:2](=[C:5]=[O:6])[H:8])[H:7]"
O        2.44694052      -0.56420253      -0.37839869
C        1.06934219      -0.45342297      -0.35253889
C       -0.87384816      -0.32133612       0.95711427
C       -1.52274136       0.16875714      -0.19391994
C        0.46345931       0.77540977      -0.61380694
O        0.65201430       1.94366959      -0.66677896
H        2.85260865       0.16990343       0.08828349
H        0.62604640      -1.33795483      -0.80069723
H       -1.04077006      -1.34157670       1.28457831
H       -0.70162105       0.37424850       1.77249620
H       -2.01567136       1.13423738      -0.21045086
H       -1.95575939      -0.54773264      -0.88588075
12
Frame=12 idx=003865 GeodesicLength=0.7988435448592089 rxn_smarts="[O:1]([C@@:2]1([H:8])[C:3]([H:9])([H:10])[C:4]([H:11])([H:12])[C:5]1=[O:6])[H:7]>>[C:3](=[C:4]([H:11])[H:12])([H:9])[H:10].[O:1]([C:2](=[C:5]=[O:6])[H:8])[H:7]"
O        2.44344439      -0.55235998      -0.33920163
C        1.06402952      -0.44621874      -0.35193696
C       -0.85467541      -0.34284891       0.94903178
C       -1.51975595       0.17909080      -0.18465161
C        0.46017338       0.77732731      -0.66417377
O        0.65251758       1.94154637      -0.75295684
H        2.83260423       0.17270420       0.15476539
H        0.63843382      -1.33178083      -0.81770060
H       -1.05298234      -1.35838517       1.27488699
H       -0.66466027       0.34029551       1.77156959
H       -2.01417574       1.14417661      -0.16896627
H       -1.98495320      -0.52354718      -0.87066606
12
Frame=13 idx=003865 GeodesicLength=0.868291104446361 rxn_smarts="[O:1]([C@@:2]1([H:8])[C:3]([H:9])([H:10])[C:4]([H:11])([H:12])[C:5]1=[O:6])[H:7]>>[C:3](=[C:4]([H:11])[H:12])([H:9])[H:10].[O:1]([C:2](=[C:5]=[O:6])[H:8])[H:7]"
O        2.43906240      -0.53800901      -0.29965273
C        1.05877953      -0.43902423      -0.35120762
C       -0.83657662      -0.36577546       0.94029579
C       -1.51572299       0.19039775      -0.17483696
C        0.45699129       0.77714671      -0.71443566
O        0.65313613       1.93591512      -0.84144451
H        2.80925108       0.17907418       0.21979277
H        0.65254898      -1.32682606      -0.83246707
H       -1.06659417      -1.37571651       1.26401950
H       -0.62847602       0.30349698       1.77046128
H       -2.00818670       1.15575882      -0.12629904
H       -2.01421290      -0.49643831      -0.85422576
12
Frame=14 idx=003865 GeodesicLength=0.938155053423624 rxn_smarts="[O:1]([C@@:2]1([H:8])[C:3]([H:9])([H:10])[C:4]([H:11])([H:12])[C:5]1=[O:6])[H:7]>>[C:3](=[C:4]([H:11])[H:12])([H:9])[H:10].[O:1]([C:2](=[C:5]=[O:6])[H:8])[H:7]"
O        2.43381331      -0.52091443      -0.25988051
C        1.05361865      -0.43180672      -0.35011345
C       -0.81971719      -0.39022761       0.93085836
C       -1.51058341       0.20273720      -0.16437299
C        0.45388456       0.77473254      -0.76467029
O        0.65376873       1.92640509      -0.93224021
H        2.78277967       0.18932122       0.28304614
H        0.66850429      -1.32308506      -0.84477428
H       -1.08178866      -1.39369644       1.25170900
H       -0.59340168       0.26350381       1.76925068
H       -1.99739476       1.16908329      -0.08239173
H       -2.04348350      -0.46605289      -0.83642073
12
Frame=15 idx=003865 GeodesicLength=1.0083829277348906 rxn_smarts="[O:1]([C@@:2]1([H:8])[C:3]([H:9])([H:10])[C:4]([H:11])([H:12])[C:5]1=[O:6])[H:7]>>[C:3](=[C:4]([H:11])[H:12])([H:9])[H:10].[O:1]([C:2](=[C:5]=[O:6])[H:8])[H:7]"
O        2.42768877      -0.50077609      -0.21990380
C        1.04854611      -0.42451503      -0.34849871
C       -0.80423022      -0.41635252       0.92062541
C       -1.50424489       0.21617274      -0.15312246
C        0.45079950       0.76989821      -0.81504436
O        0.65429040       1.91258215      -1.02542900
H        2.75332907       0.20383630       0.34434276
H        0.68644792      -1.32054735      -0.85443476
H       -1.09881115      -1.41246009       1.23761605
H       -0.55968439       0.21987356       1.76798166
H       -1.98137355       1.18424844      -0.03711498
H       -2.07275756      -0.43196030      -0.81701781
12
Frame=16 idx=003865 GeodesicLength=1.0789050251713492 rxn_smarts="[O:1]([C@@:2]1([H:8])[C:3]([H:9])([H:10])[C:4]([H:11])([H:12])[C:5]1=[O:6])[H:7]>>[C:3](=[C:4]([H:11])[H:12])([H:9])[H:10].[O:1]([C:2](=[C:5]=[O:6])[H:8])[H:7]"
O        2.42064833      -0.47723942      -0.17973891
C        1.04354099      -0.41708503      -0.34622138
C       -0.79026920      -0.44430518       0.90946491
C       -1.49657941       0.23077168      -0.14092896
C        0.44767033       0.76239493      -0.86573963
O        0.65454385       1.89394598      -1.12106693
H        2.72098149       0.22307339       0.40350155
H        0.70655948      -1.31918942      -0.86122891
H       -1.11793065      -1.43213525       1.22132897
H       -0.52759577       0.17210521       1.76666341
H       -1.95958400       1.20132732       0.00968728
H       -2.10198543      -0.39366422      -0.79572140
