12
Frame=0 idx=003209 GeodesicLength=0.0 rxn_smarts="[C:1]([c:2]1[c:3]([H:10])[c:4]([H:11])[n:5][n:6]1[H:12])([H:7])([H:8])[H:9]>>[C:1]([C@@:2]1([H:10])[C+:3]=[C:4]([H:11])[N-:5][N:6]1[H:12])([H:7])([H:8])[H:9]"
C       -1.65006636      -0.37085901      -0.20701120
C       -0.19356323      -0.18531897       0.11566288
C        0.89978086      -1.10708859      -0.17350475
C        1.99086337      -0.18010826      -0.14253654
N        1.64737235       1.09195219       0.00277087
N        0.34658827       1.11998825       0.12449147
H       -2.28985933       0.26525297       0.40772361
H       -1.83173304      -0.13825902      -1.25642241
H       -1.92286297      -1.41062277      -0.03842308
H        0.08003074      -0.66944572       1.13231657
H        3.03856933      -0.41016094      -0.27110963
H       -0.11512000       1.99466988       0.30604218
12
Frame=1 idx=003209 GeodesicLength=0.06191184057094396 rxn_smarts="[C:1]([c:2]1[c:3]([H:10])[c:4]([H:11])[n:5][n:6]1[H:12])([H:7])([H:8])[H:9]>>[C:1]([C@@:2]1([H:10])[C+:3]=[C:4]([H:11])[N-:5][N:6]1[H:12])([H:7])([H:8])[H:9]"
C       -1.64959270      -0.36856166      -0.20771312
C       -0.19489324      -0.18340595       0.12280880
C        0.89821042      -1.10282555      -0.16207956
C        1.98897890      -0.17794237      -0.15117673
N        1.64515206       1.09524870      -0.01111404
N        0.34612638       1.12089381       0.12884679
H       -2.29196656       0.26462389       0.40739091
H       -1.82737733      -0.13156536      -1.25686765
H       -1.92349328      -1.40889521      -0.04449019
H        0.08732575      -0.69475100       1.14188095
H        3.03769249      -0.41045431      -0.26593484
H       -0.11616289       1.99763500       0.29844869
12
Frame=2 idx=003209 GeodesicLength=0.1238273899682846 rxn_smarts="[C:1]([c:2]1[c:3]([H:10])[c:4]([H:11])[n:5][n:6]1[H:12])([H:7])([H:8])[H:9]>>[C:1]([C@@:2]1([H:10])[C+:3]=[C:4]([H:11])[N-:5][N:6]1[H:12])([H:7])([H:8])[H:9]"
C       -1.64905032      -0.36618105      -0.20831455
C       -0.19620429      -0.18139710       0.13016030
C        0.89663927      -1.09837744      -0.15089750
C        1.98703300      -0.17591021      -0.15931690
N        1.64276441       1.09843586      -0.02509486
N        0.34575024       1.12189621       0.13316016
H       -2.29403506       0.26405363       0.40712721
H       -1.82294201      -0.12476931      -1.25717554
H       -1.92399803      -1.40707380      -0.05048857
H        0.09465942      -0.72071422       1.15118308
H        3.03661649      -0.41052494      -0.26072049
H       -0.11723311       2.00056238       0.29037766
12
Frame=3 idx=003209 GeodesicLength=0.18574884752333565 rxn_smarts="[C:1]([c:2]1[c:3]([H:10])[c:4]([H:11])[n:5][n:6]1[H:12])([H:7])([H:8])[H:9]>>[C:1]([C@@:2]1([H:10])[C+:3]=[C:4]([H:11])[N-:5][N:6]1[H:12])([H:7])([H:8])[H:9]"
C       -1.64843528      -0.36372344      -0.20885409
C       -0.19750603      -0.17927236       0.13771887
C        0.89506859      -1.09376458      -0.13979568
C        1.98504935      -0.17401741      -0.16679702
N        1.64022498       1.10150331      -0.03907797
N        0.34544827       1.12301934       0.13734670
H       -2.29608633       0.26359190       0.40681194
H       -1.81838060      -0.11797967      -1.25741614
H       -1.92438688      -1.40515033      -0.05637053
H        0.10197147      -0.74728026       1.16024619
H        3.03534120      -0.41035710      -0.25582203
H       -0.11830875       2.00343058       0.28200977
12
Frame=4 idx=003209 GeodesicLength=0.2476386571607675 rxn_smarts="[C:1]([c:2]1[c:3]([H:10])[c:4]([H:11])[n:5][n:6]1[H:12])([H:7])([H:8])[H:9]>>[C:1]([C@@:2]1([H:10])[C+:3]=[C:4]([H:11])[N-:5][N:6]1[H:12])([H:7])([H:8])[H:9]"
C       -1.64774137      -0.36119691      -0.20935720
C       -0.19880204      -0.17701090       0.14547107
C        0.89349798      -1.08899296      -0.12867374
C        1.98303283      -0.17224968      -0.17354674
N        1.63754417       1.10445422      -0.05298611
N        0.34520355       1.12428179       0.14124426
H       -2.29812377       0.26328607       0.40634748
H       -1.81367481      -0.11131274      -1.25764278
H       -1.92466038      -1.40311633      -0.06206529
H        0.10920194      -0.77439853       1.16906685
H        3.03387916      -0.40996350      -0.25143460
H       -0.11935727       2.00621948       0.27357681
12
Frame=5 idx=003209 GeodesicLength=0.3095149241860287 rxn_smarts="[C:1]([c:2]1[c:3]([H:10])[c:4]([H:11])[n:5][n:6]1[H:12])([H:7])([H:8])[H:9]>>[C:1]([C@@:2]1([H:10])[C+:3]=[C:4]([H:11])[N-:5][N:6]1[H:12])([H:7])([H:8])[H:9]"
C       -1.64698410      -0.35860718      -0.20982669
C       -0.20010093      -0.17459739       0.15338723
C        0.89192472      -1.08406727      -0.11750506
C        1.98099763      -0.17059041      -0.17961077
N        1.63473816       1.10729535      -0.06683724
N        0.34499687       1.12570479       0.14476455
H       -2.30016321       0.26315084       0.40571765
H       -1.80885358      -0.10481621      -1.25786833
H       -1.92483207      -1.40098017      -0.06753599
H        0.11635892      -0.80206816       1.17760694
H        3.03228283      -0.40937403      -0.24750089
H       -0.12036524       2.00894984       0.26520860
12
Frame=6 idx=003209 GeodesicLength=0.37146399316196993 rxn_smarts="[C:1]([c:2]1[c:3]([H:10])[c:4]([H:11])[n:5][n:6]1[H:12])([H:7])([H:8])[H:9]>>[C:1]([C@@:2]1([H:10])[C+:3]=[C:4]([H:11])[N-:5][N:6]1[H:12])([H:7])([H:8])[H:9]"
C       -1.64616874      -0.35595497      -0.21026254
C       -0.20141572      -0.17201543       0.16142615
C        0.89032994      -1.07898017      -0.10627538
C        1.97892899      -0.16902405      -0.18508249
N        1.63180595       1.11001871      -0.08067780
N        0.34480723       1.12729405       0.14786623
H       -2.30219732       0.26319063       0.40493041
H       -1.80393645      -0.09852036      -1.25809946
H       -1.92490016      -1.39873827      -0.07276123
H        0.12350492      -0.83029202       1.18582341
H        3.03056477      -0.40861644      -0.24388193
H       -0.12132340       2.01163832       0.25699462
12
Frame=7 idx=003209 GeodesicLength=0.4332387098076458 rxn_smarts="[C:1]([c:2]1[c:3]([H:10])[c:4]([H:11])[n:5][n:6]1[H:12])([H:7])([H:8])[H:9]>>[C:1]([C@@:2]1([H:10])[C+:3]=[C:4]([H:11])[N-:5][N:6]1[H:12])([H:7])([H:8])[H:9]"
C       -1.64529029      -0.35325042      -0.21065060
C       -0.20272858      -0.16925392       0.16959724
C        0.88872997      -1.07372111      -0.09501019
C        1.97684913      -0.16752077      -0.18992178
N        1.62878964       1.11265367      -0.09437139
N        0.34461544       1.12905786       0.15032987
H       -2.30421814       0.26343683       0.40395098
H       -1.79895181      -0.09251411      -1.25833516
H       -1.92486570      -1.39639360      -0.07764703
H        0.13051752      -0.85908757       1.19363784
H        3.02875647      -0.40771253      -0.24063233
H       -0.12220364       2.01430565       0.24905254
12
Frame=8 idx=003209 GeodesicLength=0.49514742732935146 rxn_smarts="[C:1]([c:2]1[c:3]([H:10])[c:4]([H:11])[n:5][n:6]1[H:12])([H:7])([H:8])[H:9]>>[C:1]([C@@:2]1([H:10])[C+:3]=[C:4]([H:11])[N-:5][N:6]1[H:12])([H:7])([H:8])[H:9]"
C       -1.64437221      -0.35048748      -0.21099374
C       -0.20406507      -0.16629678       0.17784725
C        0.88710494      -1.06829102      -0.08365355
C        1.97473860      -0.16607804      -0.19428526
N        1.62567067       1.11516847      -0.10802354
N        0.34441584       1.13100717       0.15230429
H       -2.30623649       0.26387609       0.40281980
H       -1.79392460      -0.08675598      -1.25858035
H       -1.92474284      -1.39395154      -0.08222366
H        0.13756610      -0.88850796       1.20102123
H        3.02687363      -0.40668023      -0.23754832
H       -0.12302859       2.01699730       0.24131585
12
Frame=9 idx=003209 GeodesicLength=0.5570625314447877 rxn_smarts="[C:1]([c:2]1[c:3]([H:10])[c:4]([H:11])[n:5][n:6]1[H:12])([H:7])([H:8])[H:9]>>[C:1]([C@@:2]1([H:10])[C+:3]=[C:4]([H:11])[N-:5][N:6]1[H:12])([H:7])([H:8])[H:9]"
C       -1.64341261      -0.34767341      -0.21127825
C       -0.20541330      -0.16313401       0.18618193
C        0.88546484      -1.06268039      -0.07220591
C        1.97261274      -0.16467328      -0.19814502
N        1.62249369       1.11759731      -0.12152471
N        0.34419932       1.13314825       0.15369386
H       -2.30825009       0.26451287       0.40153937
H       -1.78887383      -0.08128966      -1.25882925
H       -1.92453523      -1.39142201      -0.08644710
H        0.14456771      -0.91859696       1.20791543
H        3.02493187      -0.40554161      -0.23467859
H       -0.12378511       2.01975290       0.23377823
12
Frame=10 idx=003209 GeodesicLength=0.618703056448394 rxn_smarts="[C:1]([c:2]1[c:3]([H:10])[c:4]([H:11])[n:5][n:6]1[H:12])([H:7])([H:8])[H:9]>>[C:1]([C@@:2]1([H:10])[C+:3]=[C:4]([H:11])[N-:5][N:6]1[H:12])([H:7])([H:8])[H:9]"
C       -1.64240887      -0.34480808      -0.21147050
C       -0.20677067      -0.15976633       0.19461885
C        0.88379922      -1.05687402      -0.06078884
C        1.97048057      -0.16328258      -0.20152499
N        1.61928943       1.11995382      -0.13482927
N        0.34393011       1.13546245       0.15437511
H       -2.31024670       0.26538932       0.40010804
H       -1.78381466      -0.07619077      -1.25905632
H       -1.92425409      -1.38878559      -0.09021589
H        0.15151330      -0.94937506       1.21416899
H        3.02294988      -0.40430643      -0.23187385
H       -0.12446753       2.02258328       0.22648868
12
Frame=11 idx=003209 GeodesicLength=0.6803654700006065 rxn_smarts="[C:1]([c:2]1[c:3]([H:10])[c:4]([H:11])[n:5][n:6]1[H:12])([H:7])([H:8])[H:9]>>[C:1]([C@@:2]1([H:10])[C+:3]=[C:4]([H:11])[N-:5][N:6]1[H:12])([H:7])([H:8])[H:9]"
C       -1.64137095      -0.34188656      -0.21157551
C       -0.20814797      -0.15617099       0.20313913
C        0.88211027      -1.05087127      -0.04925837
C        1.96832983      -0.16190419      -0.20449387
N        1.61605236       1.12223077      -0.14795733
N        0.34362159       1.13797013       0.15451394
H       -2.31223646       0.26647672       0.39855742
H       -1.77875021      -0.07139916      -1.25926810
H       -1.92390071      -1.38605872      -0.09358081
H        0.15846272      -0.98094241       1.21977347
H        3.02092367      -0.40298303      -0.22913579
H       -0.12509413       2.02553871       0.21928582
12
Frame=12 idx=003209 GeodesicLength=0.742070683686163 rxn_smarts="[C:1]([c:2]1[c:3]([H:10])[c:4]([H:11])[n:5][n:6]1[H:12])([H:7])([H:8])[H:9]>>[C:1]([C@@:2]1([H:10])[C+:3]=[C:4]([H:11])[N-:5][N:6]1[H:12])([H:7])([H:8])[H:9]"
C       -1.64029810      -0.33889906      -0.21157387
C       -0.20954274      -0.15233756       0.21176348
C        0.88039720      -1.04466338      -0.03759821
C        1.96615933      -0.16052577      -0.20706318
N        1.61277244       1.12443228      -0.16099972
N        0.34327352       1.14066645       0.15415773
H       -2.31421976       0.26775836       0.39693068
H       -1.77368229      -0.06686561      -1.25943603
H       -1.92347002      -1.38323816      -0.09656393
H        0.16542828      -1.01338457       1.22466908
H        3.01886063      -0.40157196      -0.22636503
H       -0.12567849       2.02862897       0.21207901
12
Frame=13 idx=003209 GeodesicLength=0.8037880189075919 rxn_smarts="[C:1]([c:2]1[c:3]([H:10])[c:4]([H:11])[n:5][n:6]1[H:12])([H:7])([H:8])[H:9]>>[C:1]([C@@:2]1([H:10])[C+:3]=[C:4]([H:11])[N-:5][N:6]1[H:12])([H:7])([H:8])[H:9]"
C       -1.63919146      -0.33583369      -0.21142817
C       -0.21095190      -0.14826051       0.22051358
C        0.87865817      -1.03824418      -0.02582043
C        1.96397640      -0.15913617      -0.20923840
N        1.60944632       1.12656415      -0.17402212
N        0.34288718       1.14354634       0.15335314
H       -2.31619027       0.26920939       0.39531167
H       -1.76863100      -0.06251822      -1.25950479
H       -1.92295694      -1.38032176      -0.09918820
H        0.17241848      -1.04680901       1.22873708
H        3.01677463      -0.40006362      -0.22340943
H       -0.12623962       2.03186727       0.20469608
12
Frame=14 idx=003209 GeodesicLength=0.8655036408590107 rxn_smarts="[C:1]([c:2]1[c:3]([H:10])[c:4]([H:11])[n:5][n:6]1[H:12])([H:7])([H:8])[H:9]>>[C:1]([C@@:2]1([H:10])[C+:3]=[C:4]([H:11])[N-:5][N:6]1[H:12])([H:7])([H:8])[H:9]"
C       -1.63804638      -0.33268132      -0.21111561
C       -0.21237100      -0.14392910       0.22941756
C        0.87689236      -1.03160170      -0.01388340
C        1.96177640      -0.15772623      -0.21101837
N        1.60605595       1.12862192      -0.18707685
N        0.34246674       1.14660749       0.15214058
H       -2.31814004       0.27082852       0.39372904
H       -1.76359242      -0.05832772      -1.25944658
H       -1.92235902      -1.37730093      -0.10145383
H        0.17944124      -1.08129751       1.23186652
H        3.01466434      -0.39844588      -0.22019823
H       -0.12678817       2.03525243       0.19703916
12
Frame=15 idx=003209 GeodesicLength=0.9272165950928808 rxn_smarts="[C:1]([c:2]1[c:3]([H:10])[c:4]([H:11])[n:5][n:6]1[H:12])([H:7])([H:8])[H:9]>>[C:1]([C@@:2]1([H:10])[C+:3]=[C:4]([H:11])[N-:5][N:6]1[H:12])([H:7])([H:8])[H:9]"
C       -1.63686555      -0.32943976      -0.21062391
C       -0.21380558      -0.13932413       0.23849012
C        0.87510533      -1.02473651      -0.00172727
C        1.95956542      -0.15629222      -0.21241049
N        1.60260742       1.13060536      -0.20019162
N        0.34200765       1.14986459       0.15052548
H       -2.32008343       0.27263381       0.39218339
H       -1.75855604      -0.05431193      -1.25926326
H       -1.92168152      -1.37418146      -0.10332735
H        0.18649136      -1.11691600       1.23395790
H        3.01254186      -0.39671422      -0.21670437
H       -0.12732691       2.03881247       0.18909139
12
Frame=16 idx=003209 GeodesicLength=0.9889105993266593 rxn_smarts="[C:1]([c:2]1[c:3]([H:10])[c:4]([H:11])[n:5][n:6]1[H:12])([H:7])([H:8])[H:9]>>[C:1]([C@@:2]1([H:10])[C+:3]=[C:4]([H:11])[N-:5][N:6]1[H:12])([H:7])([H:8])[H:9]"
C       -1.63564113      -0.32610289      -0.20994282
C       -0.21525466      -0.13442186       0.24774570
C        0.87328994      -1.01761581       0.01072690
C        1.95732259      -0.15482512      -0.21340838
N        1.59908985       1.13249142      -0.21337126
N        0.34151048       1.15330335       0.14851585
H       -2.32200456       0.27463359       0.39065462
H       -1.75351711      -0.05050100      -1.25894209
H       -1.92091751      -1.37093794      -0.10477782
H        0.19358680      -1.15369115       1.23488104
H        3.01038024      -0.39485532      -0.21291356
H       -0.12784494       2.04252273       0.18083181
