15
Frame=0 idx=008484 GeodesicLength=0.0 rxn_smarts="[C:1]([O:2][C:3](=[O:4])[C:5]([C:6]([O:7][H:15])([H:13])[H:14])([H:11])[H:12])([H:8])([H:9])[H:10]>>[C:1]([O+:2]=[C-:3][O:4][C:5]([C:6]([O:7][H:15])([H:13])[H:14])([H:11])[H:12])([H:8])([H:9])[H:10]"
C       -2.60346035       0.30207308      -0.41745426
O       -2.04734472      -0.23091132       0.79895543
C       -0.90627975      -0.90354337       0.74413369
O       -0.36495316      -0.99314398      -0.41126275
C        0.90142349      -0.35911721       0.72237820
C        1.72399127       0.23937416      -0.40990636
O        2.88320463       0.81485558       0.15731629
H       -2.76371480      -0.48423254      -1.15413518
H       -3.55257664       0.74487185      -0.12781566
H       -1.94713179       1.06072827      -0.84422626
H        0.69506223       0.40773749       1.46789493
H        1.32885007      -1.24666922       1.17046319
H        1.96309554      -0.51755337      -1.15972042
H        1.17848366       1.04545704      -0.89865424
H        3.51135038       0.12007350       0.36203334
15
Frame=1 idx=008484 GeodesicLength=0.07736465095819928 rxn_smarts="[C:1]([O:2][C:3](=[O:4])[C:5]([C:6]([O:7][H:15])([H:13])[H:14])([H:11])[H:12])([H:8])([H:9])[H:10]>>[C:1]([O+:2]=[C-:3][O:4][C:5]([C:6]([O:7][H:15])([H:13])[H:14])([H:11])[H:12])([H:8])([H:9])[H:10]"
C       -2.65110879       0.28769866      -0.39882625
O       -2.05910487      -0.26409822       0.79153151
C       -0.90081815      -0.90104165       0.69747241
O       -0.36573813      -0.91833991      -0.46164408
C        0.89233800      -0.32749843       0.70647640
C        1.77096082       0.22664293      -0.40523148
O        2.92480876       0.78103933       0.19325320
H       -2.79385080      -0.47862693      -1.15982642
H       -3.61139818       0.68639339      -0.08315382
H       -2.02696173       1.08238117      -0.80788281
H        0.68211482       0.45920549       1.43027271
H        1.30275673      -1.20213173       1.19609923
H        2.00961124      -0.55286239      -1.13209616
H        1.26747410       1.03879973      -0.92892700
H        3.55891618       0.08243857       0.36248254
15
Frame=2 idx=008484 GeodesicLength=0.1486309569744843 rxn_smarts="[C:1]([O:2][C:3](=[O:4])[C:5]([C:6]([O:7][H:15])([H:13])[H:14])([H:11])[H:12])([H:8])([H:9])[H:10]>>[C:1]([O+:2]=[C-:3][O:4][C:5]([C:6]([O:7][H:15])([H:13])[H:14])([H:11])[H:12])([H:8])([H:9])[H:10]"
C       -2.69543322       0.27261885      -0.38038780
O       -2.06838500      -0.29860620       0.78207669
C       -0.89427959      -0.89757373       0.64917918
O       -0.36722746      -0.83967512      -0.50989277
C        0.88341493      -0.29510707       0.69048729
C        1.81479406       0.21264568      -0.39941366
O        2.96304411       0.74551719       0.22880750
H       -2.82080234      -0.47037308      -1.16720811
H       -3.66540622       0.62492439      -0.04013093
H       -2.10423652       1.10266590      -0.76749816
H        0.67031096       0.51179635       1.39119859
H        1.27546187      -1.15496189       1.22156730
H        2.04943329      -0.58921397      -1.10329705
H        1.35462507       1.02934721      -0.95594624
H        3.60468606       0.04599549       0.36045817
15
Frame=3 idx=008484 GeodesicLength=0.2143420974138201 rxn_smarts="[C:1]([O:2][C:3](=[O:4])[C:5]([C:6]([O:7][H:15])([H:13])[H:14])([H:11])[H:12])([H:8])([H:9])[H:10]>>[C:1]([O+:2]=[C-:3][O:4][C:5]([C:6]([O:7][H:15])([H:13])[H:14])([H:11])[H:12])([H:8])([H:9])[H:10]"
C       -2.73606557       0.25698465      -0.36240454
O       -2.07494795      -0.33415928       0.77041349
C       -0.88659830      -0.89313118       0.59949400
O       -0.36939395      -0.75776523      -0.55527393
C        0.87467360      -0.26221644       0.67490537
C        1.85499007       0.19739256      -0.39244074
O        2.99756603       0.70850191       0.26375313
H       -2.84446469      -0.45922008      -1.17620618
H       -3.71414007       0.56093127       0.00053700
H       -2.17831688       1.12123297      -0.72335829
H        0.66008879       0.56499535       1.35146582
H        1.24706983      -1.10553779       1.24691318
H        2.08221669      -0.62638015      -1.07351330
H        1.43879316       1.01690629      -0.97966707
H        3.64852925       0.01146516       0.35538207
15
Frame=4 idx=008484 GeodesicLength=0.2750953288395555 rxn_smarts="[C:1]([O:2][C:3](=[O:4])[C:5]([C:6]([O:7][H:15])([H:13])[H:14])([H:11])[H:12])([H:8])([H:9])[H:10]>>[C:1]([O+:2]=[C-:3][O:4][C:5]([C:6]([O:7][H:15])([H:13])[H:14])([H:11])[H:12])([H:8])([H:9])[H:10]"
C       -2.77322211       0.24032634      -0.34573940
O       -2.07823655      -0.36812749       0.75674294
C       -0.87787893      -0.88660593       0.54902176
O       -0.37216805      -0.67255149      -0.59675019
C        0.86641780      -0.22922355       0.66051286
C        1.89121637       0.18168999      -0.38390014
O        3.02884953       0.66927103       0.29840998
H       -2.86624391      -0.44792199      -1.18520054
H       -3.75709634       0.49609819       0.03804401
H       -2.24915747       1.13596035      -0.67953233
H        0.65290570       0.61736082       1.31339283
H        1.21776340      -1.05542991       1.27113870
H        2.10715365      -0.66238308      -1.04385493
H        1.51915481       1.00331959      -0.99809383
H        3.69054210      -0.02178287       0.34580829
15
Frame=5 idx=008484 GeodesicLength=0.3312206674175129 rxn_smarts="[C:1]([O:2][C:3](=[O:4])[C:5]([C:6]([O:7][H:15])([H:13])[H:14])([H:11])[H:12])([H:8])([H:9])[H:10]>>[C:1]([O+:2]=[C-:3][O:4][C:5]([C:6]([O:7][H:15])([H:13])[H:14])([H:11])[H:12])([H:8])([H:9])[H:10]"
C       -2.80540256       0.22389616      -0.32963805
O       -2.07916637      -0.40461181       0.74050147
C       -0.86799495      -0.88010996       0.49796662
O       -0.37549725      -0.58712755      -0.63399156
C        0.85786377      -0.19598139       0.64717699
C        1.92280163       0.16441070      -0.37472206
O        3.05541758       0.62962988       0.33123447
H       -2.88332481      -0.43143182      -1.19659034
H       -3.79389103       0.42968908       0.07189092
H       -2.31423932       1.14949696      -0.62997414
H        0.64701867       0.67009234       1.27525220
H        1.18736790      -1.00317448       1.29575121
H        2.12520577      -0.69967279      -1.01313478
H        1.59414675       0.98544558      -1.01483551
H        3.72969421      -0.05055092       0.33311256
15
Frame=6 idx=008484 GeodesicLength=0.38367811489678705 rxn_smarts="[C:1]([O:2][C:3](=[O:4])[C:5]([C:6]([O:7][H:15])([H:13])[H:14])([H:11])[H:12])([H:8])([H:9])[H:10]>>[C:1]([O+:2]=[C-:3][O:4][C:5]([C:6]([O:7][H:15])([H:13])[H:14])([H:11])[H:12])([H:8])([H:9])[H:10]"
C       -2.83395373       0.20690624      -0.31541138
O       -2.07696240      -0.43814483       0.72261135
C       -0.85718915      -0.87105849       0.44739607
O       -0.37931879      -0.50050747      -0.66602146
C        0.84992082      -0.16321685       0.63580908
C        1.95002423       0.14688326      -0.36426403
O        3.07874675       0.58806265       0.36312866
H       -2.89853127      -0.41539248      -1.20747782
H       -3.82502951       0.36378080       0.10148558
H       -2.37548039       1.15902630      -0.58255716
H        0.64520300       0.72075062       1.24090720
H        1.15665923      -0.95200603       1.31866911
H        2.13588155      -0.73523683      -0.98314751
H        1.66341237       0.96660521      -1.02673588
H        3.76661729      -0.07645210       0.31560818
15
Frame=7 idx=008484 GeodesicLength=0.4334525782427554 rxn_smarts="[C:1]([O:2][C:3](=[O:4])[C:5]([C:6]([O:7][H:15])([H:13])[H:14])([H:11])[H:12])([H:8])([H:9])[H:10]>>[C:1]([O+:2]=[C-:3][O:4][C:5]([C:6]([O:7][H:15])([H:13])[H:14])([H:11])[H:12])([H:8])([H:9])[H:10]"
C       -2.85877968       0.18974129      -0.30274280
O       -2.07229664      -0.47022067       0.70299060
C       -0.84551723      -0.85996584       0.39746397
O       -0.38359274      -0.41366534      -0.69285620
C        0.84230444      -0.13066928       0.62632592
C        1.97306845       0.12862532      -0.35296435
O        3.09879435       0.54485076       0.39363161
H       -2.91096644      -0.39802243      -1.21878033
H       -3.85102117       0.29771893       0.12670665
H       -2.43259532       1.16567972      -0.53499049
H        0.64683904       0.77005657       1.20973742
H        1.12550921      -0.90141798       1.34049732
H        2.14012827      -0.77016349      -0.95338062
H        1.72700982       0.94568128      -1.03554584
H        3.80111564      -0.09822885       0.29390716
15
Frame=8 idx=008484 GeodesicLength=0.48149213414024616 rxn_smarts="[C:1]([O:2][C:3](=[O:4])[C:5]([C:6]([O:7][H:15])([H:13])[H:14])([H:11])[H:12])([H:8])([H:9])[H:10]>>[C:1]([O+:2]=[C-:3][O:4][C:5]([C:6]([O:7][H:15])([H:13])[H:14])([H:11])[H:12])([H:8])([H:9])[H:10]"
C       -2.87998322       0.17251163      -0.29128241
O       -2.06538268      -0.50194917       0.68140527
C       -0.83282153      -0.84710354       0.34802058
O       -0.38824471      -0.32712007      -0.71478381
C        0.83487852      -0.09792263       0.61839916
C        1.99216664       0.10937699      -0.34120599
O        3.11568755       0.50015655       0.42233634
H       -2.92038883      -0.37803796      -1.23078288
H       -3.87222313       0.23101010       0.14763239
H       -2.48562229       1.16985463      -0.48550169
H        0.65156653       0.81875223       1.18088077
H        1.09382655      -0.85075342       1.36146290
H        2.13869168      -0.80511389      -0.92344057
H        1.78522196       0.92196090      -1.04262306
H        3.83262695      -0.11562234       0.26948300
15
Frame=9 idx=008484 GeodesicLength=0.5282134558952349 rxn_smarts="[C:1]([O:2][C:3](=[O:4])[C:5]([C:6]([O:7][H:15])([H:13])[H:14])([H:11])[H:12])([H:8])([H:9])[H:10]>>[C:1]([O+:2]=[C-:3][O:4][C:5]([C:6]([O:7][H:15])([H:13])[H:14])([H:11])[H:12])([H:8])([H:9])[H:10]"
C       -2.89821219       0.15491996      -0.28184903
O       -2.05629010      -0.53025142       0.65905966
C       -0.81951772      -0.83120719       0.30045377
O       -0.39324931      -0.24087258      -0.73100371
C        0.82819921      -0.06552936       0.61265116
C        2.00750011       0.08993797      -0.32889666
O        3.13026603       0.45300891       0.44938954
H       -2.92786754      -0.35902997      -1.24229918
H       -3.88903577       0.16524926       0.16396698
H       -2.53537937       1.17056560      -0.43894305
H        0.66075711       0.86540727       1.15669771
H        1.06256877      -0.80217244       1.38073857
H        2.13149599      -0.83837214      -0.89472039
H        1.83764282       0.89754686      -1.04657269
H        3.86112199      -0.12920072       0.24132731
15
Frame=10 idx=008484 GeodesicLength=0.5740318576258537 rxn_smarts="[C:1]([O:2][C:3](=[O:4])[C:5]([C:6]([O:7][H:15])([H:13])[H:14])([H:11])[H:12])([H:8])([H:9])[H:10]>>[C:1]([O+:2]=[C-:3][O:4][C:5]([C:6]([O:7][H:15])([H:13])[H:14])([H:11])[H:12])([H:8])([H:9])[H:10]"
C       -2.91294643       0.13788741      -0.27354978
O       -2.04544763      -0.55781548       0.63532168
C       -0.80556208      -0.81397074       0.25435619
O       -0.39856601      -0.15729791      -0.74264070
C        0.82179022      -0.03362629       0.60818329
C        2.01916714       0.06962339      -0.31670468
O        3.14170197       0.40532804       0.47414661
H       -2.93274170      -0.33743829      -1.25399408
H       -3.90139513       0.10040895       0.17607583
H       -2.58052935       1.16911878      -0.39126103
H        0.67286025       0.91049440       1.13496175
H        1.03154800      -0.75470045       1.39880087
H        2.12015101      -0.87159990      -0.86598551
H        1.88398039       0.87029590      -1.05005973
H        3.88598936      -0.13670780       0.21234928
15
Frame=11 idx=008484 GeodesicLength=0.6198121751111009 rxn_smarts="[C:1]([O:2][C:3](=[O:4])[C:5]([C:6]([O:7][H:15])([H:13])[H:14])([H:11])[H:12])([H:8])([H:9])[H:10]>>[C:1]([O+:2]=[C-:3][O:4][C:5]([C:6]([O:7][H:15])([H:13])[H:14])([H:11])[H:12])([H:8])([H:9])[H:10]"
C       -2.92571157       0.12023283      -0.26758153
O       -2.03291959      -0.58031360       0.61209346
C       -0.79129274      -0.79259114       0.21126284
O       -0.40421691      -0.07333769      -0.74826088
C        0.81672483      -0.00205101       0.60601799
C        2.02780556       0.04938350      -0.30437813
O        3.15189895       0.35401257       0.49686456
H       -2.93595594      -0.31886450      -1.26496354
H       -3.91058643       0.03624787       0.18358982
H       -2.62431160       1.16439039      -0.34880385
H        0.69028086       0.95328984       1.11861097
H        1.00196893      -0.71004454       1.41526057
H        2.10372740      -0.90262491      -0.83940178
H        1.92509951       0.84347268      -1.05072513
H        3.90748874      -0.14120227       0.18041462
15
Frame=12 idx=008484 GeodesicLength=0.6651021724365288 rxn_smarts="[C:1]([O:2][C:3](=[O:4])[C:5]([C:6]([O:7][H:15])([H:13])[H:14])([H:11])[H:12])([H:8])([H:9])[H:10]>>[C:1]([O+:2]=[C-:3][O:4][C:5]([C:6]([O:7][H:15])([H:13])[H:14])([H:11])[H:12])([H:8])([H:9])[H:10]"
C       -2.93498462       0.10374923      -0.26197532
O       -2.01893309      -0.60334260       0.58746915
C       -0.77649423      -0.77136075       0.16948656
O       -0.41007422       0.00557653      -0.75087858
C        0.81177107       0.02863787       0.60402342
C        2.03327473       0.02849203      -0.29296068
O        3.15874225       0.30427272       0.51675634
H       -2.93714456      -0.29650180      -1.27566421
H       -3.91546420      -0.02566938       0.18801971
H       -2.66252362       1.15808488      -0.30391325
H        0.70925930       0.99426304       1.10288841
H        0.97303641      -0.66635431       1.43031105
H        2.08505969      -0.93383059      -0.81266592
H        1.96007269       0.81355776      -1.05286490
H        3.92440239      -0.13957464       0.15196823
15
Frame=13 idx=008484 GeodesicLength=0.7108344194832682 rxn_smarts="[C:1]([O:2][C:3](=[O:4])[C:5]([C:6]([O:7][H:15])([H:13])[H:14])([H:11])[H:12])([H:8])([H:9])[H:10]>>[C:1]([O+:2]=[C-:3][O:4][C:5]([C:6]([O:7][H:15])([H:13])[H:14])([H:11])[H:12])([H:8])([H:9])[H:10]"
C       -2.94258100       0.08691881      -0.25854584
O       -2.00379534      -0.62130639       0.56414941
C       -0.76172726      -0.74656518       0.13127459
O       -0.41620318       0.08401358      -0.74793548
C        0.80829077       0.05858908       0.60404415
C        2.03620588       0.00775840      -0.28184937
O        3.16455165       0.25140366       0.53417999
H       -2.93684916      -0.27765396      -1.28562536
H       -3.91766250      -0.08602352       0.18851881
H       -2.69945127       1.14917169      -0.26491855
H        0.73304106       1.03248765       1.09196903
H        0.94618352      -0.62574128       1.44410317
H        2.06237551      -0.96290657      -0.78828058
H        1.98999142       0.78432463      -1.05315444
H        3.93762991      -0.13447059       0.12207045
15
Frame=14 idx=008484 GeodesicLength=0.7565695272078109 rxn_smarts="[C:1]([O:2][C:3](=[O:4])[C:5]([C:6]([O:7][H:15])([H:13])[H:14])([H:11])[H:12])([H:8])([H:9])[H:10]>>[C:1]([O+:2]=[C-:3][O:4][C:5]([C:6]([O:7][H:15])([H:13])[H:14])([H:11])[H:12])([H:8])([H:9])[H:10]"
C       -2.94756951       0.07117249      -0.25554320
O       -1.98758965      -0.63860861       0.54035658
C       -0.74680781      -0.72169120       0.09477057
O       -0.42250093       0.15782233      -0.74247876
C        0.80527080       0.08729011       0.60411489
C        2.03675351      -0.01332010      -0.27176162
O        3.16783814       0.19974975       0.54902603
H       -2.93534306      -0.25686767      -1.29485971
H       -3.91653167      -0.14361188       0.18664573
H       -2.73201464       1.13892984      -0.22561620
H        0.75839363       1.06826266       1.08178820
H        0.92055604      -0.58678229       1.45649803
H        2.03820320      -0.99170612      -0.76433672
H        2.01456300       0.75315212      -1.05477178
H        3.94677895      -0.12379142       0.09616796
15
Frame=15 idx=008484 GeodesicLength=0.8023890504728591 rxn_smarts="[C:1]([O:2][C:3](=[O:4])[C:5]([C:6]([O:7][H:15])([H:13])[H:14])([H:11])[H:12])([H:8])([H:9])[H:10]>>[C:1]([O+:2]=[C-:3][O:4][C:5]([C:6]([O:7][H:15])([H:13])[H:14])([H:11])[H:12])([H:8])([H:9])[H:10]"
C       -2.95052617       0.05607246      -0.25328594
O       -1.97048694      -0.65406697       0.51683640
C       -0.73189419      -0.69608231       0.06042200
O       -0.42894596       0.22806177      -0.73418901
C        0.80304002       0.11479968       0.60450186
C        2.03528421      -0.03426409      -0.26267823
O        3.16936110       0.14896753       0.56116798
H       -2.93293158      -0.23618017      -1.30318435
H       -3.91269125      -0.19835117       0.18266561
H       -2.76126000       1.12718718      -0.18809110
H        0.78573260       1.10136567       1.07306469
H        0.89665204      -0.54987271       1.46750993
H        2.01246868      -1.01944090      -0.74151617
H        2.03421571       0.72127956      -1.05714517
H        3.95198174      -0.10947554       0.07392149
15
Frame=16 idx=008484 GeodesicLength=0.8486290930102726 rxn_smarts="[C:1]([O:2][C:3](=[O:4])[C:5]([C:6]([O:7][H:15])([H:13])[H:14])([H:11])[H:12])([H:8])([H:9])[H:10]>>[C:1]([O+:2]=[C-:3][O:4][C:5]([C:6]([O:7][H:15])([H:13])[H:14])([H:11])[H:12])([H:8])([H:9])[H:10]"
C       -2.95181867       0.04157316      -0.25190238
O       -1.95271327      -0.66723578       0.49397346
C       -0.71715468      -0.66946439       0.02838359
O       -0.43551903       0.29543776      -0.72294849
C        0.80175689       0.14101618       0.60536316
C        2.03206456      -0.05536117      -0.25449082
O        3.16952468       0.09822227       0.57075180
H       -2.92963855      -0.21613821      -1.31075922
H       -3.90659582      -0.25051943       0.17661008
H       -2.78794593       1.11424839      -0.15301446
H        0.81531005       1.13167449       1.06590966
H        0.87454186      -0.51515212       1.47745146
H        1.98513979      -1.04644450      -0.71973119
H        2.04941054       0.68867705      -1.06014471
H        3.95363757      -0.09053369       0.05454805
