16
Frame=0 idx=004903 GeodesicLength=0.0 rxn_smarts="[C:1]([C:2]([C@@:3]1([C:4]([H:12])([H:13])[H:14])[C:5]([H:15])([H:16])[O:6]1)([H:10])[H:11])([H:7])([H:8])[H:9]>>[C:1](=[C:2]([H:10])[H:11])([H:8])[H:9].[C:3]([C:4]([H:12])([H:13])[H:14])([C:5]([H:7])([H:15])[H:16])=[O:6]"
C        1.51868523       0.52663543       0.39963485
C        0.90749031       0.26463719      -0.88707630
C       -0.70710195      -0.03430271      -0.47524293
C       -0.80395642      -1.51129293      -0.07657187
C       -0.83359108       0.91773499       0.69117640
O       -1.62661288       0.39176840      -1.26706863
H        0.37277075       0.72276746       1.15914819
H        1.98928338       1.48389894       0.59776291
H        1.94656342      -0.30287721       0.95562447
H        1.26194648      -0.63585570      -1.38122131
H        0.90104712       1.11501344      -1.56374135
H       -0.74258222      -2.12138689      -0.97820650
H       -0.02478690      -1.82961686       0.62127072
H       -1.77921607      -1.68545850       0.38242501
H       -0.75513562       1.96254479       0.40097685
H       -1.62480355       0.73579014       1.42110954
16
Frame=1 idx=004903 GeodesicLength=0.11486542834681966 rxn_smarts="[C:1]([C:2]([C@@:3]1([C:4]([H:12])([H:13])[H:14])[C:5]([H:15])([H:16])[O:6]1)([H:10])[H:11])([H:7])([H:8])[H:9]>>[C:1](=[C:2]([H:10])[H:11])([H:8])[H:9].[C:3]([C:4]([H:12])([H:13])[H:14])([C:5]([H:7])([H:15])[H:16])=[O:6]"
C        1.53570202       0.52913732       0.39889928
C        0.92590439       0.26387347      -0.88649473
C       -0.71052401      -0.04008462      -0.47307575
C       -0.81570429      -1.51483158      -0.07570929
C       -0.85193543       0.91593186       0.68580796
O       -1.62987009       0.40444841      -1.25568755
H        0.37500337       0.71922161       1.16596610
H        1.99481110       1.49284363       0.59417138
H        1.98783171      -0.29547317       0.94279158
H        1.27676909      -0.63742653      -1.38178306
H        0.91276250       1.11374045      -1.56382308
H       -0.75494800      -2.12433655      -0.97773928
H       -0.03820459      -1.83205993       0.62441243
H       -1.79083361      -1.68758470       0.38399988
H       -0.77430888       1.96285821       0.40299467
H       -1.64245528       0.72974211       1.41526946
16
Frame=2 idx=004903 GeodesicLength=0.2296817798212735 rxn_smarts="[C:1]([C:2]([C@@:3]1([C:4]([H:12])([H:13])[H:14])[C:5]([H:15])([H:16])[O:6]1)([H:10])[H:11])([H:7])([H:8])[H:9]>>[C:1](=[C:2]([H:10])[H:11])([H:8])[H:9].[C:3]([C:4]([H:12])([H:13])[H:14])([C:5]([H:7])([H:15])[H:16])=[O:6]"
C        1.55312931       0.53141308       0.39823477
C        0.94449395       0.26316885      -0.88577125
C       -0.71432258      -0.04576796      -0.47078393
C       -0.82769920      -1.51828174      -0.07474805
C       -0.87074778       0.91420509       0.68034481
O       -1.63289580       0.41666389      -1.24480113
H        0.37740082       0.71528403       1.17304898
H        2.00043798       1.50151364       0.59076818
H        2.03026853      -0.28755061       0.92910077
H        1.29161123      -0.63889074      -1.38237901
H        0.92451727       1.11259866      -1.56360466
H       -0.76734884      -2.12728993      -0.97709697
H       -0.05189831      -1.83436644       0.62769401
H       -1.80273532      -1.68969016       0.38556298
H       -0.79367496       1.96321041       0.40508682
H       -1.66053629       0.72377990       1.40934368
16
Frame=3 idx=004903 GeodesicLength=0.344462936127958 rxn_smarts="[C:1]([C:2]([C@@:3]1([C:4]([H:12])([H:13])[H:14])[C:5]([H:15])([H:16])[O:6]1)([H:10])[H:11])([H:7])([H:8])[H:9]>>[C:1](=[C:2]([H:10])[H:11])([H:8])[H:9].[C:3]([C:4]([H:12])([H:13])[H:14])([C:5]([H:7])([H:15])[H:16])=[O:6]"
C        1.57099590       0.53343693       0.39765208
C        0.96327521       0.26251874      -0.88489849
C       -0.71850191      -0.05135420      -0.46835502
C       -0.83994674      -1.52164406      -0.07367963
C       -0.89005470       0.91256214       0.67477862
O       -1.63570100       0.42842204      -1.23442211
H        0.37997957       0.71092290       1.18041200
H        2.00616606       1.50987979       0.58758719
H        2.07392582      -0.27904934       0.91448012
H        1.30647448      -0.64024841      -1.38301124
H        0.93631817       1.11159281      -1.56306252
H       -0.77979101      -2.13024564      -0.97627279
H       -0.06587370      -1.83653272       0.63112439
H       -1.81492849      -1.69177508       0.38712016
H       -0.81325580       1.96360249       0.40723264
H       -1.67908187       0.71791160       1.40331459
16
Frame=4 idx=004903 GeodesicLength=0.4592191944845134 rxn_smarts="[C:1]([C:2]([C@@:3]1([C:4]([H:12])([H:13])[H:14])[C:5]([H:15])([H:16])[O:6]1)([H:10])[H:11])([H:7])([H:8])[H:9]>>[C:1](=[C:2]([H:10])[H:11])([H:8])[H:9].[C:3]([C:4]([H:12])([H:13])[H:14])([C:5]([H:7])([H:15])[H:16])=[O:6]"
C        1.58933354       0.53518051       0.39716217
C        0.98226598       0.26191786      -0.88386872
C       -0.72306561      -0.05684512      -0.46577476
C       -0.85245290      -1.52491999      -0.07249474
C       -0.90988331       0.91100962       0.66910161
O       -1.63829732       0.43973342      -1.22456213
H        0.38275759       0.70610483       1.18806954
H        2.01199772       1.51790991       0.58466513
H        2.11885366      -0.26989989       0.89885085
H        1.32136121      -0.64150005      -1.38368217
H        0.94817308       1.11072677      -1.56217069
H       -0.79228109      -2.13320267      -0.97525968
H       -0.08013666      -1.83855606       0.63471354
H       -1.82742125      -1.69383964       0.38867795
H       -0.83307329       1.96403451       0.40941099
H       -1.69813135       0.71214599       1.39716111
16
Frame=5 idx=004903 GeodesicLength=0.5739562852114417 rxn_smarts="[C:1]([C:2]([C@@:3]1([C:4]([H:12])([H:13])[H:14])[C:5]([H:15])([H:16])[O:6]1)([H:10])[H:11])([H:7])([H:8])[H:9]>>[C:1](=[C:2]([H:10])[H:11])([H:8])[H:9].[C:3]([C:4]([H:12])([H:13])[H:14])([C:5]([H:7])([H:15])[H:16])=[O:6]"
C        1.60818094       0.53661038       0.39677023
C        1.00148417       0.26135844      -0.88267589
C       -0.72801833      -0.06224125      -0.46303090
C       -0.86522402      -1.52810947      -0.07118615
C       -0.93025897       0.90955148       0.66330486
O       -1.64069053       0.45060658      -1.21522857
H        0.38575586       0.70079649       1.19603730
H        2.01793377       1.52557405       0.58203130
H        2.16507755      -0.26001693       0.88214736
H        1.33627347      -0.64264985      -1.38439647
H        0.96009096       1.11000439      -1.56090332
H       -0.80482706      -2.13615811      -0.97405193
H       -0.09469377      -1.84043473       0.63846909
H       -1.84022160      -1.69588340       0.39024137
H       -0.85314364       1.96450442       0.41160613
H       -1.71771879       0.70648752       1.39086559
16
Frame=6 idx=004903 GeodesicLength=0.6886847797982627 rxn_smarts="[C:1]([C:2]([C@@:3]1([C:4]([H:12])([H:13])[H:14])[C:5]([H:15])([H:16])[O:6]1)([H:10])[H:11])([H:7])([H:8])[H:9]>>[C:1](=[C:2]([H:10])[H:11])([H:8])[H:9].[C:3]([C:4]([H:12])([H:13])[H:14])([C:5]([H:7])([H:15])[H:16])=[O:6]"
C        1.62757650       0.53769247       0.39648828
C        1.02094923       0.26083364      -0.88131017
C       -0.73336353      -0.06754386      -0.46010718
C       -0.87826726      -1.53121345      -0.06974218
C       -0.95121225       0.90819581       0.65737736
O       -1.64288983       0.46105331      -1.20643061
H        0.38899900       0.69495022       1.20433028
H        2.02397680       1.53282752       0.57973512
H        2.21264368      -0.24930643       0.86426964
H        1.35121414      -0.64369666      -1.38515528
H        0.97208081       1.10942874      -1.55922984
H       -0.81743596      -2.13911082      -0.97263972
H       -0.10955292      -1.84216596       0.64240315
H       -1.85333805      -1.69790611       0.39181900
H       -0.87349070       1.96501367       0.41379164
H       -1.73788965       0.70094792       1.38440050
16
Frame=7 idx=004903 GeodesicLength=0.803412450320369 rxn_smarts="[C:1]([C:2]([C@@:3]1([C:4]([H:12])([H:13])[H:14])[C:5]([H:15])([H:16])[O:6]1)([H:10])[H:11])([H:7])([H:8])[H:9]>>[C:1](=[C:2]([H:10])[H:11])([H:8])[H:9].[C:3]([C:4]([H:12])([H:13])[H:14])([C:5]([H:7])([H:15])[H:16])=[O:6]"
C        1.64756629       0.53838686       0.39632124
C        1.04068138       0.26033346      -0.87976478
C       -0.73910499      -0.07275274      -0.45698937
C       -0.89158933      -1.53423136      -0.06815373
C       -0.97277114       0.90694832       0.65130550
O       -1.64489885       0.47108350      -1.19816973
H        0.39251426       0.68851838       1.21296636
H        2.03012614       1.53962895       0.57781625
H        2.26156960      -0.23766085       0.84513686
H        1.36618644      -0.64464349      -1.38596392
H        0.98415181       1.10900269      -1.55711974
H       -0.83011622      -2.14205724      -0.97101488
H       -0.12472159      -1.84374705       0.64652517
H       -1.86677883      -1.69990642       0.39341717
H       -0.89413316       1.96556224       0.41594590
H       -1.75868180       0.69553475       1.37774169
16
Frame=8 idx=004903 GeodesicLength=0.9181345844372124 rxn_smarts="[C:1]([C:2]([C@@:3]1([C:4]([H:12])([H:13])[H:14])[C:5]([H:15])([H:16])[O:6]1)([H:10])[H:11])([H:7])([H:8])[H:9]>>[C:1](=[C:2]([H:10])[H:11])([H:8])[H:9].[C:3]([C:4]([H:12])([H:13])[H:14])([C:5]([H:7])([H:15])[H:16])=[O:6]"
C        1.66819888       0.53864640       0.39627770
C        1.06070230       0.25984494      -0.87803118
C       -0.74524676      -0.07786600      -0.45366104
C       -0.90519801      -1.53716293      -0.06641068
C       -0.99496046       0.90581688       0.64507670
O       -1.64672240       0.48070745      -1.19044587
H        0.39632742       0.68144504       1.22196210
H        2.03637793       1.54592932       0.57632222
H        2.31187706      -0.22495317       0.82465717
H        1.38119555      -0.64549266      -1.38682833
H        0.99631214       1.10872739      -1.55454097
H       -0.84287831      -2.14499415      -0.96916893
H       -0.14020790      -1.84517601       0.65084424
H       -1.88055275      -1.70188283       0.39504385
H       -0.91508816       1.96615002       0.41804584
H       -1.78013654       0.69026030       1.37085719
16
Frame=9 idx=004903 GeodesicLength=1.033017940735033 rxn_smarts="[C:1]([C:2]([C@@:3]1([C:4]([H:12])([H:13])[H:14])[C:5]([H:15])([H:16])[O:6]1)([H:10])[H:11])([H:7])([H:8])[H:9]>>[C:1](=[C:2]([H:10])[H:11])([H:8])[H:9].[C:3]([C:4]([H:12])([H:13])[H:14])([C:5]([H:7])([H:15])[H:16])=[O:6]"
C        1.68958101       0.53843566       0.39631623
C        1.08104394       0.25937016      -0.87610318
C       -0.75179888      -0.08288524      -0.45009885
C       -0.91909982      -1.54000384      -0.06448764
C       -1.01785514       0.90481165       0.63865752
O       -1.64834260       0.48994888      -1.18327040
H        0.40054855       0.67357799       1.23132378
H        2.04273472       1.55165835       0.57532108
H        2.36347222      -0.21101031       0.80270205
H        1.39624655      -0.64624371      -1.38774882
H        1.00858377       1.10861406      -1.55143923
H       -0.85571305      -2.14792095      -0.96707210
H       -0.15602256      -1.84644312       0.65539880
H       -1.89467223      -1.70382974       0.39671481
H       -0.93637419       1.96678712       0.42007160
H       -1.80233230       0.68513305       1.36371436
16
Frame=10 idx=004903 GeodesicLength=1.1478905083050317 rxn_smarts="[C:1]([C:2]([C@@:3]1([C:4]([H:12])([H:13])[H:14])[C:5]([H:15])([H:16])[O:6]1)([H:10])[H:11])([H:7])([H:8])[H:9]>>[C:1](=[C:2]([H:10])[H:11])([H:8])[H:9].[C:3]([C:4]([H:12])([H:13])[H:14])([C:5]([H:7])([H:15])[H:16])=[O:6]"
C        1.71172409       0.53771338       0.39646598
C        1.10171898       0.25888801      -0.87397945
C       -0.75875712      -0.08780438      -0.44628955
C       -0.93329955      -1.54275430      -0.06238474
C       -1.04144005       0.90393366       0.63205046
O       -1.64977861       0.49880800      -1.17663549
H        0.40515638       0.66493686       1.24106880
H        2.04920307       1.55677638       0.57484767
H        2.41640351      -0.19575010       0.77923692
H        1.41134370      -0.64690343      -1.38873961
H        1.02096406       1.10865761      -1.54780710
H       -0.86864213      -2.15082976      -0.96473072
H       -0.17216764      -1.84755124       0.66017689
H       -1.90913885      -1.70574766       0.39843417
H       -0.95801162       1.96746441       0.42199868
H       -1.82527823       0.68016256       1.35628709
16
Frame=11 idx=004903 GeodesicLength=1.2627570046543124 rxn_smarts="[C:1]([C:2]([C@@:3]1([C:4]([H:12])([H:13])[H:14])[C:5]([H:15])([H:16])[O:6]1)([H:10])[H:11])([H:7])([H:8])[H:9]>>[C:1](=[C:2]([H:10])[H:11])([H:8])[H:9].[C:3]([C:4]([H:12])([H:13])[H:14])([C:5]([H:7])([H:15])[H:16])=[O:6]"
C        1.73469794       0.53644245       0.39671064
C        1.12275534       0.25839012      -0.87166039
C       -0.76612204      -0.09262209      -0.44221143
C       -0.94780045      -1.54541233      -0.06008716
C       -1.06574881       0.90318653       0.62523932
O       -1.65102904       0.50730361      -1.17054536
H        0.41020971       0.65544932       1.25120441
H        2.05579473       1.56122512       0.57495376
H        2.47059833      -0.17903619       0.75418418
H        1.42649216      -0.64747553      -1.38980844
H        1.03346614       1.10885979      -1.54361386
H       -0.88166614      -2.15371592      -0.96213151
H       -0.18864977      -1.84849794       0.66519715
H       -1.92395914      -1.70763378       0.40021189
H       -0.98001829       1.96818178       0.42380763
H       -1.84902068       0.67535508       1.34854919
16
Frame=12 idx=004903 GeodesicLength=1.377601716682434 rxn_smarts="[C:1]([C:2]([C@@:3]1([C:4]([H:12])([H:13])[H:14])[C:5]([H:15])([H:16])[O:6]1)([H:10])[H:11])([H:7])([H:8])[H:9]>>[C:1](=[C:2]([H:10])[H:11])([H:8])[H:9].[C:3]([C:4]([H:12])([H:13])[H:14])([C:5]([H:7])([H:15])[H:16])=[O:6]"
C        1.75857763       0.53458625       0.39702702
C        1.14417930       0.25786673      -0.86915093
C       -0.77389298      -0.09733312      -0.43784224
C       -0.96260170      -1.54797397      -0.05757989
C       -1.09080770       0.90257594       0.61820880
O       -1.65209235       0.51544975      -1.16499264
H        0.41576527       0.64504581       1.26173689
H        2.06252254       1.56494345       0.57568677
H        2.52595435      -0.16074769       0.72749177
H        1.44169977      -0.64795850      -1.39097251
H        1.04609846       1.10922382      -1.53883235
H       -0.89478511      -2.15657241      -0.95926035
H       -0.20546863      -1.84927760       0.67047459
H       -1.93913257      -1.70948607       0.40206142
H       -1.00241314       1.96893917       0.42547826
H       -1.87360316       0.67071845       1.34046540
16
Frame=13 idx=004903 GeodesicLength=1.4923965684248135 rxn_smarts="[C:1]([C:2]([C@@:3]1([C:4]([H:12])([H:13])[H:14])[C:5]([H:15])([H:16])[O:6]1)([H:10])[H:11])([H:7])([H:8])[H:9]>>[C:1](=[C:2]([H:10])[H:11])([H:8])[H:9].[C:3]([C:4]([H:12])([H:13])[H:14])([C:5]([H:7])([H:15])[H:16])=[O:6]"
C        1.78345170       0.53210656       0.39737965
C        1.16601650       0.25730888      -0.86646108
C       -0.78207027      -0.10192894      -0.43316279
C       -0.97769839      -1.55043180      -0.05484980
C       -1.11663471       0.90210741       0.61093952
O       -1.65296054       0.52324969      -1.15996322
H        0.42188586       0.63365756       1.27267153
H        2.06939957       1.56787097       0.57709118
H        2.58230339      -0.14076632       0.69914741
H        1.45697639      -0.64835483      -1.39226043
H        1.05885714       1.10975766      -1.53344208
H       -0.90799934      -2.15938853      -0.95610326
H       -0.22261764      -1.84987892       0.67601834
H       -1.95465183      -1.71130140       0.40399721
H       -1.02520677       1.96973336       0.42699072
H       -1.89905107       0.66625863       1.33200711
16
Frame=14 idx=004903 GeodesicLength=1.6071399236644799 rxn_smarts="[C:1]([C:2]([C@@:3]1([C:4]([H:12])([H:13])[H:14])[C:5]([H:15])([H:16])[O:6]1)([H:10])[H:11])([H:7])([H:8])[H:9]>>[C:1](=[C:2]([H:10])[H:11])([H:8])[H:9].[C:3]([C:4]([H:12])([H:13])[H:14])([C:5]([H:7])([H:15])[H:16])=[O:6]"
C        1.80940364       0.52896553       0.39773086
C        1.18829828       0.25671051      -0.86360186
C       -0.79065136      -0.10640277      -0.42814343
C       -0.99308609      -1.55278156      -0.05187376
C       -1.14326882       0.90179015       0.60340886
O       -1.65363132       0.53072430      -1.15545617
H        0.42864969       0.62118492       1.28400605
H        2.07645227       1.56992514       0.57923196
H        2.63950382      -0.11895738       0.66909225
H        1.47232973      -0.64865550      -1.39369266
H        1.07175615       1.11046640      -1.52741097
H       -0.92129935      -2.16215914      -0.95263853
H       -0.24009396      -1.85029493       0.68185564
H       -1.97051461      -1.71307728       0.40603877
H       -1.04842403       1.97057192       0.42832114
H       -1.92542404       0.66198969       1.32313188
16
Frame=15 idx=004903 GeodesicLength=1.7218098149560979 rxn_smarts="[C:1]([C:2]([C@@:3]1([C:4]([H:12])([H:13])[H:14])[C:5]([H:15])([H:16])[O:6]1)([H:10])[H:11])([H:7])([H:8])[H:9]>>[C:1](=[C:2]([H:10])[H:11])([H:8])[H:9].[C:3]([C:4]([H:12])([H:13])[H:14])([C:5]([H:7])([H:15])[H:16])=[O:6]"
C        1.83652864       0.52513099       0.39802538
C        1.21105244       0.25606750      -0.86059203
C       -0.79963509      -0.11074363      -0.42275795
C       -1.00875471      -1.55501372      -0.04863059
C       -1.17073765       0.90163205       0.59559066
O       -1.65409676       0.53787944      -1.15145711
H        0.43613785       0.60753658       1.29573770
H        2.08370966       1.57102999       0.58216435
H        2.69734884      -0.09521482       0.63732711
H        1.48776843      -0.64885316      -1.39530567
H        1.08479476       1.11136324      -1.52071496
H       -0.93467623      -2.16487325      -0.94884329
H       -0.25788553      -1.85050925       0.68800535
H       -1.98670802      -1.71481026       0.40820798
H       -1.07208247       1.97145601       0.42944728
H       -1.95276416       0.65792228       1.31379579
16
Frame=16 idx=004903 GeodesicLength=1.8363936944846664 rxn_smarts="[C:1]([C:2]([C@@:3]1([C:4]([H:12])([H:13])[H:14])[C:5]([H:15])([H:16])[O:6]1)([H:10])[H:11])([H:7])([H:8])[H:9]>>[C:1](=[C:2]([H:10])[H:11])([H:8])[H:9].[C:3]([C:4]([H:12])([H:13])[H:14])([C:5]([H:7])([H:15])[H:16])=[O:6]"
C        1.86492478       0.52057131       0.39820148
C        1.23430925       0.25537839      -0.85745226
C       -0.80902111      -0.11494026      -0.41697551
C       -1.02469592      -1.55711901      -0.04509381
C       -1.19907977       0.90164172       0.58745769
O       -1.65434938       0.54472881      -1.14796282
H        0.44443870       0.59260594       1.30785864
H        2.09121224       1.57108786       0.58595769
H        2.75565064      -0.06941634       0.60383923
H        1.50330109      -0.64893812      -1.39713452
H        1.09797755       1.11246188      -1.51332522
H       -0.94811715      -2.16752197      -0.94468991
H       -0.27598336      -1.85050712       0.69449605
H       -2.00322384      -1.71649550       0.41052927
H       -1.09621111       1.97239175       0.43034280
H       -1.98113263       0.65407065       1.30395120
