13
Frame=0 idx=007970 GeodesicLength=0.0 rxn_smarts="[N:1](=[C:2]1\[O:3][C:4]([H:9])([H:10])[C@@:5]12[C:6]([H:11])([H:12])[N:7]2[H:13])\[H:8]>>[N-:1]([C:2]1=[C:5]([N:7]([C+:6]([H:11])[H:12])[H:13])[C:4]([H:9])([H:10])[O:3]1)[H:8]"
N        1.52722730      -0.79589099      -1.33840853
C        1.07767562      -0.03026008      -0.45317293
O        1.69760989       1.01133266       0.23043726
C        0.52264628       1.25771923       1.04758498
C       -0.16312246       0.15305919       0.28853758
C       -1.69953438      -0.73380230      -0.70281452
N       -1.19271544      -0.68986392       0.54074964
H        2.51073447      -0.62506525      -1.52253810
H        0.72668109       1.06603703       2.10570916
H        0.15640647       2.27734407       0.91114233
H       -1.82103728      -1.67272854      -1.23601064
H       -2.07631505       0.18060549      -1.12953011
H       -1.26625653      -1.39848661       1.25831390
13
Frame=1 idx=007970 GeodesicLength=0.02522251874985381 rxn_smarts="[N:1](=[C:2]1\[O:3][C:4]([H:9])([H:10])[C@@:5]12[C:6]([H:11])([H:12])[N:7]2[H:13])\[H:8]>>[N-:1]([C:2]1=[C:5]([N:7]([C+:6]([H:11])[H:12])[H:13])[C:4]([H:9])([H:10])[O:3]1)[H:8]"
N        1.52803751      -0.80097138      -1.33342261
C        1.07952611      -0.03714729      -0.44610962
O        1.69707025       1.00822154       0.23290147
C        0.52014362       1.25543687       1.04752764
C       -0.16550912       0.15137661       0.28651414
C       -1.69406179      -0.72724718      -0.70147986
N       -1.20404896      -0.67841923       0.55010676
H        2.50524904      -0.61443491      -1.53532380
H        0.72331976       1.06490647       2.10584616
H        0.15532604       2.27532434       0.90953308
H       -1.82338535      -1.67234136      -1.22102804
H       -2.06619846       0.18087632      -1.14565703
H       -1.25546866      -1.40558081       1.25059171
13
Frame=2 idx=007970 GeodesicLength=0.05047053807444734 rxn_smarts="[N:1](=[C:2]1\[O:3][C:4]([H:9])([H:10])[C@@:5]12[C:6]([H:11])([H:12])[N:7]2[H:13])\[H:8]>>[N-:1]([C:2]1=[C:5]([N:7]([C+:6]([H:11])[H:12])[H:13])[C:4]([H:9])([H:10])[O:3]1)[H:8]"
N        1.52855812      -0.80442201      -1.33016472
C        1.08194111      -0.04471110      -0.43837418
O        1.69682196       1.00469503       0.23584070
C        0.51768231       1.25289291       1.04752093
C       -0.16744348       0.14896995       0.28483917
C       -1.68812546      -0.72119382      -0.70011981
N       -1.21479619      -0.66767754       0.55920658
H        2.49943877      -0.60328970      -1.54855375
H        0.71970411       1.06394402       2.10616601
H        0.15414553       2.27291768       0.90745987
H       -1.82579257      -1.67202523      -1.20613738
H       -2.05523045       0.18047509      -1.16161762
H       -1.24690376      -1.41057528       1.24393420
13
Frame=3 idx=007970 GeodesicLength=0.07586150651407214 rxn_smarts="[N:1](=[C:2]1\[O:3][C:4]([H:9])([H:10])[C@@:5]12[C:6]([H:11])([H:12])[N:7]2[H:13])\[H:8]>>[N-:1]([C:2]1=[C:5]([N:7]([C+:6]([H:11])[H:12])[H:13])[C:4]([H:9])([H:10])[O:3]1)[H:8]"
N        1.52939563      -0.80831748      -1.32643709
C        1.08565934      -0.05480167      -0.42794039
O        1.69766513       0.99905492       0.24097683
C        0.51539361       1.25000054       1.04779799
C       -0.16880040       0.14556896       0.28402245
C       -1.68111528      -0.71585873      -0.69904276
N       -1.22572808      -0.65686983       0.56819692
H        2.49032814      -0.58674359      -1.56779207
H        0.71470221       1.06388413       2.10728111
H        0.15391378       2.27017404       0.90383786
H       -1.82774233      -1.67238088      -1.19087254
H       -2.04158012       0.17895476      -1.17906240
H       -1.24209163      -1.41266517       1.23903410
13
Frame=4 idx=007970 GeodesicLength=0.10142992675503543 rxn_smarts="[N:1](=[C:2]1\[O:3][C:4]([H:9])([H:10])[C@@:5]12[C:6]([H:11])([H:12])[N:7]2[H:13])\[H:8]>>[N-:1]([C:2]1=[C:5]([N:7]([C+:6]([H:11])[H:12])[H:13])[C:4]([H:9])([H:10])[O:3]1)[H:8]"
N        1.52890873      -0.80916346      -1.32586520
C        1.08983391      -0.06563173      -0.41677977
O        1.69885176       0.99282140       0.24667827
C        0.51321943       1.24691063       1.04811411
C       -0.16977377       0.14159593       0.28355658
C       -1.67362860      -0.71108405      -0.69790612
N       -1.23626715      -0.64640806       0.57697096
H        2.48089495      -0.57061911      -1.58601217
H        0.70944033       1.06408249       2.10856717
H        0.15386010       2.26715181       0.89967266
H       -1.82958833      -1.67292524      -1.17553054
H       -2.02683748       0.17653644      -1.19662082
H       -1.23891389      -1.41326706       1.23515486
13
Frame=5 idx=007970 GeodesicLength=0.1269663428188422 rxn_smarts="[N:1](=[C:2]1\[O:3][C:4]([H:9])([H:10])[C@@:5]12[C:6]([H:11])([H:12])[N:7]2[H:13])\[H:8]>>[N-:1]([C:2]1=[C:5]([N:7]([C+:6]([H:11])[H:12])[H:13])[C:4]([H:9])([H:10])[O:3]1)[H:8]"
N        1.52969583      -0.81161164      -1.32336509
C        1.09417533      -0.07645563      -0.40571991
O        1.70007778       0.98663495       0.25228124
C        0.51109769       1.24363787       1.04836031
C       -0.17042914       0.13716357       0.28318719
C       -1.66603167      -0.70641764      -0.69680409
N       -1.24641388      -0.63627136       0.58533703
H        2.47006689      -0.55258234      -1.60564317
H        0.70431875       1.06419219       2.10976301
H        0.15361586       2.26383139       0.89539260
H       -1.83171202      -1.67301413      -1.16058730
H       -2.01160247       0.17384114      -1.21389182
H       -1.23685896      -1.41294838       1.23169000
13
Frame=6 idx=007970 GeodesicLength=0.15245988836721092 rxn_smarts="[N:1](=[C:2]1\[O:3][C:4]([H:9])([H:10])[C@@:5]12[C:6]([H:11])([H:12])[N:7]2[H:13])\[H:8]>>[N-:1]([C:2]1=[C:5]([N:7]([C+:6]([H:11])[H:12])[H:13])[C:4]([H:9])([H:10])[O:3]1)[H:8]"
N        1.53016758      -0.81249670      -1.32239891
C        1.09802795      -0.08595362      -0.39621686
O        1.70077239       0.98159263       0.25662038
C        0.50895069       1.24030646       1.04840868
C       -0.17098222       0.13263310       0.28256138
C       -1.65880501      -0.70178057      -0.69544465
N       -1.25574371      -0.62682653       0.59334722
H        2.46084052      -0.53748448      -1.62125570
H        0.70011970       1.06373545       2.11048481
H        0.15259612       2.26029635       0.89180262
H       -1.83433484      -1.67243805      -1.14615998
H       -1.99719017       0.17103891      -1.22989917
H       -1.23441900      -1.41262295       1.22815017
13
Frame=7 idx=007970 GeodesicLength=0.17798676313495929 rxn_smarts="[N:1](=[C:2]1\[O:3][C:4]([H:9])([H:10])[C@@:5]12[C:6]([H:11])([H:12])[N:7]2[H:13])\[H:8]>>[N-:1]([C:2]1=[C:5]([N:7]([C+:6]([H:11])[H:12])[H:13])[C:4]([H:9])([H:10])[O:3]1)[H:8]"
N        1.53103819      -0.81359380      -1.32103778
C        1.10193143      -0.09533071      -0.38689399
O        1.70151437       0.97655756       0.26092442
C        0.50686174       1.23684866       1.04844326
C       -0.17133020       0.12780833       0.28203184
C       -1.65150094      -0.69732585      -0.69406605
N       -1.26475540      -0.61759614       0.60106870
H        2.45090200      -0.52173861      -1.63711907
H        0.69603891       1.06318050       2.11117692
H        0.15149285       2.25657502       0.88819467
H       -1.83713469      -1.67160844      -1.13194428
H       -1.98228662       0.16781298      -1.24578937
H       -1.23277165      -1.41158951       1.22501072
13
Frame=8 idx=007970 GeodesicLength=0.20359597443503819 rxn_smarts="[N:1](=[C:2]1\[O:3][C:4]([H:9])([H:10])[C@@:5]12[C:6]([H:11])([H:12])[N:7]2[H:13])\[H:8]>>[N-:1]([C:2]1=[C:5]([N:7]([C+:6]([H:11])[H:12])[H:13])[C:4]([H:9])([H:10])[O:3]1)[H:8]"
N        1.53240708      -0.81516194      -1.31899599
C        1.10604779      -0.10495053      -0.37731566
O        1.70249692       0.97115986       0.26560613
C        0.50487395       1.23325273       1.04852275
C       -0.17143016       0.12264423       0.28171074
C       -1.64394038      -0.69312052      -0.69274941
N       -1.27358875      -0.60839834       0.60850733
H        2.43930387      -0.50444741      -1.65420527
H        0.69182783       1.06269760       2.11197740
H        0.15056370       2.25267969       0.88433902
H       -1.83998330      -1.67066839      -1.11783572
H       -1.96639479       0.16399455      -1.26195109
H       -1.23218377      -1.40968150       1.22238978
13
Frame=9 idx=007970 GeodesicLength=0.2293433313180419 rxn_smarts="[N:1](=[C:2]1\[O:3][C:4]([H:9])([H:10])[C@@:5]12[C:6]([H:11])([H:12])[N:7]2[H:13])\[H:8]>>[N-:1]([C:2]1=[C:5]([N:7]([C+:6]([H:11])[H:12])[H:13])[C:4]([H:9])([H:10])[O:3]1)[H:8]"
N        1.53415180      -0.81693447      -1.31650381
C        1.11039328      -0.11492204      -0.36735907
O        1.70381344       0.96521032       0.27086831
C        0.50301903       1.22951547       1.04867731
C       -0.17128895       0.11717027       0.28161937
C       -1.63604558      -0.68922108      -0.69151863
N       -1.28230517      -0.59911448       0.61565623
H        2.42566816      -0.48554096      -1.67256180
H        0.68737723       1.06232827       2.11294275
H        0.14998005       2.24863459       0.88016490
H       -1.84275001      -1.66971651      -1.10376716
H       -1.94932649       0.15942147      -1.27855159
H       -1.23268679      -1.40683084       1.22033318
13
Frame=10 idx=007970 GeodesicLength=0.2551072889644867 rxn_smarts="[N:1](=[C:2]1\[O:3][C:4]([H:9])([H:10])[C@@:5]12[C:6]([H:11])([H:12])[N:7]2[H:13])\[H:8]>>[N-:1]([C:2]1=[C:5]([N:7]([C+:6]([H:11])[H:12])[H:13])[C:4]([H:9])([H:10])[O:3]1)[H:8]"
N        1.53629263      -0.81875778      -1.31381227
C        1.11462772      -0.12438726      -0.35794396
O        1.70502431       0.95960098       0.27580229
C        0.50118388       1.22573269       1.04877376
C       -0.17101629       0.11154859       0.28152805
C       -1.62821964      -0.68537566      -0.69022499
N       -1.29062244      -0.59008623       0.62252142
H        2.41158397      -0.46699814      -1.69015127
H        0.68321357       1.06179933       2.11376774
H        0.14915508       2.24446953       0.87615633
H       -1.84570857      -1.66833067      -1.09006135
H       -1.93216223       0.15456530      -1.29470995
H       -1.23335198      -1.40378069       1.21835420
13
Frame=11 idx=007970 GeodesicLength=0.28091417436057053 rxn_smarts="[N:1](=[C:2]1\[O:3][C:4]([H:9])([H:10])[C@@:5]12[C:6]([H:11])([H:12])[N:7]2[H:13])\[H:8]>>[N-:1]([C:2]1=[C:5]([N:7]([C+:6]([H:11])[H:12])[H:13])[C:4]([H:9])([H:10])[O:3]1)[H:8]"
N        1.53856984      -0.82028051      -1.31128706
C        1.11877355      -0.13347998      -0.34895247
O        1.70621798       0.95414129       0.28059005
C        0.49939341       1.22189903       1.04883962
C       -0.17063029       0.10579417       0.28146366
C       -1.62042808      -0.68164154      -0.68887522
N       -1.29861666      -0.58122850       0.62913868
H        2.39707479      -0.44877656      -1.70699558
H        0.67923344       1.06115343       2.11451598
H        0.14823698       2.24021101       0.87223244
H       -1.84879050      -1.66663753      -1.07661557
H       -1.91477723       0.14930038      -1.31058827
H       -1.23425724      -1.40045470       1.21653374
13
Frame=12 idx=007970 GeodesicLength=0.3066820331918808 rxn_smarts="[N:1](=[C:2]1\[O:3][C:4]([H:9])([H:10])[C@@:5]12[C:6]([H:11])([H:12])[N:7]2[H:13])\[H:8]>>[N-:1]([C:2]1=[C:5]([N:7]([C+:6]([H:11])[H:12])[H:13])[C:4]([H:9])([H:10])[O:3]1)[H:8]"
N        1.54119154      -0.82174943      -1.30871914
C        1.12269979      -0.14183672      -0.34073685
O        1.70712434       0.94936147       0.28470933
C        0.49756401       1.21807724       1.04881465
C       -0.17018722       0.09997893       0.28133083
C       -1.61287464      -0.67783471      -0.68740908
N       -1.30615393      -0.57273504       0.63553413
H        2.38289923      -0.43175267      -1.72243552
H        0.67571569       1.06028267       2.11503905
H        0.14684605       2.23587367       0.86865236
H       -1.85210373      -1.66437889      -1.06364801
H       -1.89777845       0.14398550      -1.32571012
H       -1.23494269      -1.39727204       1.21457837
13
Frame=13 idx=007970 GeodesicLength=0.3324618005098231 rxn_smarts="[N:1](=[C:2]1\[O:3][C:4]([H:9])([H:10])[C@@:5]12[C:6]([H:11])([H:12])[N:7]2[H:13])\[H:8]>>[N-:1]([C:2]1=[C:5]([N:7]([C+:6]([H:11])[H:12])[H:13])[C:4]([H:9])([H:10])[O:3]1)[H:8]"
N        1.54400886      -0.82305742      -1.30621497
C        1.12650247      -0.14972487      -0.33301559
O        1.70788619       0.94496233       0.28845749
C        0.49573011       1.21424450       1.04874613
C       -0.16967144       0.09406927       0.28121310
C       -1.60544488      -0.67403134      -0.68586377
N       -1.31335315      -0.56447661       0.64173722
H        2.36868942      -0.41542483      -1.73699275
H        0.67248592       1.05928235       2.11544262
H        0.14518448       2.23146363       0.86526202
H       -1.85555321      -1.66171189      -1.05102684
H       -1.88080437       0.13845464      -1.34038070
H       -1.23566039      -1.39404975       1.21263603
13
Frame=14 idx=007970 GeodesicLength=0.3582888307803519 rxn_smarts="[N:1](=[C:2]1\[O:3][C:4]([H:9])([H:10])[C@@:5]12[C:6]([H:11])([H:12])[N:7]2[H:13])\[H:8]>>[N-:1]([C:2]1=[C:5]([N:7]([C+:6]([H:11])[H:12])[H:13])[C:4]([H:9])([H:10])[O:3]1)[H:8]"
N        1.54697031      -0.82420020      -1.30376620
C        1.13025040      -0.15733806      -0.32557363
O        1.70861568       0.94071833       0.29207087
C        0.49392396       1.21038598       1.04867150
C       -0.16906884       0.08804665       0.28116981
C       -1.59804640      -0.67028482      -0.68427514
N       -1.32030204      -0.55634342       0.64775420
H        2.35402547      -0.39936734      -1.75110672
H        0.66941147       1.05822138       2.11580486
H        0.14341861       2.22698684       0.86194932
H       -1.85903611      -1.65874932      -1.03867459
H       -1.86356830       0.13256948      -1.35482769
H       -1.23659423      -1.39064550       1.21080341
13
Frame=15 idx=007970 GeodesicLength=0.3842089218454293 rxn_smarts="[N:1](=[C:2]1\[O:3][C:4]([H:9])([H:10])[C@@:5]12[C:6]([H:11])([H:12])[N:7]2[H:13])\[H:8]>>[N-:1]([C:2]1=[C:5]([N:7]([C+:6]([H:11])[H:12])[H:13])[C:4]([H:9])([H:10])[O:3]1)[H:8]"
N        1.55003804      -0.82514593      -1.30137974
C        1.13400592      -0.16484910      -0.31822764
O        1.70941854       0.93641961       0.29576702
C        0.49217867       1.20648303       1.04862396
C       -0.16836157       0.08189045       0.28125167
C       -1.59058594      -0.66665126      -0.68267993
N       -1.32707874      -0.54822578       0.65357880
H        2.33848027      -0.38318284      -1.76513910
H        0.66637570       1.05715647       2.11619521
H        0.14170881       2.22244502       0.85861641
H       -1.86249422      -1.65559123      -1.02650676
H       -1.84577322       0.12617090      -1.36926991
H       -1.23791226      -1.38691934       1.20917001
13
Frame=16 idx=007970 GeodesicLength=0.41026473325076285 rxn_smarts="[N:1](=[C:2]1\[O:3][C:4]([H:9])([H:10])[C@@:5]12[C:6]([H:11])([H:12])[N:7]2[H:13])\[H:8]>>[N-:1]([C:2]1=[C:5]([N:7]([C+:6]([H:11])[H:12])[H:13])[C:4]([H:9])([H:10])[O:3]1)[H:8]"
N        1.55317895      -0.82585801      -1.29906080
C        1.13779419      -0.17232967      -0.31089196
O        1.71034183       0.93197690       0.29964443
C        0.49051672       1.20252275       1.04862909
C       -0.16754339       0.07560142       0.28148463
C       -1.58300584      -0.66316052      -0.68110371
N       -1.33373125      -0.54004268       0.65919607
H        2.32177903      -0.36669647      -1.77925074
H        0.66334374       1.05609097       2.11664879
H        0.14013285       2.21783345       0.85524420
H       -1.86588384      -1.65229165      -1.01447400
H       -1.82722530       0.11913608      -1.38384168
H       -1.23969772      -1.38278255       1.20777571
