12
Frame=0 idx=004351 GeodesicLength=0.0 rxn_smarts="[O:1]=[C:2]([C@@:3]1([H:8])[C:4]([H:9])([H:10])[C:5]([H:11])([H:12])[O:6]1)[H:7]>>[O:1]([C:2][C@@:3]1([H:8])[C:4]([H:9])([H:10])[C:5]([H:11])([H:12])[O:6]1)[H:7]"
O        1.24368760       2.14657981      -0.24468162
C        1.54096292       0.89107594      -0.09554541
C        0.48783385       0.03705879       0.52790071
C       -0.94441365       0.14422629      -0.02333490
C       -0.78825852      -1.36111315      -0.26789499
O        0.57290884      -1.34673459       0.19735818
H        2.31224183       1.77099724      -0.53360718
H        0.57991070       0.21175376       1.61156066
H       -1.03002452       0.75893907      -0.91748940
H       -1.70447831       0.43848268       0.69519260
H       -0.85287289      -1.69192397      -1.30691827
H       -1.41749781      -1.99934183       0.35745966
12
Frame=1 idx=004351 GeodesicLength=0.03223780181496087 rxn_smarts="[O:1]=[C:2]([C@@:3]1([H:8])[C:4]([H:9])([H:10])[C:5]([H:11])([H:12])[O:6]1)[H:7]>>[O:1]([C:2][C@@:3]1([H:8])[C:4]([H:9])([H:10])[C:5]([H:11])([H:12])[O:6]1)[H:7]"
O        1.25017253       2.14682288      -0.23149114
C        1.53733181       0.89135017      -0.09160212
C        0.48480104       0.03927478       0.53448380
C       -0.94577189       0.14432789      -0.02148128
C       -0.78549063      -1.36000903      -0.26959707
O        0.57276341      -1.34457527       0.20387236
H        2.31133959       1.76108977      -0.56344038
H        0.57412384       0.21483426       1.61797648
H       -1.03051014       0.76144098      -0.91405800
H       -1.70839852       0.43438560       0.69608770
H       -0.84322516      -1.68699981      -1.31025464
H       -1.41713589      -2.00194223       0.34950428
12
Frame=2 idx=004351 GeodesicLength=0.06437410709255618 rxn_smarts="[O:1]=[C:2]([C@@:3]1([H:8])[C:4]([H:9])([H:10])[C:5]([H:11])([H:12])[O:6]1)[H:7]>>[O:1]([C:2][C@@:3]1([H:8])[C:4]([H:9])([H:10])[C:5]([H:11])([H:12])[O:6]1)[H:7]"
O        1.25695278       2.14688637      -0.21859873
C        1.53386903       0.89153756      -0.08784816
C        0.48188413       0.04144982       0.54090588
C       -0.94704625       0.14446797      -0.01971590
C       -0.78275408      -1.35890333      -0.27124144
O        0.57262504      -1.34248174       0.21024763
H        2.30954796       1.75139281      -0.59239006
H        0.56850431       0.21786287       1.62422302
H       -1.03092108       0.76392654      -0.91075629
H       -1.71216157       0.43044724       0.69689258
H       -0.83377635      -1.68214483      -1.31344037
H       -1.41672392      -2.00444128       0.34172184
12
Frame=3 idx=004351 GeodesicLength=0.09651543047070044 rxn_smarts="[O:1]=[C:2]([C@@:3]1([H:8])[C:4]([H:9])([H:10])[C:5]([H:11])([H:12])[O:6]1)[H:7]>>[O:1]([C:2][C@@:3]1([H:8])[C:4]([H:9])([H:10])[C:5]([H:11])([H:12])[O:6]1)[H:7]"
O        1.26383035       2.14670492      -0.20625326
C        1.53040767       0.89162436      -0.08458811
C        0.47906139       0.04357953       0.54698584
C       -0.94824472       0.14460115      -0.01806733
C       -0.78009096      -1.35779346      -0.27277437
O        0.57248236      -1.34038982       0.21626210
H        2.30736891       1.74212268      -0.61963669
H        0.56312348       0.22082904       1.63011712
H       -1.03134526       0.76623844      -0.90764626
H       -1.71567818       0.42667557       0.69765298
H       -0.82474774      -1.67744729      -1.31639449
H       -1.41616730      -2.00674514       0.33434248
12
Frame=4 idx=004351 GeodesicLength=0.1285562386593561 rxn_smarts="[O:1]=[C:2]([C@@:3]1([H:8])[C:4]([H:9])([H:10])[C:5]([H:11])([H:12])[O:6]1)[H:7]>>[O:1]([C:2][C@@:3]1([H:8])[C:4]([H:9])([H:10])[C:5]([H:11])([H:12])[O:6]1)[H:7]"
O        1.27085715       2.14637365      -0.19434288
C        1.52702790       0.89166640      -0.08171928
C        0.47635237       0.04566356       0.55277138
C       -0.94940174       0.14473589      -0.01654115
C       -0.77753979      -1.35674539      -0.27420158
O        0.57235391      -1.33836540       0.22196990
H        2.30490561       1.73336785      -0.64543825
H        0.55798428       0.22372937       1.63569945
H       -1.03180064       0.76843894      -0.90473028
H       -1.71902392       0.42307852       0.69833137
H       -0.81615677      -1.67296478      -1.31912610
H       -1.41555837      -2.00897861       0.32732743
12
Frame=5 idx=004351 GeodesicLength=0.16068274598997853 rxn_smarts="[O:1]=[C:2]([C@@:3]1([H:8])[C:4]([H:9])([H:10])[C:5]([H:11])([H:12])[O:6]1)[H:7]>>[O:1]([C:2][C@@:3]1([H:8])[C:4]([H:9])([H:10])[C:5]([H:11])([H:12])[O:6]1)[H:7]"
O        1.27808328       2.14590967      -0.18262642
C        1.52371664       0.89166607      -0.07906044
C        0.47372098       0.04771724       0.55839322
C       -0.95051224       0.14488769      -0.01510495
C       -0.77504043      -1.35572585      -0.27556834
O        0.57223059      -1.33639364       0.22751421
H        2.30200178       1.72490130      -0.67043688
H        0.55298748       0.22658653       1.64111938
H       -1.03223903       0.77058760      -0.90195797
H       -1.72224447       0.41962056       0.69893166
H       -0.80780767      -1.66860856      -1.32172370
H       -1.41489691      -2.01114862       0.32052022
12
Frame=6 idx=004351 GeodesicLength=0.1934334929718103 rxn_smarts="[O:1]=[C:2]([C@@:3]1([H:8])[C:4]([H:9])([H:10])[C:5]([H:11])([H:12])[O:6]1)[H:7]>>[O:1]([C:2][C@@:3]1([H:8])[C:4]([H:9])([H:10])[C:5]([H:11])([H:12])[O:6]1)[H:7]"
O        1.28533175       2.14526235      -0.17135424
C        1.52044070       0.89161805      -0.07656377
C        0.47113281       0.04975503       0.56387795
C       -0.95161119       0.14504426      -0.01369599
C       -0.77257296      -1.35470206      -0.27689907
O        0.57210832      -1.33443125       0.23289998
H        2.29898249       1.71666336      -0.69460180
H        0.54809265       0.22941751       1.64639903
H       -1.03273732       0.77268859      -0.89923491
H       -1.72538377       0.41623014       0.69954379
H       -0.79962379      -1.66428753      -1.32422130
H       -1.41415969      -2.01325847       0.31385034
12
Frame=7 idx=004351 GeodesicLength=0.22510354602166022 rxn_smarts="[O:1]=[C:2]([C@@:3]1([H:8])[C:4]([H:9])([H:10])[C:5]([H:11])([H:12])[O:6]1)[H:7]>>[O:1]([C:2][C@@:3]1([H:8])[C:4]([H:9])([H:10])[C:5]([H:11])([H:12])[O:6]1)[H:7]"
O        1.29258628       2.14441301      -0.16074402
C        1.51706801       0.89153298      -0.07484690
C        0.46863611       0.05172664       0.56884450
C       -0.95269440       0.14512803      -0.01244461
C       -0.77029391      -1.35375997      -0.27803732
O        0.57198626      -1.33247762       0.23776301
H        2.29635053       1.70934410      -0.71643881
H        0.54352542       0.23214390       1.65111709
H       -1.03336889       0.77449710      -0.89677368
H       -1.72828976       0.41296897       0.70010995
H       -0.79215050      -1.66029514      -1.32637879
H       -1.41335516      -2.01522200       0.30782958
12
Frame=8 idx=004351 GeodesicLength=0.2568433837663977 rxn_smarts="[O:1]=[C:2]([C@@:3]1([H:8])[C:4]([H:9])([H:10])[C:5]([H:11])([H:12])[O:6]1)[H:7]>>[O:1]([C:2][C@@:3]1([H:8])[C:4]([H:9])([H:10])[C:5]([H:11])([H:12])[O:6]1)[H:7]"
O        1.29966148       2.14350572      -0.15080078
C        1.51360135       0.89150463      -0.07367382
C        0.46621715       0.05368394       0.57343607
C       -0.95384341       0.14517401      -0.01129462
C       -0.76818439      -1.35293737      -0.27906048
O        0.57191926      -1.33055783       0.24217005
H        2.29449258       1.70265178      -0.73639731
H        0.53926628       0.23482944       1.65546616
H       -1.03428245       0.77612626      -0.89451087
H       -1.73108193       0.40983080       0.70070497
H       -0.78531405      -1.65661865      -1.32833849
H       -1.41245187      -2.01719271       0.30229912
12
Frame=9 idx=004351 GeodesicLength=0.2887587317305943 rxn_smarts="[O:1]=[C:2]([C@@:3]1([H:8])[C:4]([H:9])([H:10])[C:5]([H:11])([H:12])[O:6]1)[H:7]>>[O:1]([C:2][C@@:3]1([H:8])[C:4]([H:9])([H:10])[C:5]([H:11])([H:12])[O:6]1)[H:7]"
O        1.30659016       2.14252742      -0.14137295
C        1.51002639       0.89153432      -0.07291353
C        0.46383593       0.05562820       0.57772705
C       -0.95503816       0.14517786      -0.01021595
C       -0.76620037      -1.35218940      -0.27998732
O        0.57187606      -1.32863299       0.24621092
H        2.29329493       1.69645142      -0.75493267
H        0.53521167       0.23745912       1.65950833
H       -1.03540081       0.77759921      -0.89238281
H       -1.73377714       0.40675529       0.70132570
H       -0.77895780      -1.65315981      -1.33012084
H       -1.41146086      -2.01915065       0.29715408
12
Frame=10 idx=004351 GeodesicLength=0.32060350297516216 rxn_smarts="[O:1]=[C:2]([C@@:3]1([H:8])[C:4]([H:9])([H:10])[C:5]([H:11])([H:12])[O:6]1)[H:7]>>[O:1]([C:2][C@@:3]1([H:8])[C:4]([H:9])([H:10])[C:5]([H:11])([H:12])[O:6]1)[H:7]"
O        1.31344228       2.14146374      -0.13232320
C        1.50637606       0.89160779      -0.07246323
C        0.46149058       0.05755455       0.58178051
C       -0.95626083       0.14514939      -0.00920482
C       -0.76431789      -1.35150075      -0.28083164
O        0.57186044      -1.32671009       0.24995681
H        2.29255260       1.69069220      -0.77236589
H        0.53131534       0.24002725       1.66331177
H       -1.03666056       0.77893898      -0.89038155
H       -1.73639115       0.40374383       0.70194844
H       -0.77299774      -1.64988473      -1.33175961
H       -1.41040912      -2.02108216       0.29233241
12
Frame=11 idx=004351 GeodesicLength=0.35243338712361716 rxn_smarts="[O:1]=[C:2]([C@@:3]1([H:8])[C:4]([H:9])([H:10])[C:5]([H:11])([H:12])[O:6]1)[H:7]>>[O:1]([C:2][C@@:3]1([H:8])[C:4]([H:9])([H:10])[C:5]([H:11])([H:12])[O:6]1)[H:7]"
O        1.32024938       2.14032088      -0.12354264
C        1.50266520       0.89172865      -0.07222452
C        0.45917101       0.05946588       0.58565287
C       -0.95750147       0.14509675      -0.00825164
C       -0.76251344      -1.35085734      -0.28161026
O        0.57187030      -1.32478450       0.25346162
H        2.29214969       1.68528231      -0.78898612
H        0.52752956       0.24253204       1.66693582
H       -1.03802082       0.78017410      -0.88848554
H       -1.73894176       0.40078632       0.70255929
H       -0.76735654      -1.64675608      -1.33328057
H       -1.40930109      -2.02298901       0.28777170
12
Frame=12 idx=004351 GeodesicLength=0.3842784109642343 rxn_smarts="[O:1]=[C:2]([C@@:3]1([H:8])[C:4]([H:9])([H:10])[C:5]([H:11])([H:12])[O:6]1)[H:7]>>[O:1]([C:2][C@@:3]1([H:8])[C:4]([H:9])([H:10])[C:5]([H:11])([H:12])[O:6]1)[H:7]"
O        1.32701431       2.13910772      -0.11498616
C        1.49889717       0.89190247      -0.07214957
C        0.45686985       0.06136765       0.58937487
C       -0.95875937       0.14502430      -0.00734610
C       -0.76077274      -1.35025055      -0.28233458
O        0.57190450      -1.32285084       0.25675698
H        2.29204992       1.68015005      -0.80494155
H        0.52382967       0.24497896       1.67041264
H       -1.03947002       0.78132412      -0.88667535
H       -1.74144255       0.39787185       0.70315920
H       -0.76198621      -1.64374653      -1.33470200
H       -1.40813452      -2.02487920       0.28343164
12
Frame=13 idx=004351 GeodesicLength=0.4161127836222684 rxn_smarts="[O:1]=[C:2]([C@@:3]1([H:8])[C:4]([H:9])([H:10])[C:5]([H:11])([H:12])[O:6]1)[H:7]>>[O:1]([C:2][C@@:3]1([H:8])[C:4]([H:9])([H:10])[C:5]([H:11])([H:12])[O:6]1)[H:7]"
O        1.33377037       2.13781988      -0.10659408
C        1.49508227       0.89212393      -0.07218989
C        0.45458173       0.06326298       0.59298193
C       -0.96002964       0.14493682      -0.00647881
C       -0.75907919      -1.34967002      -0.28301620
O        0.57195960      -1.32090787       0.25988908
H        2.29215987       1.67523981      -0.82039998
H        0.52018976       0.24737783       1.67377816
H       -1.04098553       0.78240652      -0.88493406
H       -1.74390499       0.39499212       0.70374590
H       -0.75682562      -1.64082895      -1.33604479
H       -1.40691863      -2.02675307       0.27926273
12
Frame=14 idx=004351 GeodesicLength=0.4479374371074175 rxn_smarts="[O:1]=[C:2]([C@@:3]1([H:8])[C:4]([H:9])([H:10])[C:5]([H:11])([H:12])[O:6]1)[H:7]>>[O:1]([C:2][C@@:3]1([H:8])[C:4]([H:9])([H:10])[C:5]([H:11])([H:12])[O:6]1)[H:7]"
O        1.34054710       2.13645183      -0.09831082
C        1.49123604       0.89238560      -0.07229029
C        0.45230161       0.06515478       0.59651114
C       -0.96130562       0.14484133      -0.00564066
C       -0.75741502      -1.34910389      -0.28366762
O        0.57203043      -1.31895542       0.26290617
H        2.29237228       1.67048815      -0.83553332
H        0.51658227       0.24973651       1.67707015
H       -1.04254232       0.78344234      -0.88324435
H       -1.74633917       0.39214045       0.70431541
H       -0.75180826      -1.63797045      -1.33732877
H       -1.40565934      -2.02861124       0.27521298
12
Frame=15 idx=004351 GeodesicLength=0.4797594458947654 rxn_smarts="[O:1]=[C:2]([C@@:3]1([H:8])[C:4]([H:9])([H:10])[C:5]([H:11])([H:12])[O:6]1)[H:7]>>[O:1]([C:2][C@@:3]1([H:8])[C:4]([H:9])([H:10])[C:5]([H:11])([H:12])[O:6]1)[H:7]"
O        1.34737339       2.13499718      -0.09009927
C        1.48736819       0.89268020      -0.07241246
C        0.45002393       0.06704756       0.59999280
C       -0.96258447       0.14474270      -0.00482181
C       -0.75576432      -1.34854190      -0.28430020
O        0.57211152      -1.31699198       0.26585150
H        2.29260538       1.66583940      -0.85047416
H        0.51298357       0.25206853       1.68031819
H       -1.04412542       0.78445173      -0.88158658
H       -1.74875592       0.38930437       0.70486895
H       -0.74687545      -1.63514161      -1.33857141
H       -1.40436040      -2.03045618       0.27123446
12
Frame=16 idx=004351 GeodesicLength=0.5115817718633284 rxn_smarts="[O:1]=[C:2]([C@@:3]1([H:8])[C:4]([H:9])([H:10])[C:5]([H:11])([H:12])[O:6]1)[H:7]>>[O:1]([C:2][C@@:3]1([H:8])[C:4]([H:9])([H:10])[C:5]([H:11])([H:12])[O:6]1)[H:7]"
O        1.35427003       2.13344920      -0.08193284
C        1.48348515       0.89300160      -0.07253311
C        0.44774516       0.06894370       0.60344618
C       -0.96386401       0.14464394      -0.00401610
C       -0.75411675      -1.34797773      -0.28492065
O        0.57219839      -1.31501816       0.26875601
H        2.29280259       1.66126296      -0.86530949
H        0.50938000       0.25438327       1.68354113
H       -1.04572408       0.78544512      -0.87994982
H       -1.75116171       0.38647568       0.70540723
H       -0.74198701      -1.63232264      -1.33978356
H       -1.40302775      -2.03228693       0.26729503
