16
Frame=0 idx=008735 GeodesicLength=0.0 rxn_smarts="[C:1]([C@@:2]([O:3][H:12])([C:4]([C:5](=[O:6])[N:7]([H:15])[H:16])([H:13])[H:14])[H:11])([H:8])([H:9])[H:10]>>[C:1]([H:8])([H:9])([H:10])[H:12].[C:2](=[O:3])([C:4]([C:5](=[O:6])[N:7]([H:15])[H:16])([H:13])[H:14])[H:11]"
C       -2.17249244      -0.14771908      -0.45717917
C       -0.33432353       0.36356313      -0.47842928
O       -0.30376241       1.61816652      -0.02169205
C        0.31442591      -0.71755993       0.35831093
C        1.83763731      -0.55607088       0.40573476
O        2.56863745      -1.51956609       0.31886999
N        2.26798199       0.70869129       0.58687376
H       -2.41204306      -0.61672820       0.49307421
H       -2.08506672      -0.87080603      -1.26098186
H       -2.94954335       0.57236428      -0.74701312
H       -0.16829594       0.22981356      -1.55724566
H       -1.48178265       0.94881284      -0.18156056
H       -0.05842636      -0.64471322       1.38256577
H        0.11532542      -1.71521011      -0.02886260
H        3.25790258       0.87535552       0.61321004
H        1.60382582       1.47160646       0.57432485
16
Frame=1 idx=008735 GeodesicLength=0.1019188326056636 rxn_smarts="[C:1]([C@@:2]([O:3][H:12])([C:4]([C:5](=[O:6])[N:7]([H:15])[H:16])([H:13])[H:14])[H:11])([H:8])([H:9])[H:10]>>[C:1]([H:8])([H:9])([H:10])[H:12].[C:2](=[O:3])([C:4]([C:5](=[O:6])[N:7]([H:15])[H:16])([H:13])[H:14])[H:11]"
C       -2.18766937      -0.13937828      -0.44281105
C       -0.33059608       0.35810831      -0.49626552
O       -0.29002607       1.61413259      -0.04839762
C        0.32699475      -0.72397375       0.33027888
C        1.84673079      -0.55327862       0.41150959
O        2.58232068      -1.51697609       0.37798122
N        2.27304200       0.71333994       0.58785845
H       -2.41180795      -0.59944683       0.51601790
H       -2.12038560      -0.87422032      -1.23862760
H       -2.97439372       0.57109148      -0.72877780
H       -0.17483998       0.22402288      -1.57690862
H       -1.49350455       0.97347013      -0.18073107
H       -0.06199115      -0.68538379       1.35027347
H        0.14487140      -1.71733041      -0.07698030
H        3.26108796       0.87948800       0.65513345
H        1.61016690       1.47633476       0.56044662
16
Frame=2 idx=008735 GeodesicLength=0.2036174177087133 rxn_smarts="[C:1]([C@@:2]([O:3][H:12])([C:4]([C:5](=[O:6])[N:7]([H:15])[H:16])([H:13])[H:14])[H:11])([H:8])([H:9])[H:10]>>[C:1]([H:8])([H:9])([H:10])[H:12].[C:2](=[O:3])([C:4]([C:5](=[O:6])[N:7]([H:15])[H:16])([H:13])[H:14])[H:11]"
C       -2.20199732      -0.13059191      -0.42783089
C       -0.32632251       0.35211982      -0.51496602
O       -0.27649563       1.60948255      -0.07602167
C        0.33986912      -0.73064277       0.30176562
C        1.85524505      -0.55078720       0.41848073
O        2.59322064      -1.51344756       0.43721666
N        2.27761879       0.71773235       0.58949216
H       -2.41022037      -0.58126655       0.53950141
H       -2.15509524      -0.87771914      -1.21441849
H       -2.99868319       0.56985824      -0.70943367
H       -0.18095070       0.21762461      -1.59732386
H       -1.50479492       0.99907413      -0.17972323
H       -0.06565503      -0.72734835       1.31593067
H        0.17594784      -1.71891893      -0.12621187
H        3.26200568       0.88410678       0.69741280
H        1.61630779       1.48072392       0.54612965
16
Frame=3 idx=008735 GeodesicLength=0.3051120113501543 rxn_smarts="[C:1]([C@@:2]([O:3][H:12])([C:4]([C:5](=[O:6])[N:7]([H:15])[H:16])([H:13])[H:14])[H:11])([H:8])([H:9])[H:10]>>[C:1]([H:8])([H:9])([H:10])[H:12].[C:2](=[O:3])([C:4]([C:5](=[O:6])[N:7]([H:15])[H:16])([H:13])[H:14])[H:11]"
C       -2.21543955      -0.12133124      -0.41215240
C       -0.32152528       0.34552002      -0.53465245
O       -0.26321475       1.60417103      -0.10472481
C        0.35306599      -0.73757470       0.27273237
C        1.86305253      -0.54853965       0.42662116
O        2.60134133      -1.50902912       0.49611480
N        2.28166086       0.72190722       0.59160348
H       -2.40713216      -0.56211611       0.56361721
H       -2.18919430      -0.88127640      -1.18818045
H       -3.02238911       0.56867871      -0.68879412
H       -0.18670760       0.21046986      -1.61860556
H       -1.51562825       1.02568230      -0.17853397
H       -0.06933264      -0.77056376       1.27937232
H        0.20868005      -1.71994660      -0.17644565
H        3.26044265       0.88912815       0.74115985
H        1.62232023       1.48482028       0.53086820
16
Frame=4 idx=008735 GeodesicLength=0.40641535890176383 rxn_smarts="[C:1]([C@@:2]([O:3][H:12])([C:4]([C:5](=[O:6])[N:7]([H:15])[H:16])([H:13])[H:14])[H:11])([H:8])([H:9])[H:10]>>[C:1]([H:8])([H:9])([H:10])[H:12].[C:2](=[O:3])([C:4]([C:5](=[O:6])[N:7]([H:15])[H:16])([H:13])[H:14])[H:11]"
C       -2.22790138      -0.11156237      -0.39590574
C       -0.31616098       0.33829577      -0.55522370
O       -0.25027113       1.59814884      -0.13420669
C        0.36653474      -0.74484082       0.24331779
C        1.86990448      -0.54652591       0.43641648
O        2.60658608      -1.50384140       0.55498224
N        2.28494714       0.72583395       0.59481928
H       -2.40249582      -0.54209936       0.58812629
H       -2.22246287      -0.88470500      -1.16009586
H       -3.04539834       0.56759736      -0.66689827
H       -0.19191889       0.20266923      -1.64064820
H       -1.52600295       1.05333272      -0.17706678
H       -0.07320759      -0.81522820       1.24050662
H        0.24325835      -1.72036341      -0.22759111
H        3.25648805       0.89471749       0.78445582
H        1.62810113       1.48857113       0.51501181
16
Frame=5 idx=008735 GeodesicLength=0.5074958815098222 rxn_smarts="[C:1]([C@@:2]([O:3][H:12])([C:4]([C:5](=[O:6])[N:7]([H:15])[H:16])([H:13])[H:14])[H:11])([H:8])([H:9])[H:10]>>[C:1]([H:8])([H:9])([H:10])[H:12].[C:2](=[O:3])([C:4]([C:5](=[O:6])[N:7]([H:15])[H:16])([H:13])[H:14])[H:11]"
C       -2.23933303      -0.10122032      -0.37887811
C       -0.31026920       0.33030820      -0.57694988
O       -0.23769277       1.59134222      -0.16490704
C        0.38032493      -0.75245834       0.21332630
C        1.87565157      -0.54465930       0.44756230
O        2.60899707      -1.49791026       0.61333985
N        2.28741201       0.72957317       0.59872157
H       -2.39604190      -0.52108207       0.61326471
H       -2.25499024      -0.88796839      -1.12982798
H       -3.06766750       0.56670540      -0.64334915
H       -0.19678166       0.19389400      -1.66370014
H       -1.53578384       1.08211239      -0.17528468
H       -0.07705150      -0.86127405       1.19902129
H        0.27984532      -1.72015692      -0.27960975
H        3.24962941       0.90080218       0.82946432
H        1.63375135       1.49199208       0.49780641
16
Frame=6 idx=008735 GeodesicLength=0.6084014453961273 rxn_smarts="[C:1]([C@@:2]([O:3][H:12])([C:4]([C:5](=[O:6])[N:7]([H:15])[H:16])([H:13])[H:14])[H:11])([H:8])([H:9])[H:10]>>[C:1]([H:8])([H:9])([H:10])[H:12].[C:2](=[O:3])([C:4]([C:5](=[O:6])[N:7]([H:15])[H:16])([H:13])[H:14])[H:11]"
C       -2.24963965      -0.09029735      -0.36122712
C       -0.30381506       0.32157660      -0.59971787
O       -0.22559905       1.58371544      -0.19641931
C        0.39438740      -0.76049780       0.18288900
C        1.87997281      -0.54292387       0.46061716
O        2.60834238      -1.49136377       0.67188142
N        2.28873468       0.73311059       0.60405137
H       -2.38769521      -0.49929367       0.63873060
H       -2.28654376      -0.89082458      -1.09767640
H       -3.08909593       0.56601775      -0.61813741
H       -0.20110156       0.18435577      -1.68765905
H       -1.54501237       1.11204807      -0.17304829
H       -0.08106556      -0.90893590       1.15473986
H        0.31871479      -1.71921854      -0.33244391
H        3.24026504       0.90750398       0.87369882
H        1.63915106       1.49502727       0.47972111
16
Frame=7 idx=008735 GeodesicLength=0.7091117189313972 rxn_smarts="[C:1]([C@@:2]([O:3][H:12])([C:4]([C:5](=[O:6])[N:7]([H:15])[H:16])([H:13])[H:14])[H:11])([H:8])([H:9])[H:10]>>[C:1]([H:8])([H:9])([H:10])[H:12].[C:2](=[O:3])([C:4]([C:5](=[O:6])[N:7]([H:15])[H:16])([H:13])[H:14])[H:11]"
C       -2.25871002      -0.07872899      -0.34271715
C       -0.29682665       0.31196824      -0.62382340
O       -0.21398996       1.57518239      -0.22915396
C        0.40879147      -0.76898344       0.15177437
C        1.88266513      -0.54124511       0.47531052
O        2.60451208      -1.48422222       0.73042167
N        2.28879399       0.73649366       0.61037336
H       -2.37705774      -0.47666470       0.66474750
H       -2.31717378      -0.89316331      -1.06334546
H       -3.10958063       0.56561773      -0.59072700
H       -0.20509638       0.17376643      -1.71281238
H       -1.55354080       1.14322153      -0.17031016
H       -0.08500815      -0.95815351       1.10725911
H        0.36011179      -1.71748087      -0.38610540
H        3.22767072       0.91475848       0.91909598
H        1.64443891       1.49763369       0.46001239
16
Frame=8 idx=008735 GeodesicLength=0.8096706308557784 rxn_smarts="[C:1]([C@@:2]([O:3][H:12])([C:4]([C:5](=[O:6])[N:7]([H:15])[H:16])([H:13])[H:14])[H:11])([H:8])([H:9])[H:10]>>[C:1]([H:8])([H:9])([H:10])[H:12].[C:2](=[O:3])([C:4]([C:5](=[O:6])[N:7]([H:15])[H:16])([H:13])[H:14])[H:11]"
C       -2.26642238      -0.06648178      -0.32336979
C       -0.28928352       0.30143290      -0.64933737
O       -0.20296007       1.56569408      -0.26306854
C        0.42352468      -0.77798714       0.11996392
C        1.88333294      -0.53958010       0.49201526
O        2.59717101      -1.47652575       0.78953453
N        2.28720615       0.73974551       0.61817204
H       -2.36390446      -0.45337632       0.69116814
H       -2.34673895      -0.89475723      -1.02696531
H       -3.12897783       0.56559064      -0.56087257
H       -0.20869240       0.16211412      -1.73922689
H       -1.56128741       1.17568399      -0.16692792
H       -0.08894110      -1.00911595       1.05621924
H        0.40440093      -1.71480908      -0.44056192
H        3.21214855       0.92265547       0.96411237
H        1.64942386       1.49971662       0.43914481
16
Frame=9 idx=008735 GeodesicLength=0.9100367174537415 rxn_smarts="[C:1]([C@@:2]([O:3][H:12])([C:4]([C:5](=[O:6])[N:7]([H:15])[H:16])([H:13])[H:14])[H:11])([H:8])([H:9])[H:10]>>[C:1]([H:8])([H:9])([H:10])[H:12].[C:2](=[O:3])([C:4]([C:5](=[O:6])[N:7]([H:15])[H:16])([H:13])[H:14])[H:11]"
C       -2.27255228      -0.05343568      -0.30281939
C       -0.28120317       0.28975588      -0.67670877
O       -0.19249792       1.55513311      -0.29888141
C        0.43867247      -0.78758204       0.08708627
C        1.88167058      -0.53783996       0.51033151
O        2.58606751      -1.46824125       0.84898327
N        2.28373770       0.74291852       0.62705763
H       -2.34762291      -0.42934943       0.71830811
H       -2.37528487      -0.89543864      -0.98808397
H       -3.14702232       0.56617391      -0.52779438
H       -0.21217174       0.14888435      -1.76730282
H       -1.56782664       1.20956115      -0.16277322
H       -0.09251514      -1.06180645       1.00104303
H        0.45189605      -1.71117634      -0.49587415
H        3.19241732       0.93128552       1.01115360
H        1.65423535       1.50115734       0.41627469
16
Frame=10 idx=008735 GeodesicLength=1.0102948592422878 rxn_smarts="[C:1]([C@@:2]([O:3][H:12])([C:4]([C:5](=[O:6])[N:7]([H:15])[H:16])([H:13])[H:14])[H:11])([H:8])([H:9])[H:10]>>[C:1]([H:8])([H:9])([H:10])[H:12].[C:2](=[O:3])([C:4]([C:5](=[O:6])[N:7]([H:15])[H:16])([H:13])[H:14])[H:11]"
C       -2.27685611      -0.03956054      -0.28105633
C       -0.27254762       0.27686864      -0.70609578
O       -0.18265792       1.54341721      -0.33665149
C        0.45424905      -0.79782897       0.05308844
C        1.87713470      -0.53599554       0.53065555
O        2.57056210      -1.45937450       0.90948193
N        2.27792955       0.74603187       0.63728501
H       -2.32778652      -0.40476414       0.74602417
H       -2.40257618      -0.89496330      -0.94680206
H       -3.16341409       0.56742785      -0.49112565
H       -0.21549924       0.13401646      -1.79719820
H       -1.57302187       1.24490083      -0.15779121
H       -0.09573588      -1.11630809       0.94127695
H        0.50306256      -1.70634258      -0.55194162
H        3.16881255       0.94066977       1.05823120
H        1.65834493       1.50180504       0.39261908
16
Frame=11 idx=008735 GeodesicLength=1.1105143034353662 rxn_smarts="[C:1]([C@@:2]([O:3][H:12])([C:4]([C:5](=[O:6])[N:7]([H:15])[H:16])([H:13])[H:14])[H:11])([H:8])([H:9])[H:10]>>[C:1]([H:8])([H:9])([H:10])[H:12].[C:2](=[O:3])([C:4]([C:5](=[O:6])[N:7]([H:15])[H:16])([H:13])[H:14])[H:11]"
C       -2.27896194      -0.02475015      -0.25778417
C       -0.26330256       0.26256199      -0.73795641
O       -0.17344868       1.53040434      -0.37706285
C        0.47033153      -0.80880563       0.01764448
C        1.86917275      -0.53398030       0.55284141
O        2.54999069      -1.44987993       0.97115459
N        2.26931454       0.74912119       0.64875702
H       -2.30363966      -0.37962186       0.77448101
H       -2.42845935      -0.89311947      -0.90277070
H       -3.17767895       0.56957527      -0.45009922
H       -0.21888332       0.11701662      -1.82931322
H       -1.57638029       1.28182397      -0.15191998
H       -0.09831316      -1.17260130       0.87627674
H        0.55834747      -1.70015379      -0.60871575
H        3.14061203       0.95086168       1.10584624
H        1.66129892       1.50154734       0.36862083
16
Frame=12 idx=008735 GeodesicLength=1.2108291098243082 rxn_smarts="[C:1]([C@@:2]([O:3][H:12])([C:4]([C:5](=[O:6])[N:7]([H:15])[H:16])([H:13])[H:14])[H:11])([H:8])([H:9])[H:10]>>[C:1]([H:8])([H:9])([H:10])[H:12].[C:2](=[O:3])([C:4]([C:5](=[O:6])[N:7]([H:15])[H:16])([H:13])[H:14])[H:11]"
C       -2.27838720      -0.00891363      -0.23272538
C       -0.25344162       0.24662901      -0.77277007
O       -0.16490698       1.51595950      -0.42079970
C        0.48699650      -0.82057953      -0.01955284
C        1.85709305      -0.53173907       0.57680190
O        2.52344537      -1.43972212       1.03421204
N        2.25723134       0.75221013       0.66161022
H       -2.27429983      -0.35393611       0.80378551
H       -2.45263736      -0.88970008      -0.85563707
H       -3.18919271       0.57281126      -0.40393502
H       -0.22251129       0.09738860      -1.86406754
H       -1.57735779       1.32043348      -0.14521875
H       -0.09994948      -1.23061748       0.80539126
H        0.61823541      -1.69237382      -0.66606499
H        3.10741574       0.96180194       1.15363381
H        1.66226685       1.50034793       0.34533664
16
Frame=13 idx=008735 GeodesicLength=1.3115587632300165 rxn_smarts="[C:1]([C@@:2]([O:3][H:12])([C:4]([C:5](=[O:6])[N:7]([H:15])[H:16])([H:13])[H:14])[H:11])([H:8])([H:9])[H:10]>>[C:1]([H:8])([H:9])([H:10])[H:12].[C:2](=[O:3])([C:4]([C:5](=[O:6])[N:7]([H:15])[H:16])([H:13])[H:14])[H:11]"
C       -2.27446684       0.00808342      -0.20541308
C       -0.24295934       0.22878832      -0.81116665
O       -0.15707899       1.49989481      -0.46882618
C        0.50437118      -0.83323981      -0.05897733
C        1.84015688      -0.52924268       0.60210159
O        2.48988312      -1.42889780       1.09849626
N        2.24066665       0.75536155       0.67629826
H       -2.23859813      -0.32764514       0.83417699
H       -2.47471858      -0.88450684      -0.80472446
H       -3.19706835       0.57744415      -0.35160664
H       -0.22670558       0.07442449      -1.90197371
H       -1.57511251       1.36089398      -0.13770272
H       -0.10015819      -1.29027156       0.72785111
H        0.68319867      -1.68278435      -0.72389028
H        3.06799205       0.97348582       1.20244421
H        1.66059795       1.49821165       0.32291265
16
Frame=14 idx=008735 GeodesicLength=1.413099174423253 rxn_smarts="[C:1]([C@@:2]([O:3][H:12])([C:4]([C:5](=[O:6])[N:7]([H:15])[H:16])([H:13])[H:14])[H:11])([H:8])([H:9])[H:10]>>[C:1]([H:8])([H:9])([H:10])[H:12].[C:2](=[O:3])([C:4]([C:5](=[O:6])[N:7]([H:15])[H:16])([H:13])[H:14])[H:11]"
C       -2.26635965       0.02632233      -0.17552467
C       -0.23183085       0.20879332      -0.85369889
O       -0.15005240       1.48200143      -0.52190450
C        0.52255197      -0.84680575      -0.10092999
C        1.81765184      -0.52657046       0.62809521
O        2.44813513      -1.41752944       1.16360846
N        2.21862092       0.75856886       0.69292028
H       -2.19524404      -0.30055631       0.86573283
H       -2.49395140      -0.87743314      -0.74936958
H       -3.20017462       0.58360787      -0.29232109
H       -0.23169534       0.04750244      -1.94347461
H       -1.56891161       1.40331906      -0.12988991
H       -0.09840795      -1.35101124       0.64335064
H        0.75337131      -1.67113072      -0.78172322
H        3.02160942       0.98563578       1.25199132
H        1.65468727       1.49528596       0.30313772
16
Frame=15 idx=008735 GeodesicLength=1.5162336173714945 rxn_smarts="[C:1]([C@@:2]([O:3][H:12])([C:4]([C:5](=[O:6])[N:7]([H:15])[H:16])([H:13])[H:14])[H:11])([H:8])([H:9])[H:10]>>[C:1]([H:8])([H:9])([H:10])[H:12].[C:2](=[O:3])([C:4]([C:5](=[O:6])[N:7]([H:15])[H:16])([H:13])[H:14])[H:11]"
C       -2.25313851       0.04584852      -0.14281732
C       -0.22006270       0.18643329      -0.90077396
O       -0.14408486       1.46207927      -0.58056188
C        0.54162079      -0.86125901      -0.14559773
C        1.78896403      -0.52387119       0.65388169
O        2.39706569      -1.40584810       1.22878443
N        2.18968826       0.76189897       0.71198683
H       -2.14304891      -0.27252468       0.89836125
H       -2.50932916      -0.86845935      -0.68890849
H       -3.19718027       0.59145681      -0.22559120
H       -0.23756708       0.01607526      -1.98880384
H       -1.55791656       1.44784633      -0.12221014
H       -0.09410125      -1.41215119       0.55193063
H        0.82857508      -1.65724374      -0.83887406
H        2.96773925       0.99783364       1.30178877
H        1.64277621       1.49188518       0.28740503
16
Frame=16 idx=008735 GeodesicLength=1.6221987766040327 rxn_smarts="[C:1]([C@@:2]([O:3][H:12])([C:4]([C:5](=[O:6])[N:7]([H:15])[H:16])([H:13])[H:14])[H:11])([H:8])([H:9])[H:10]>>[C:1]([H:8])([H:9])([H:10])[H:12].[C:2](=[O:3])([C:4]([C:5](=[O:6])[N:7]([H:15])[H:16])([H:13])[H:14])[H:11]"
C       -2.23364490       0.06681091      -0.10686134
C       -0.20769561       0.16143252      -0.95276924
O       -0.13931322       1.43984532      -0.64524397
C        0.56170917      -0.87664017      -0.19325568
C        1.75410301      -0.52154412       0.67768305
O        2.33613979      -1.39434793       1.29221211
N        2.15256421       0.76532618       0.73340693
H       -2.08052843      -0.24298593       0.93215381
H       -2.51957041      -0.85759931      -0.62215495
H       -3.18642227       0.60126012      -0.15079895
H       -0.24454585      -0.02044247      -2.03815461
H       -1.54114200       1.49466184      -0.11540627
H       -0.08649044      -1.47277115       0.45414749
H        0.90803725      -1.64125158      -0.89477870
H        2.90312072       1.01014282       1.35438858
H        1.62367897       1.48810296       0.27543173
