17
Frame=0 idx=011518 GeodesicLength=0.0 rxn_smarts="[C:1]([C@@:2]1([H:11])[N:3]([H:12])[C@:4]1([C@@:5]1([H:14])[C:6]([H:15])([H:16])[N:7]1[H:17])[H:13])([H:8])([H:9])[H:10]>>[C:1]([C@@:2]1([H:11])[N:3]([H:12])[C@:4]1(/[C:5](=[N:7]/[C:6]([H:15])([H:16])[H:17])[H:14])[H:13])([H:8])([H:9])[H:10]"
C       -2.16266689      -0.31968619       0.00657930
C       -1.13995263      -0.32394067      -1.09746327
N       -0.28548116       0.83814567      -1.34149780
C        0.31647583      -0.39149225      -0.84542471
C        0.85155888      -0.42711974       0.56862305
C        2.09447632       0.49616537       0.82129798
N        0.49335013       0.50530009       1.49206682
H       -3.04700373       0.24237300      -0.30126359
H       -1.77661455       0.13681378       0.91894138
H       -2.47939629      -1.33884776       0.23872539
H       -1.48604622      -0.78597233      -2.01809909
H       -0.37069905       1.46765187      -0.54375255
H        0.93699182      -0.91984826      -1.56497545
H        1.06769034      -1.45105489       0.90615756
H        2.88795279      -0.05619138       1.31138512
H        2.33233333       1.02156997      -0.09873085
H        1.76703116       1.30613379       1.54743070
17
Frame=1 idx=011518 GeodesicLength=0.09240897077190197 rxn_smarts="[C:1]([C@@:2]1([H:11])[N:3]([H:12])[C@:4]1([C@@:5]1([H:14])[C:6]([H:15])([H:16])[N:7]1[H:17])[H:13])([H:8])([H:9])[H:10]>>[C:1]([C@@:2]1([H:11])[N:3]([H:12])[C@:4]1(/[C:5](=[N:7]/[C:6]([H:15])([H:16])[H:17])[H:14])[H:13])([H:8])([H:9])[H:10]"
C       -2.16354568      -0.32101626       0.01078237
C       -1.14762516      -0.32288659      -1.09943330
N       -0.29448639       0.83925960      -1.34622188
C        0.31071268      -0.39112811      -0.85566409
C        0.85433644      -0.43415664       0.55331917
C        2.10282736       0.49470953       0.83933688
N        0.51200108       0.49944959       1.47992070
H       -3.04961492       0.24204975      -0.29015204
H       -1.77172560       0.13309051       0.92184715
H       -2.47893072      -1.34063707       0.24269184
H       -1.49906797      -0.78329329      -2.01884136
H       -0.37565070       1.46930947      -0.54876832
H        0.92600622      -0.91759316      -1.58100020
H        1.07422532      -1.45895056       0.88414488
H        2.88387422      -0.04460966       1.36324860
H        2.37183543       0.99495731      -0.08630952
H        1.74482840       1.34144559       1.53109912
17
Frame=2 idx=011518 GeodesicLength=0.18477812986646092 rxn_smarts="[C:1]([C@@:2]1([H:11])[N:3]([H:12])[C@:4]1([C@@:5]1([H:14])[C:6]([H:15])([H:16])[N:7]1[H:17])[H:13])([H:8])([H:9])[H:10]>>[C:1]([C@@:2]1([H:11])[N:3]([H:12])[C@:4]1(/[C:5](=[N:7]/[C:6]([H:15])([H:16])[H:17])[H:14])[H:13])([H:8])([H:9])[H:10]"
C       -2.16427165      -0.32245649       0.01511307
C       -1.15528108      -0.32188383      -1.10132062
N       -0.30376307       0.84047604      -1.35110284
C        0.30495333      -0.39046007      -0.86597055
C        0.85721963      -0.44051965       0.53784793
C        2.11145779       0.49309806       0.85779056
N        0.53072150       0.49444031       1.46728895
H       -3.05217203       0.24137054      -0.27890914
H       -1.76670776       0.12948209       0.92473489
H       -2.47808257      -1.34256929       0.24695504
H       -1.51204637      -0.78088338      -2.01936767
H       -0.38093564       1.47117496      -0.55405038
H        0.91507645      -0.91492149      -1.59704297
H        1.08077040      -1.46609362       0.86211875
H        2.87869285      -0.03329662       1.41468425
H        2.41169589       0.96804372      -0.07175827
H        1.72267234       1.37499874       1.51298899
17
Frame=3 idx=011518 GeodesicLength=0.2771054638606981 rxn_smarts="[C:1]([C@@:2]1([H:11])[N:3]([H:12])[C@:4]1([C@@:5]1([H:14])[C:6]([H:15])([H:16])[N:7]1[H:17])[H:13])([H:8])([H:9])[H:10]>>[C:1]([C@@:2]1([H:11])[N:3]([H:12])[C@:4]1(/[C:5](=[N:7]/[C:6]([H:15])([H:16])[H:17])[H:14])[H:13])([H:8])([H:9])[H:10]"
C       -2.16484797      -0.32401015       0.01956018
C       -1.16293564      -0.32095933      -1.10313602
N       -0.31335679       0.84177086      -1.35618460
C        0.29918328      -0.38948241      -0.87635863
C        0.86020812      -0.44615925       0.52219121
C        2.12036284       0.49132531       0.87666975
N        0.54950216       0.49035043       1.45410803
H       -3.05468753       0.24031290      -0.26755648
H       -1.76156439       0.12601543       0.92757797
H       -2.47683740      -1.34464030       0.25153101
H       -1.52499487      -0.77880203      -2.01967196
H       -0.38659346       1.47324208      -0.55965970
H        0.90419662      -0.91183432      -1.61310210
H        1.08727056      -1.47243315       0.84010814
H        2.87247162      -0.02233118       1.46560744
H        2.45179204       0.94095627      -0.05503811
H        1.70083081       1.40667886       1.49335386
17
Frame=4 idx=011518 GeodesicLength=0.36939336237693376 rxn_smarts="[C:1]([C@@:2]1([H:11])[N:3]([H:12])[C@:4]1([C@@:5]1([H:14])[C:6]([H:15])([H:16])[N:7]1[H:17])[H:13])([H:8])([H:9])[H:10]>>[C:1]([C@@:2]1([H:11])[N:3]([H:12])[C@:4]1(/[C:5](=[N:7]/[C:6]([H:15])([H:16])[H:17])[H:14])[H:13])([H:8])([H:9])[H:10]"
C       -2.16527617      -0.32568568       0.02412139
C       -1.17060433      -0.32013285      -1.10489158
N       -0.32330473       0.84313215      -1.36150381
C        0.29338719      -0.38819119      -0.88685332
C        0.86330715      -0.45103947       0.50631824
C        2.12953199       0.48938233       0.89599008
N        0.56834117       0.48723425       1.44032154
H       -3.05716921       0.23885807      -0.25609382
H       -1.75629264       0.12270107       0.93036450
H       -2.47518537      -1.34685845       0.25643181
H       -1.53793075      -0.77709169      -2.01975556
H       -0.39265304       1.47551114      -0.56564049
H        0.89335271      -0.90833525      -1.62919840
H        1.09367946      -1.47794051       0.81811715
H        2.86523219      -0.01177206       1.51601616
H        2.49203673       0.91376009      -0.03614345
H        1.67954764       1.43646803       1.47239958
17
Frame=5 idx=011518 GeodesicLength=0.4616561897938901 rxn_smarts="[C:1]([C@@:2]1([H:11])[N:3]([H:12])[C@:4]1([C@@:5]1([H:14])[C:6]([H:15])([H:16])[N:7]1[H:17])[H:13])([H:8])([H:9])[H:10]>>[C:1]([C@@:2]1([H:11])[N:3]([H:12])[C@:4]1(/[C:5](=[N:7]/[C:6]([H:15])([H:16])[H:17])[H:14])[H:13])([H:8])([H:9])[H:10]"
C       -2.16555822      -0.32749234       0.02880725
C       -1.17830097      -0.31941706      -1.10660025
N       -0.33363790       0.84456229      -1.36709546
C        0.28755515      -0.38658580      -0.89749248
C        0.86653276      -0.45514202       0.49018537
C        2.13894586       0.48725910       0.91577281
N        0.58723650       0.48512090       1.42588079
H       -3.05962763       0.23699721      -0.24449615
H       -1.75088922       0.11954152       0.93310079
H       -2.47311837      -1.34924185       0.26167671
H       -1.55087189      -0.77577999      -2.01962626
H       -0.39913881       1.47799460      -0.57202582
H        0.88253529      -0.90443237      -1.64537965
H        1.09997522      -1.48261564       0.79612646
H        2.85695220      -0.00165397       1.56597588
H        2.53238830       0.88645943      -0.01508669
H        1.65902174       1.46442598       1.45027670
17
Frame=6 idx=011518 GeodesicLength=0.5538742065564508 rxn_smarts="[C:1]([C@@:2]1([H:11])[N:3]([H:12])[C@:4]1([C@@:5]1([H:14])[C:6]([H:15])([H:16])[N:7]1[H:17])[H:13])([H:8])([H:9])[H:10]>>[C:1]([C@@:2]1([H:11])[N:3]([H:12])[C@:4]1(/[C:5](=[N:7]/[C:6]([H:15])([H:16])[H:17])[H:14])[H:13])([H:8])([H:9])[H:10]"
C       -2.16566938      -0.32944496       0.03361505
C       -1.18604626      -0.31881635      -1.10827207
N       -0.34440919       0.84605165      -1.37297528
C        0.28165688      -0.38465398      -0.90830178
C        0.86990237      -0.45843338       0.47375027
C        2.14857842       0.48493365       0.93604608
N        0.60622538       0.48404194       1.41072497
H       -3.06204096       0.23470728      -0.23274815
H       -1.74530786       0.11651252       0.93577895
H       -2.47059588      -1.35179779       0.26725091
H       -1.56385301      -0.77487157      -2.01928723
H       -0.40608757       1.48067598      -0.57883453
H        0.87169198      -0.90011146      -1.66167163
H        1.10613592      -1.48642191       0.77412065
H        2.84757298       0.00801237       1.61558811
H        2.57277536       0.85898906       0.00812925
H        1.63947082       1.49062695       1.42708643
17
Frame=7 idx=011518 GeodesicLength=0.6460515312711059 rxn_smarts="[C:1]([C@@:2]1([H:11])[N:3]([H:12])[C@:4]1([C@@:5]1([H:14])[C:6]([H:15])([H:16])[N:7]1[H:17])[H:13])([H:8])([H:9])[H:10]>>[C:1]([C@@:2]1([H:11])[N:3]([H:12])[C@:4]1(/[C:5](=[N:7]/[C:6]([H:15])([H:16])[H:17])[H:14])[H:13])([H:8])([H:9])[H:10]"
C       -2.16560147      -0.33156368       0.03856724
C       -1.19385750      -0.31832288      -1.10990282
N       -0.35565277       0.84761359      -1.37914483
C        0.27568633      -0.38237219      -0.91932568
C        0.87344970      -0.46089670       0.45693059
C        2.15840156       0.48237637       0.95684902
N        0.62531519       0.48399942       1.39476740
H       -3.06442429       0.23194928      -0.22078227
H       -1.73953159       0.11359825       0.93840135
H       -2.46757892      -1.35454948       0.27317527
H       -1.57691022      -0.77435170      -2.01871605
H       -0.41352474       1.48355846      -0.58606996
H        0.86080707      -0.89533378      -1.67813713
H        1.11217104      -1.48935179       0.75201036
H        2.83695343       0.01728163       1.66505708
H        2.61326302       0.83116166       0.03352691
H        1.62103417       1.51520354       1.40279353
17
Frame=8 idx=011518 GeodesicLength=0.738249958303326 rxn_smarts="[C:1]([C@@:2]1([H:11])[N:3]([H:12])[C@:4]1([C@@:5]1([H:14])[C:6]([H:15])([H:16])[N:7]1[H:17])[H:13])([H:8])([H:9])[H:10]>>[C:1]([C@@:2]1([H:11])[N:3]([H:12])[C@:4]1(/[C:5](=[N:7]/[C:6]([H:15])([H:16])[H:17])[H:14])[H:13])([H:8])([H:9])[H:10]"
C       -2.16531229      -0.33386240       0.04370752
C       -1.20175060      -0.31793721      -1.11151603
N       -0.36741496       0.84927600      -1.38566004
C        0.26962468      -0.37973188      -0.93064888
C        0.87721663      -0.46253015       0.43964074
C        2.16836090       0.47956274       0.97824588
N        0.64453125       0.48499538       1.37795491
H       -3.06675015       0.22870754      -0.20851293
H       -1.73349752       0.11080642       0.94101195
H       -2.46398687      -1.35753441       0.27951727
H       -1.59009298      -0.77422532      -2.01794094
H       -0.42147048       1.48667791      -0.59376577
H        0.84982990      -0.89009541      -1.69490635
H        1.11810407      -1.49143642       0.72971353
H        2.82489436       0.02620103       1.71460626
H        2.65386453       0.80282048       0.06116182
H        1.60384954       1.53830568       1.37739105
17
Frame=9 idx=011518 GeodesicLength=0.830401951843986 rxn_smarts="[C:1]([C@@:2]1([H:11])[N:3]([H:12])[C@:4]1([C@@:5]1([H:14])[C:6]([H:15])([H:16])[N:7]1[H:17])[H:13])([H:8])([H:9])[H:10]>>[C:1]([C@@:2]1([H:11])[N:3]([H:12])[C@:4]1(/[C:5](=[N:7]/[C:6]([H:15])([H:16])[H:17])[H:14])[H:13])([H:8])([H:9])[H:10]"
C       -2.16477842      -0.33633788       0.04903842
C       -1.20973428      -0.31766687      -1.11309367
N       -0.37972343       0.85100726      -1.39250597
C        0.26346018      -0.37673335      -0.94228560
C        0.88125049      -0.46331309       0.42180841
C        2.17839272       0.47648489       1.00025717
N        0.66391574       0.48700828       1.36020931
H       -3.06898907       0.22498789      -0.19591387
H       -1.72715438       0.10811502       0.94358898
H       -2.45981282      -1.36072162       0.28625813
H       -1.60342313      -0.77450059      -2.01691329
H       -0.42993509       1.48998790      -0.60192359
H        0.83872851      -0.88439360      -1.71198218
H        1.12397427      -1.49263647       0.70717146
H        2.81126306       0.03479864       1.76424094
H        2.69448791       0.77390579       0.09110154
H        1.58807773       1.56000781       1.35094382
17
Frame=10 idx=011518 GeodesicLength=0.9225278109177748 rxn_smarts="[C:1]([C@@:2]1([H:11])[N:3]([H:12])[C@:4]1([C@@:5]1([H:14])[C:6]([H:15])([H:16])[N:7]1[H:17])[H:13])([H:8])([H:9])[H:10]>>[C:1]([C@@:2]1([H:11])[N:3]([H:12])[C@:4]1(/[C:5](=[N:7]/[C:6]([H:15])([H:16])[H:17])[H:14])[H:13])([H:8])([H:9])[H:10]"
C       -2.16396083      -0.33900860       0.05459805
C       -1.21781711      -0.31751060      -1.11464808
N       -0.39261307       0.85283302      -1.39971052
C        0.25717939      -0.37336687      -0.95430107
C        0.88559309      -0.46323636       0.40335386
C        2.18842612       0.47311720       1.02293245
N        0.68351975       0.49005575       1.34147354
H       -3.07110913       0.22077678      -0.18290398
H       -1.72043808       0.10550311       0.94617100
H       -2.45500038      -1.36414899       0.29342796
H       -1.61692865      -0.77517800      -2.01564804
H       -0.43893775       1.49351496      -0.61055200
H        0.82746245      -0.87822163      -1.72946647
H        1.12979883      -1.49296763       0.68432030
H        2.79584558       0.04315398       1.81409794
H        2.73509087       0.74422586       0.12340954
H        1.57388891       1.58045801       1.32344552
17
Frame=11 idx=011518 GeodesicLength=1.01461188447922 rxn_smarts="[C:1]([C@@:2]1([H:11])[N:3]([H:12])[C@:4]1([C@@:5]1([H:14])[C:6]([H:15])([H:16])[N:7]1[H:17])[H:13])([H:8])([H:9])[H:10]>>[C:1]([C@@:2]1([H:11])[N:3]([H:12])[C@:4]1(/[C:5](=[N:7]/[C:6]([H:15])([H:16])[H:17])[H:14])[H:13])([H:8])([H:9])[H:10]"
C       -2.16280567      -0.34188782       0.06042090
C       -1.22600612      -0.31746389      -1.11617012
N       -0.40612528       0.85475785      -1.40727710
C        0.25077060      -0.36961229      -0.96674816
C        0.89030066      -0.46227789       0.38417524
C        2.19837103       0.46943122       1.04632415
N        0.70340005       0.49413747       1.32165338
H       -3.07306714       0.21604757      -0.16940017
H       -1.71326575       0.10295417       0.94876940
H       -2.44946886      -1.36782601       0.30105671
H       -1.63064449      -0.77624996      -2.01411461
H       -0.44849642       1.49725190      -0.61965385
H        0.81598665      -0.87154811      -1.74743244
H        1.13561398      -1.49240896       0.66106726
H        2.77837381       0.05134809       1.86428132
H        2.77562681       0.71357163       0.15821990
H        1.56143613       1.59977503       1.29482817
17
Frame=12 idx=011518 GeodesicLength=1.1066497261650035 rxn_smarts="[C:1]([C@@:2]1([H:11])[N:3]([H:12])[C@:4]1([C@@:5]1([H:14])[C:6]([H:15])([H:16])[N:7]1[H:17])[H:13])([H:8])([H:9])[H:10]>>[C:1]([C@@:2]1([H:11])[N:3]([H:12])[C@:4]1(/[C:5](=[N:7]/[C:6]([H:15])([H:16])[H:17])[H:14])[H:13])([H:8])([H:9])[H:10]"
C       -2.16124984      -0.34498954       0.06655296
C       -1.23430390      -0.31752377      -1.11765219
N       -0.42029868       0.85679397      -1.41521690
C        0.24422494      -0.36545169      -0.97969133
C        0.89543731      -0.46041823       0.36416012
C        2.20811745       0.46539903       1.07048943
N        0.72362180       0.49925679       1.30065381
H       -3.07480840       0.21077999      -0.15530138
H       -1.70554189       0.10045169       0.95140976
H       -2.44313115      -1.37177047       0.30918592
H       -1.64460327      -0.77771360      -2.01228672
H       -0.45862405       1.50120399      -0.62923396
H        0.80425458      -0.86434860      -1.76597400
H        1.14146177      -1.49095054       0.63731268
H        2.75853897       0.05948023       1.91487734
H        2.81602196       0.68172071       0.19569624
H        1.55088240       1.61808003       1.26501822
17
Frame=13 idx=011518 GeodesicLength=1.1986347909975303 rxn_smarts="[C:1]([C@@:2]1([H:11])[N:3]([H:12])[C@:4]1([C@@:5]1([H:14])[C:6]([H:15])([H:16])[N:7]1[H:17])[H:13])([H:8])([H:9])[H:10]>>[C:1]([C@@:2]1([H:11])[N:3]([H:12])[C@:4]1(/[C:5](=[N:7]/[C:6]([H:15])([H:16])[H:17])[H:14])[H:13])([H:8])([H:9])[H:10]"
C       -2.15921100      -0.34833411       0.07304451
C       -1.24271012      -0.31768527      -1.11908322
N       -0.43518279       0.85895470      -1.42353693
C        0.23753142      -0.36085641      -0.99319757
C        0.90107192      -0.45762245       0.34318681
C        2.21753556       0.46098654       1.09549331
N        0.74426954       0.50543801       1.27836254
H       -3.07626107       0.20493920      -0.14049425
H       -1.69714694       0.09797126       0.95411835
H       -2.43586936      -1.37600457       0.31785732
H       -1.65883671      -0.77956438      -2.01013151
H       -0.46934255       1.50537455      -0.63929363
H        0.79221074      -0.85658436      -1.78518742
H        1.14737399      -1.48856309       0.61295798
H        2.73597808       0.06765191       1.96595091
H        2.85616253       0.64841058       0.23604481
H        1.54242674       1.63548789       1.23390798
17
Frame=14 idx=011518 GeodesicLength=1.2905630151880991 rxn_smarts="[C:1]([C@@:2]1([H:11])[N:3]([H:12])[C@:4]1([C@@:5]1([H:14])[C:6]([H:15])([H:16])[N:7]1[H:17])[H:13])([H:8])([H:9])[H:10]>>[C:1]([C@@:2]1([H:11])[N:3]([H:12])[C@:4]1(/[C:5](=[N:7]/[C:6]([H:15])([H:16])[H:17])[H:14])[H:13])([H:8])([H:9])[H:10]"
C       -2.15659575      -0.35194010       0.07996066
C       -1.25122009      -0.31794275      -1.12044573
N       -0.45082247       0.86125848      -1.43224406
C        0.23068498      -0.35579806      -1.00734597
C        0.90729003      -0.45386126       0.32110796
C        2.22646295       0.45615756       1.12140437
N        0.76543220       0.51269314       1.25465114
H       -3.07734353       0.19849299      -0.12483987
H       -1.68794695       0.09549539       0.95692874
H       -2.42755342      -1.38055207       0.32713231
H       -1.67337906      -0.78179814      -2.00760338
H       -0.48066314       1.50977358      -0.64983352
H        0.77980045      -0.84821491      -1.80518913
H        1.15340322      -1.48522750       0.58787453
H        2.71026703       0.07601169       2.01754603
H        2.89590808       0.61335155       0.27953012
H        1.53627546       1.65210041       1.20136580
17
Frame=15 idx=011518 GeodesicLength=1.3824332942823032 rxn_smarts="[C:1]([C@@:2]1([H:11])[N:3]([H:12])[C@:4]1([C@@:5]1([H:14])[C:6]([H:15])([H:16])[N:7]1[H:17])[H:13])([H:8])([H:9])[H:10]>>[C:1]([C@@:2]1([H:11])[N:3]([H:12])[C@:4]1(/[C:5](=[N:7]/[C:6]([H:15])([H:16])[H:17])[H:14])[H:13])([H:8])([H:9])[H:10]"
C       -2.15328306      -0.35583799       0.08737628
C       -1.25982490      -0.31828810      -1.12171806
N       -0.46727896       0.86373041      -1.44134207
C        0.22367882      -0.35023070      -1.02222414
C        0.91418500      -0.44908239       0.29775868
C        2.23470574       0.45086642       1.14830329
N        0.78722521       0.52106908       1.22936202
H       -3.07795186       0.19138339      -0.10817566
H       -1.67777480       0.09299682       0.95987873
H       -2.41800455      -1.38545010       0.33707909
H       -1.68826305      -0.78441110      -2.00464821
H       -0.49261073       1.51441505      -0.66085050
H        0.76695870      -0.83917771      -1.82610645
H        1.15958157      -1.48090071       0.56193361
H        2.68089476       0.08471188       2.06968170
H        2.93505619       0.57619243       0.32647933
H        1.53270594       1.66801331       1.16721237
17
Frame=16 idx=011518 GeodesicLength=1.4742494154616808 rxn_smarts="[C:1]([C@@:2]1([H:11])[N:3]([H:12])[C@:4]1([C@@:5]1([H:14])[C:6]([H:15])([H:16])[N:7]1[H:17])[H:13])([H:8])([H:9])[H:10]>>[C:1]([C@@:2]1([H:11])[N:3]([H:12])[C@:4]1(/[C:5](=[N:7]/[C:6]([H:15])([H:16])[H:17])[H:14])[H:13])([H:8])([H:9])[H:10]"
C       -2.14912144      -0.36006008       0.09538405
C       -1.26850931      -0.31871229      -1.12286894
N       -0.48461885       0.86639663      -1.45083131
C        0.21650624      -0.34410354      -1.03793331
C        0.92187267      -0.44322856       0.27293949
C        2.24201555       0.44506692       1.17627741
N        0.80978128       0.53060957       1.20230824
H       -3.07794834       0.18355142      -0.09030299
H       -1.66642232       0.09044274       0.96301560
H       -2.40701224      -1.39073565       0.34777988
H       -1.70352671      -0.78739709      -2.00119355
H       -0.50520488       1.51931227      -0.67233843
H        0.75360630      -0.82939958      -1.84808842
H        1.16595886      -1.47553326       0.53497535
H        2.64725186       0.09395509       2.12233674
H        2.97333496       0.53653637       0.37731091
H        1.53203637       1.68329905       1.13122927
