18
Frame=0 idx=005210 GeodesicLength=0.0 rxn_smarts="[C:1]([C:2]1([C:3]([H:10])([H:11])[H:12])[C:4]([H:13])([H:14])[C:5]([H:15])([H:16])[C:6]1([H:17])[H:18])([H:7])([H:8])[H:9]>>[C:1]([C:2]1([C:3]([H:10])([H:11])[H:12])[C:4]([H:13])=[C:5]([H:15])[C:6]1([H:17])[H:18])([H:7])([H:8])[H:9].[H:14][H:16]"
C       -1.28286756      -1.00957103       0.52788912
C       -0.42415783       0.08163882      -0.09635340
C       -1.27696305       1.15740382      -0.74384600
C        0.76832739       0.55174421       0.75990674
C        1.64343062      -0.38585514       0.16201161
C        0.72038885      -0.56903831      -1.03267482
H       -1.90419279      -1.49454178      -0.22938235
H       -0.67039535      -1.77483675       1.00751842
H       -1.94866072      -0.58882475       1.28473588
H       -1.90724251       0.73771401      -1.53257818
H       -0.66051645       1.94044246      -1.19047747
H       -1.93718198       1.62315803      -0.00746843
H        0.97377409       1.61494589       0.76001892
H        1.82480452       0.52289158       1.82871346
H        2.00747341      -1.26483814       0.67321530
H        2.61795946       0.32593069       1.10455366
H        0.53667151      -1.57719837      -1.41260155
H        0.91934832       0.10883481      -1.86318084
18
Frame=1 idx=005210 GeodesicLength=0.07687987312047459 rxn_smarts="[C:1]([C:2]1([C:3]([H:10])([H:11])[H:12])[C:4]([H:13])([H:14])[C:5]([H:15])([H:16])[C:6]1([H:17])[H:18])([H:7])([H:8])[H:9]>>[C:1]([C:2]1([C:3]([H:10])([H:11])[H:12])[C:4]([H:13])=[C:5]([H:15])[C:6]1([H:17])[H:18])([H:7])([H:8])[H:9].[H:14][H:16]"
C       -1.29975183      -1.01082613       0.52246787
C       -0.42607713       0.07387333      -0.09183086
C       -1.26609704       1.15706392      -0.74497753
C        0.76096656       0.53736521       0.77565114
C        1.64334950      -0.38422598       0.16105278
C        0.71473988      -0.57622894      -1.02598251
H       -1.92241736      -1.48638321      -0.23981458
H       -0.69734278      -1.78424382       1.00184673
H       -1.96652614      -0.58705796       1.27682940
H       -1.89220188       0.74457952      -1.54075056
H       -0.63930098       1.93660486      -1.18340562
H       -1.93083146       1.62589135      -0.01463994
H        0.91932342       1.60775208       0.82780460
H        1.86757732       0.53740144       1.82438071
H        2.03898601      -1.25745348       0.65960161
H        2.64251339       0.36704585       1.04871467
H        0.53601294      -1.59059204      -1.39133617
H        0.91707759       0.08943400      -1.86561174
18
Frame=2 idx=005210 GeodesicLength=0.1536827832628056 rxn_smarts="[C:1]([C:2]1([C:3]([H:10])([H:11])[H:12])[C:4]([H:13])([H:14])[C:5]([H:15])([H:16])[C:6]1([H:17])[H:18])([H:7])([H:8])[H:9]>>[C:1]([C:2]1([C:3]([H:10])([H:11])[H:12])[C:4]([H:13])=[C:5]([H:15])[C:6]1([H:17])[H:18])([H:7])([H:8])[H:9].[H:14][H:16]"
C       -1.31724764      -1.01212326       0.51653483
C       -0.42790436       0.06556261      -0.08706543
C       -1.25400367       1.15705243      -0.74545632
C        0.75354717       0.52186655       0.79197495
C        1.64334885      -0.38283669       0.16047250
C        0.70923246      -0.58441658      -1.01874335
H       -1.94099989      -1.47762948      -0.25119252
H       -0.72554879      -1.79391946       0.99573241
H       -1.98514247      -0.58521833       1.26819625
H       -1.87570991       0.75258449      -1.54869610
H       -0.61614584       1.93284466      -1.17465081
H       -1.92326076       1.62898489      -0.02128190
H        0.86314513       1.59468319       0.89954032
H        1.91146273       0.55604217       1.81688106
H        2.07168829      -1.24862291       0.64588880
H        2.66322762       0.41166965       0.98850919
H        0.53560231      -1.60494634      -1.36889296
H        0.91470877       0.06842240      -1.86775090
18
Frame=3 idx=005210 GeodesicLength=0.23041230831088422 rxn_smarts="[C:1]([C:2]1([C:3]([H:10])([H:11])[H:12])[C:4]([H:13])([H:14])[C:5]([H:15])([H:16])[C:6]1([H:17])[H:18])([H:7])([H:8])[H:9]>>[C:1]([C:2]1([C:3]([H:10])([H:11])[H:12])[C:4]([H:13])=[C:5]([H:15])[C:6]1([H:17])[H:18])([H:7])([H:8])[H:9].[H:14][H:16]"
C       -1.33537428      -1.01347415       0.51001751
C       -0.42961454       0.05664925      -0.08202524
C       -1.24054292       1.15743382      -0.74513032
C        0.74607035       0.50513981       0.80895195
C        1.64347649      -0.38170867       0.16033862
C        0.70391324      -0.59369444      -1.01089908
H       -1.95990719      -1.46822403      -0.26365288
H       -0.75508257      -1.80389866       0.98910082
H       -2.00454693      -0.58331194       1.25875623
H       -1.85765212       0.76189707      -1.55627182
H       -0.59088666       1.92914992      -1.16402882
H       -1.91425257       1.63255173      -0.02718560
H        0.80563789       1.57494016       0.97504619
H        1.95605065       0.57971712       1.80574686
H        2.10562585      -1.23820629       0.63212815
H        2.67934010       0.45972330       0.92380842
H        0.53551575      -1.62036136      -1.34514882
H        0.91222946       0.04567736      -1.86955217
18
Frame=4 idx=005210 GeodesicLength=0.3070306763358277 rxn_smarts="[C:1]([C:2]1([C:3]([H:10])([H:11])[H:12])[C:4]([H:13])([H:14])[C:5]([H:15])([H:16])[C:6]1([H:17])[H:18])([H:7])([H:8])[H:9]>>[C:1]([C:2]1([C:3]([H:10])([H:11])[H:12])[C:4]([H:13])=[C:5]([H:15])[C:6]1([H:17])[H:18])([H:7])([H:8])[H:9].[H:14][H:16]"
C       -1.35414752      -1.01489739       0.50282506
C       -0.43116837       0.04707112      -0.07665945
C       -1.22553756       1.15823374      -0.74377992
C        0.73853927       0.48705947       0.82665602
C        1.64378230      -0.38082583       0.16071757
C        0.69884172      -0.60411618      -1.00234906
H       -1.97910267      -1.45809113      -0.27732779
H       -0.78603879      -1.81422122       0.98181626
H       -2.02475495      -0.58138155       1.24840410
H       -1.83788750       0.77265528      -1.56322124
H       -0.56333226       1.92545386      -1.15132208
H       -1.90349564       1.63665619      -0.03206224
H        0.74741076       1.54779373       1.05372127
H        2.00065266       0.60939918       1.79046807
H        2.14074882      -1.22600053       0.61838325
H        2.69001859       0.51093906       0.85456782
H        0.53582041      -1.63686214      -1.31995632
H        0.90965072       0.02113434      -1.87088134
18
Frame=5 idx=005210 GeodesicLength=0.38354884622439844 rxn_smarts="[C:1]([C:2]1([C:3]([H:10])([H:11])[H:12])[C:4]([H:13])([H:14])[C:5]([H:15])([H:16])[C:6]1([H:17])[H:18])([H:7])([H:8])[H:9]>>[C:1]([C:2]1([C:3]([H:10])([H:11])[H:12])[C:4]([H:13])=[C:5]([H:15])[C:6]1([H:17])[H:18])([H:7])([H:8])[H:9].[H:14][H:16]"
C       -1.37351952      -1.01638602       0.49491806
C       -0.43251918       0.03678806      -0.07093366
C       -1.20886534       1.15951470      -0.74122666
C        0.73097406       0.46749135       0.84515059
C        1.64436120      -0.38015640       0.16162312
C        0.69408684      -0.61574678      -0.99307112
H       -1.99847182      -1.44715785      -0.29230949
H       -0.81840724      -1.82490993       0.97381998
H       -2.04572579      -0.57941091       1.23712295
H       -1.81635575       0.78501774      -1.56933032
H       -0.53338723       1.92169623      -1.13645340
H       -1.89071330       1.64145586      -0.03559918
H        0.68929835       1.51263986       1.13495627
H        2.04422377       0.64597231       1.77065082
H        2.17707119      -1.21185819       0.60463337
H        2.69437965       0.56486251       0.78101146
H        0.53663525      -1.65451968      -1.29320954
H        0.90693485      -0.00529287      -1.87175324
18
Frame=6 idx=005210 GeodesicLength=0.4599974456280289 rxn_smarts="[C:1]([C:2]1([C:3]([H:10])([H:11])[H:12])[C:4]([H:13])([H:14])[C:5]([H:15])([H:16])[C:6]1([H:17])[H:18])([H:7])([H:8])[H:9]>>[C:1]([C:2]1([C:3]([H:10])([H:11])[H:12])[C:4]([H:13])=[C:5]([H:15])[C:6]1([H:17])[H:18])([H:7])([H:8])[H:9].[H:14][H:16]"
C       -1.39341147      -1.01792675       0.48624905
C       -0.43360745       0.02578674      -0.06481052
C       -1.19042972       1.16125622      -0.73724856
C        0.72343608       0.44635548       0.86443424
C        1.64532413      -0.37957150       0.16301703
C        0.68971708      -0.62855752      -0.98301825
H       -2.01790282      -1.43536573      -0.30862950
H       -0.85215150      -1.83595696       0.96497799
H       -2.06733974      -0.57740904       1.22488439
H       -1.79305585       0.79900573      -1.57425536
H       -0.50101791       1.91774023      -1.11937089
H       -1.87558722       1.64700092      -0.03743481
H        0.63242088       1.46933211       1.21748685
H        2.08535444       0.69005274       1.74607903
H        2.21443480      -1.19557053       0.59081044
H        2.69172653       0.62066899       0.70371533
H        0.53803264      -1.67327130      -1.26481094
H        0.90405711      -0.03356983      -1.87207552
18
Frame=7 idx=005210 GeodesicLength=0.5364248914909424 rxn_smarts="[C:1]([C:2]1([C:3]([H:10])([H:11])[H:12])[C:4]([H:13])([H:14])[C:5]([H:15])([H:16])[C:6]1([H:17])[H:18])([H:7])([H:8])[H:9]>>[C:1]([C:2]1([C:3]([H:10])([H:11])[H:12])[C:4]([H:13])=[C:5]([H:15])[C:6]1([H:17])[H:18])([H:7])([H:8])[H:9].[H:14][H:16]"
C       -1.41359667      -1.01940454       0.47680711
C       -0.43436090       0.01410806      -0.05829573
C       -1.17022049       1.16333688      -0.73171428
C        0.71603347       0.42364714       0.88440767
C        1.64674954      -0.37882997       0.16476832
C        0.68571996      -0.64242875      -0.97221406
H       -2.03715823      -1.42261946      -0.32623816
H       -0.88703634      -1.84717481       0.95519799
H       -2.08925577      -0.57527591       1.21170874
H       -1.76809788       0.81446191      -1.57771264
H       -0.46636551       1.91331022      -1.10020124
H       -1.85783455       1.65323969      -0.03728374
H        0.57798942       1.41822263       1.29997746
H        2.12239137       0.74164072       1.71689543
H        2.25258114      -1.17691656       0.57673012
H        2.68162054       0.67721701       0.62371563
H        0.54000404      -1.69292134      -1.23471921
H        0.90083686      -0.06361293      -1.87182944
18
Frame=8 idx=005210 GeodesicLength=0.6129726989569341 rxn_smarts="[C:1]([C:2]1([C:3]([H:10])([H:11])[H:12])[C:4]([H:13])([H:14])[C:5]([H:15])([H:16])[C:6]1([H:17])[H:18])([H:7])([H:8])[H:9]>>[C:1]([C:2]1([C:3]([H:10])([H:11])[H:12])[C:4]([H:13])=[C:5]([H:15])[C:6]1([H:17])[H:18])([H:7])([H:8])[H:9].[H:14][H:16]"
C       -1.43387370      -1.02078498       0.46676521
C       -0.43472167       0.00185057      -0.05141124
C       -1.14839339       1.16576196      -0.72461193
C        0.70891110       0.39944099       0.90489573
C        1.64882070      -0.37773325       0.16659823
C        0.68221060      -0.65724184      -0.96083511
H       -2.05605582      -1.40896249      -0.34485278
H       -0.92278562      -1.85856985       0.94455595
H       -2.11121427      -0.57294205       1.19790743
H       -1.74173515       0.83127106      -1.57952702
H       -0.42974747       1.90839037      -1.07931700
H       -1.83745852       1.66026719      -0.03492277
H        0.52728807       1.36024561       1.38072318
H        2.15351632       0.80015407       1.68378231
H        2.29122781      -1.15592578       0.56209779
H        2.66402512       0.73338144       0.54243202
H        0.54269511      -1.71337072      -1.20306483
H        0.89729078      -0.09523231      -1.87121516
18
Frame=9 idx=005210 GeodesicLength=0.6896481025958044 rxn_smarts="[C:1]([C:2]1([C:3]([H:10])([H:11])[H:12])[C:4]([H:13])([H:14])[C:5]([H:15])([H:16])[C:6]1([H:17])[H:18])([H:7])([H:8])[H:9]>>[C:1]([C:2]1([C:3]([H:10])([H:11])[H:12])[C:4]([H:13])=[C:5]([H:15])[C:6]1([H:17])[H:18])([H:7])([H:8])[H:9].[H:14][H:16]"
C       -1.45393174      -1.02191573       0.45631521
C       -0.43462977      -0.01083666      -0.04424046
C       -1.12517304       1.16835911      -0.71606106
C        0.70227083       0.37392195       0.92556082
C        1.65159070      -0.37600910       0.16817315
C        0.67918379      -0.67273993      -0.94909623
H       -2.07435697      -1.39437980      -0.36408647
H       -0.95897617      -1.86991075       0.93314120
H       -2.13275708      -0.57024952       1.18378886
H       -1.71429102       0.84905651      -1.57961078
H       -0.39160463       1.90277246      -1.05722694
H       -1.81453306       1.66792028      -0.03033406
H        0.48140631       1.29675856       1.45817329
H        2.17720656       0.86427518       1.64785470
H        2.32987476      -1.13266320       0.54656287
H        2.63932217       0.78805703       0.46152704
H        0.54609412      -1.73429256      -1.17004525
H        0.89330425      -0.12812383      -1.87039590
18
Frame=10 idx=005210 GeodesicLength=0.7666550556806289 rxn_smarts="[C:1]([C:2]1([C:3]([H:10])([H:11])[H:12])[C:4]([H:13])([H:14])[C:5]([H:15])([H:16])[C:6]1([H:17])[H:18])([H:7])([H:8])[H:9]>>[C:1]([C:2]1([C:3]([H:10])([H:11])[H:12])[C:4]([H:13])=[C:5]([H:15])[C:6]1([H:17])[H:18])([H:7])([H:8])[H:9].[H:14][H:16]"
C       -1.47347240      -1.02267322       0.44565420
C       -0.43406700      -0.02376954      -0.03687505
C       -1.10090349       1.17095747      -0.70628402
C        0.69629200       0.34743138       0.94607156
C        1.65504422      -0.37342939       0.16921836
C        0.67661688      -0.68863443      -0.93720947
H       -2.09186220      -1.37894708      -0.38355290
H       -0.99516057      -1.88098427       0.92106629
H       -2.15343757      -0.56706471       1.16966757
H       -1.68615378       0.86735303      -1.57804073
H       -0.35252485       1.89636228      -1.03446034
H       -1.78935294       1.67599585      -0.02367768
H        0.44075195       1.22955889       1.53110288
H        2.19274428       0.93220066       1.61041649
H        2.36797244      -1.10730180       0.52993198
H        2.60854350       0.84018150       0.38239766
H        0.55013286      -1.75531666      -1.13594671
H        0.88883669      -0.16191997      -1.86948009
18
Frame=11 idx=005210 GeodesicLength=0.8440260965318731 rxn_smarts="[C:1]([C:2]1([C:3]([H:10])([H:11])[H:12])[C:4]([H:13])([H:14])[C:5]([H:15])([H:16])[C:6]1([H:17])[H:18])([H:7])([H:8])[H:9]>>[C:1]([C:2]1([C:3]([H:10])([H:11])[H:12])[C:4]([H:13])=[C:5]([H:15])[C:6]1([H:17])[H:18])([H:7])([H:8])[H:9].[H:14][H:16]"
C       -1.49224366      -1.02294998       0.43500816
C       -0.43303556      -0.03676120      -0.02942547
C       -1.07594600       1.17340547      -0.69558556
C        0.69112965       0.32035515       0.96607025
C        1.65908698      -0.36988675       0.16953103
C        0.67449022      -0.70463256      -0.92539745
H       -2.10842231      -1.36275405      -0.40283521
H       -1.03092478      -1.89159312       0.90850036
H       -2.17289254      -0.56328546       1.15588244
H       -1.65768442       0.88571963      -1.57501037
H       -0.31308115       1.88913473      -1.01156930
H       -1.76233299       1.68426378      -0.01525500
H        0.40537706       1.16023951       1.59876696
H        2.20001788       1.00213284       1.57277648
H        2.40494625      -1.08019979       0.51213396
H        2.57283732       0.88908618       0.30610037
H        0.55474678      -1.77606857      -1.10111442
H        0.88393128      -0.19620582      -1.86857721
18
Frame=12 idx=005210 GeodesicLength=0.9217808877545687 rxn_smarts="[C:1]([C:2]1([C:3]([H:10])([H:11])[H:12])[C:4]([H:13])([H:14])[C:5]([H:15])([H:16])[C:6]1([H:17])[H:18])([H:7])([H:8])[H:9]>>[C:1]([C:2]1([C:3]([H:10])([H:11])[H:12])[C:4]([H:13])=[C:5]([H:15])[C:6]1([H:17])[H:18])([H:7])([H:8])[H:9].[H:14][H:16]"
C       -1.51006080      -1.02267636       0.42456173
C       -0.43156597      -0.04963789      -0.02199524
C       -1.05065111       1.17558079      -0.68428268
C        0.68687697       0.29312739       0.98525465
C        1.66356642      -0.36537677       0.16904014
C        0.67277719      -0.72045796      -0.91383336
H       -2.12394008      -1.34592350      -0.42159830
H       -1.06592436      -1.90156795       0.89560821
H       -2.19087223      -0.55886774       1.14269821
H       -1.62919429       0.90376168      -1.57078220
H       -0.27380240       1.88113413      -0.98902075
H       -1.73394588       1.69249320      -0.00543701
H        0.37491360       1.09009461       1.66094805
H        2.19955124       1.07253945       1.53599058
H        2.44027286      -1.05181447       0.49328979
H        2.53344966       0.93433975       0.23318900
H        0.55985151      -1.79619062      -1.06590710
H        0.87869767      -0.23055773      -1.86772370
18
Frame=13 idx=005210 GeodesicLength=0.9999046730641857 rxn_smarts="[C:1]([C:2]1([C:3]([H:10])([H:11])[H:12])[C:4]([H:13])([H:14])[C:5]([H:15])([H:16])[C:6]1([H:17])[H:18])([H:7])([H:8])[H:9]>>[C:1]([C:2]1([C:3]([H:10])([H:11])[H:12])[C:4]([H:13])=[C:5]([H:15])[C:6]1([H:17])[H:18])([H:7])([H:8])[H:9].[H:14][H:16]"
C       -1.52680212      -1.02182933       0.41444904
C       -0.42970942      -0.06225034      -0.01466743
C       -1.02534877       1.17741475      -0.67266091
C        0.68355493       0.26617606       1.00341749
C        1.66831255      -0.35997833       0.16779617
C        0.67145751      -0.73587249      -0.90263041
H       -2.13836047      -1.32859570      -0.43960686
H       -1.09988590      -1.91079853       0.88253166
H       -2.20723620      -0.55383181       1.13029825
H       -1.60095238       0.92118206      -1.56563824
H       -0.23516428       1.87248154      -0.96716278
H       -1.70468440       1.70050075       0.00540310
H        0.34875366       1.02007091       1.71776197
H        2.19227298       1.14225851       1.50080308
H        2.47353564      -1.02264895       0.47368870
H        2.49159122       0.97567832       0.16378437
H        0.56536663      -1.81537581      -1.03066438
H        0.87329882      -0.26458160      -1.86690281
18
Frame=14 idx=005210 GeodesicLength=1.078358410154561 rxn_smarts="[C:1]([C:2]1([C:3]([H:10])([H:11])[H:12])[C:4]([H:13])([H:14])[C:5]([H:15])([H:16])[C:6]1([H:17])[H:18])([H:7])([H:8])[H:9]>>[C:1]([C:2]1([C:3]([H:10])([H:11])[H:12])[C:4]([H:13])=[C:5]([H:15])[C:6]1([H:17])[H:18])([H:7])([H:8])[H:9].[H:14][H:16]"
C       -1.54241380      -1.02042080       0.40475554
C       -0.42752750      -0.07448095      -0.00750467
C       -1.00031274       1.17887807      -0.66095432
C        0.68112528       0.23988376       1.02043897
C        1.67316413      -0.35381377       0.16592471
C        0.67051054      -0.75068377      -0.89185020
H       -2.15167453      -1.31091006      -0.45671717
H       -1.13262529      -1.91922209       0.86938221
H       -2.22195165      -0.54824561       1.11878870
H       -1.57317115       0.93777803      -1.55983587
H       -0.19753899       1.86332780      -0.94624085
H       -1.67499032       1.70814862       0.01693447
H        0.32622123       0.95074061       1.76956448
H        2.17927593       1.21054883       1.46765864
H        2.50445509      -0.99319312       0.45368510
H        2.44832673       1.01298756       0.09771225
H        0.57121905      -1.83338530      -0.99567535
H        0.86790798      -0.29793780      -1.86606666
18
Frame=15 idx=005210 GeodesicLength=1.1570769516562958 rxn_smarts="[C:1]([C:2]1([C:3]([H:10])([H:11])[H:12])[C:4]([H:13])([H:14])[C:5]([H:15])([H:16])[C:6]1([H:17])[H:18])([H:7])([H:8])[H:9]>>[C:1]([C:2]1([C:3]([H:10])([H:11])[H:12])[C:4]([H:13])=[C:5]([H:15])[C:6]1([H:17])[H:18])([H:7])([H:8])[H:9].[H:14][H:16]"
C       -1.55688963      -1.01848834       0.39552387
C       -0.42508364      -0.08624173      -0.00054691
C       -0.97576099       1.17997518      -0.64933581
C        0.67950691       0.21456640       1.03627936
C        1.67798642      -0.34701490       0.16358923
C        0.66991396      -0.76474520      -0.88151093
H       -2.16390306      -1.29299582      -0.47286158
H       -1.16402873      -1.92681857       0.85623701
H       -2.23505963      -0.54220931       1.10820893
H       -1.54601298       0.95343360      -1.55358778
H       -0.16120489       1.85383946      -0.92639872
H       -1.64524148       1.71534483       0.02888651
H        0.30667062       0.88238706       1.81680488
H        2.16165229       1.27701793       1.43675825
H        2.53287164      -0.96389388       0.43365676
H        2.40455610       1.04624684       0.03461773
H        0.57734472      -1.85004885      -0.96116768
H        0.86268238      -0.33035472      -1.86515313
18
Frame=16 idx=005210 GeodesicLength=1.2359867821150925 rxn_smarts="[C:1]([C:2]1([C:3]([H:10])([H:11])[H:12])[C:4]([H:13])([H:14])[C:5]([H:15])([H:16])[C:6]1([H:17])[H:18])([H:7])([H:8])[H:9]>>[C:1]([C:2]1([C:3]([H:10])([H:11])[H:12])[C:4]([H:13])=[C:5]([H:15])[C:6]1([H:17])[H:18])([H:7])([H:8])[H:9].[H:14][H:16]"
C       -1.57025976      -1.01608433       0.38676474
C       -0.42243954      -0.09747180       0.00618645
C       -0.95186280       1.18073682      -0.63792256
C        0.67859174       0.19046342       1.05096952
C        1.68268159      -0.33970295       0.16096053
C        0.66964547      -0.77795724      -0.87160098
H       -2.17508930      -1.27496461      -0.48803231
H       -1.19404048      -1.93360163       0.84314669
H       -2.24665367      -0.53583527       1.09855229
H       -1.51960061       0.96810611      -1.54706332
H       -0.12635890       1.84418431      -0.90769652
H       -1.61575239       1.72204303       0.04105358
H        0.28951594       0.81508885       1.85994997
H        2.14041498       1.34152352       1.40813427
H        2.55874719      -0.93512381       0.41396093
H        2.36101913       1.07549991      -0.02594876
H        0.58369097      -1.86526457      -0.92730808
H        0.85775045      -0.36163973      -1.86410645
