12
Frame=0 idx=003874 GeodesicLength=0.0 rxn_smarts="[C:1]1([H:7])([H:8])[C@@:2]2([H:9])[O:3][C@:4]1([H:10])[C:5]([H:11])=[C:6]2[H:12]>>[C:1]1([H:7])([H:8])[C@@:2]2([H:9])[O:3][C@:4]1([H:10])[C:5][C:6]2([H:11])[H:12]"
C       -1.01105919       0.36130045       0.59302377
C       -0.40399221      -0.84727369      -0.16381031
O       -0.40703063      -0.04544117      -1.36158100
C       -0.07662401       1.03800013      -0.44121911
C        1.31443533       0.68178115       0.14219385
C        1.06069940      -0.68775433       0.26116806
H       -2.06252036       0.51125463       0.35761810
H       -0.80353422       0.47905391       1.65576559
H       -0.86895262      -1.82563187      -0.25815028
H       -0.23989878       2.02959122      -0.85131991
H        1.80408482      -0.27167115      -0.67833834
H        1.69439251      -1.42320933       0.74464959
12
Frame=1 idx=003874 GeodesicLength=0.04150342544354658 rxn_smarts="[C:1]1([H:7])([H:8])[C@@:2]2([H:9])[O:3][C@:4]1([H:10])[C:5]([H:11])=[C:6]2[H:12]>>[C:1]1([H:7])([H:8])[C@@:2]2([H:9])[O:3][C@:4]1([H:10])[C:5][C:6]2([H:11])[H:12]"
C       -1.00977861       0.35977470       0.59421581
C       -0.40488844      -0.84742945      -0.16595638
O       -0.41225616      -0.04398914      -1.36312116
C       -0.07866782       1.03835949      -0.44305167
C        1.30955432       0.67963747       0.13791005
C        1.06125541      -0.69152145       0.25430003
H       -2.06169341       0.51227917       0.36216227
H       -0.79919464       0.47623303       1.65650863
H       -0.87142123      -1.82507983      -0.25993589
H       -0.24284151       2.03073224      -0.85094567
H        1.82455009      -0.26817084      -0.68070576
H        1.68538201      -1.42082541       0.75861975
12
Frame=2 idx=003874 GeodesicLength=0.08299596062625436 rxn_smarts="[C:1]1([H:7])([H:8])[C@@:2]2([H:9])[O:3][C@:4]1([H:10])[C:5]([H:11])=[C:6]2[H:12]>>[C:1]1([H:7])([H:8])[C@@:2]2([H:9])[O:3][C@:4]1([H:10])[C:5][C:6]2([H:11])[H:12]"
C       -1.00845818       0.35822699       0.59542336
C       -0.40582544      -0.84762231      -0.16810380
O       -0.41759859      -0.04258928      -1.36465492
C       -0.08073644       1.03866777      -0.44492335
C        1.30468958       0.67738842       0.13346606
C        1.06182073      -0.69538325       0.24730582
H       -2.06082420       0.51329654       0.36680019
H       -0.79473457       0.47340798       1.65723845
H       -0.87395766      -1.82455333      -0.26167913
H       -0.24578488       2.03182026      -0.85060807
H        1.84542570      -0.26441656      -0.68260078
H        1.67598395      -1.41824324       0.77233616
12
Frame=3 idx=003874 GeodesicLength=0.12447703997879311 rxn_smarts="[C:1]1([H:7])([H:8])[C@@:2]2([H:9])[O:3][C@:4]1([H:10])[C:5]([H:11])=[C:6]2[H:12]>>[C:1]1([H:7])([H:8])[C@@:2]2([H:9])[O:3][C@:4]1([H:10])[C:5][C:6]2([H:11])[H:12]"
C       -1.00710045       0.35666194       0.59664554
C       -0.40680532      -0.84785214      -0.17024540
O       -0.42306105      -0.04124804      -1.36617869
C       -0.08283151       1.03892325      -0.44683759
C        1.29983767       0.67503556       0.12886242
C        1.06239154      -0.69933649       0.24019600
H       -2.05991403       0.51431045       0.37152916
H       -0.79015779       0.47058947       1.65795298
H       -0.87656411      -1.82405259      -0.26336681
H       -0.24872902       2.03285155      -0.85031624
H        1.86671835      -0.26040135      -0.68397480
H        1.66621572      -1.41548161       0.78573343
12
Frame=4 idx=003874 GeodesicLength=0.16595031401116145 rxn_smarts="[C:1]1([H:7])([H:8])[C@@:2]2([H:9])[O:3][C@:4]1([H:10])[C:5]([H:11])=[C:6]2[H:12]>>[C:1]1([H:7])([H:8])[C@@:2]2([H:9])[O:3][C@:4]1([H:10])[C:5][C:6]2([H:11])[H:12]"
C       -1.00570870       0.35508491       0.59788120
C       -0.40783142      -0.84811853      -0.17237404
O       -0.42864690      -0.03997176      -1.36768903
C       -0.08495506       1.03912445      -0.44879811
C        1.29499490       0.67258054       0.12409996
C        1.06296192      -0.70337733       0.23298194
H       -2.05896505       0.51532583       0.37634590
H       -0.78546883       0.46778903       1.65864997
H       -0.87924413      -1.82357741      -0.26498580
H       -0.25167437       2.03382250      -0.85007999
H        1.88843305      -0.25611767      -0.68477840
H        1.65610458      -1.41256457       0.79874638
12
Frame=5 idx=003874 GeodesicLength=0.2074200992219574 rxn_smarts="[C:1]1([H:7])([H:8])[C@@:2]2([H:9])[O:3][C@:4]1([H:10])[C:5]([H:11])=[C:6]2[H:12]>>[C:1]1([H:7])([H:8])[C@@:2]2([H:9])[O:3][C@:4]1([H:10])[C:5][C:6]2([H:11])[H:12]"
C       -1.00428638       0.35350156       0.59912956
C       -0.40890666      -0.84842099      -0.17448204
O       -0.43435892      -0.03876714      -1.36918234
C       -0.08710970       1.03926993      -0.45080865
C        1.29015726       0.67002658       0.11917826
C        1.06352650      -0.70750182       0.22567699
H       -2.05797931       0.51634757       0.38124745
H       -0.78067241       0.46501915       1.65932757
H       -0.88200054      -1.82312766      -0.26652220
H       -0.25462233       2.03472944      -0.84990938
H        1.91057631      -0.25156281      -0.68495603
H        1.64567617      -1.40951379       0.81130083
12
Frame=6 idx=003874 GeodesicLength=0.2488860786974984 rxn_smarts="[C:1]1([H:7])([H:8])[C@@:2]2([H:9])[O:3][C@:4]1([H:10])[C:5]([H:11])=[C:6]2[H:12]>>[C:1]1([H:7])([H:8])[C@@:2]2([H:9])[O:3][C@:4]1([H:10])[C:5][C:6]2([H:11])[H:12]"
C       -1.00283566       0.35191716       0.60038923
C       -0.41003672      -0.84875885      -0.17656572
O       -0.44020528      -0.03763856      -1.37065758
C       -0.08929873       1.03935899      -0.45287487
C        1.28532262       0.66737238       0.11409298
C        1.06407731      -0.71170554       0.21828459
H       -2.05695842       0.51738189       0.38623339
H       -0.77576844       0.46228905       1.65998274
H       -0.88483990      -1.82270288      -0.26796614
H       -0.25757490       2.03557060      -0.84981454
H        1.93315009      -0.24672248      -0.68445713
H        1.63496802      -1.40636177       0.82335303
12
Frame=7 idx=003874 GeodesicLength=0.2901134561960381 rxn_smarts="[C:1]1([H:7])([H:8])[C@@:2]2([H:9])[O:3][C@:4]1([H:10])[C:5]([H:11])=[C:6]2[H:12]>>[C:1]1([H:7])([H:8])[C@@:2]2([H:9])[O:3][C@:4]1([H:10])[C:5][C:6]2([H:11])[H:12]"
C       -1.00134020       0.35032065       0.60165236
C       -0.41117568      -0.84911904      -0.17867269
O       -0.44612139      -0.03652910      -1.37214657
C       -0.09148274       1.03941978      -0.45497866
C        1.28048736       0.66466750       0.10891102
C        1.06465449      -0.71597236       0.21076584
H       -2.05589623       0.51841946       0.39127789
H       -0.77076371       0.45954777       1.66062820
H       -0.88770680      -1.82229149      -0.26940344
H       -0.26051107       2.03638754      -0.84974505
H        1.95574151      -0.24171677      -0.68363598
H        1.62411446      -1.40313395       0.83534707
12
Frame=8 idx=003874 GeodesicLength=0.3316217641303367 rxn_smarts="[C:1]1([H:7])([H:8])[C@@:2]2([H:9])[O:3][C@:4]1([H:10])[C:5]([H:11])=[C:6]2[H:12]>>[C:1]1([H:7])([H:8])[C@@:2]2([H:9])[O:3][C@:4]1([H:10])[C:5][C:6]2([H:11])[H:12]"
C       -0.99985358       0.34875904       0.60292949
C       -0.41242238      -0.84951976      -0.18067360
O       -0.45223202      -0.03557140      -1.37356676
C       -0.09374892       1.03939831      -0.45716331
C        1.27563708       0.66184115       0.10351239
C        1.06515122      -0.72030052       0.20327144
H       -2.05481926       0.51949533       0.39640773
H       -0.76568243       0.45694889       1.66123179
H       -0.89071070      -1.82191268      -0.27060854
H       -0.26347630       2.03708881      -0.84983630
H        1.97916541      -0.23632780      -0.68163909
H        1.61299189      -1.39989936       0.84613474
12
Frame=9 idx=003874 GeodesicLength=0.3731456742965026 rxn_smarts="[C:1]1([H:7])([H:8])[C@@:2]2([H:9])[O:3][C@:4]1([H:10])[C:5]([H:11])=[C:6]2[H:12]>>[C:1]1([H:7])([H:8])[C@@:2]2([H:9])[O:3][C@:4]1([H:10])[C:5][C:6]2([H:11])[H:12]"
C       -0.99834857       0.34721755       0.60421590
C       -0.41374163      -0.84995315      -0.18263395
O       -0.45849868      -0.03470625      -1.37496386
C       -0.09606204       1.03931790      -0.45942068
C        1.27077633       0.65892190       0.09793037
C        1.06560938      -0.72469749       0.19571267
H       -2.05371525       0.52060718       0.40161796
H       -0.76049929       0.45442918       1.66180722
H       -0.89381434      -1.82155717      -0.27168463
H       -0.26645555       2.03771614      -0.85003840
H        2.00303169      -0.23062292      -0.67877942
H        1.60171796      -1.39667287       0.85623682
12
Frame=10 idx=003874 GeodesicLength=0.4146504861023988 rxn_smarts="[C:1]1([H:7])([H:8])[C@@:2]2([H:9])[O:3][C@:4]1([H:10])[C:5]([H:11])=[C:6]2[H:12]>>[C:1]1([H:7])([H:8])[C@@:2]2([H:9])[O:3][C@:4]1([H:10])[C:5][C:6]2([H:11])[H:12]"
C       -0.99682078       0.34569896       0.60551085
C       -0.41514087      -0.85041862      -0.18455667
O       -0.46493820      -0.03393416      -1.37634011
C       -0.09842750       1.03917810      -0.46176055
C        1.26590389       0.65590809       0.09214303
C        1.06602079      -0.72916245       0.18807218
H       -2.05257914       0.52176012       0.40691777
H       -0.75519972       0.45199188       1.66234939
H       -0.89702748      -1.82122337      -0.27262694
H       -0.26945514       2.03826897      -0.85036107
H        2.02733915      -0.22458948      -0.67497665
H        1.59032500      -1.39347804       0.86562878
12
Frame=11 idx=003874 GeodesicLength=0.45622050137838205 rxn_smarts="[C:1]1([H:7])([H:8])[C@@:2]2([H:9])[O:3][C@:4]1([H:10])[C:5]([H:11])=[C:6]2[H:12]>>[C:1]1([H:7])([H:8])[C@@:2]2([H:9])[O:3][C@:4]1([H:10])[C:5][C:6]2([H:11])[H:12]"
C       -0.99526906       0.34420581       0.60681236
C       -0.41662600      -0.85091485      -0.18644498
O       -0.47155901      -0.03325304      -1.37769438
C       -0.10084902       1.03898015      -0.46418569
C        1.26101685       0.65279996       0.08614606
C        1.06637598      -0.73369441       0.18034308
H       -2.05140884       0.52295861       0.41230988
H       -0.74977834       0.44963868       1.66285339
H       -0.90035582      -1.82090977      -0.27343650
H       -0.27247818       2.03874903      -0.85080614
H        2.05208396      -0.21822187      -0.67022365
H        1.57884749      -1.39033830       0.87432656
12
Frame=12 idx=003874 GeodesicLength=0.49789425727645253 rxn_smarts="[C:1]1([H:7])([H:8])[C@@:2]2([H:9])[O:3][C@:4]1([H:10])[C:5]([H:11])=[C:6]2[H:12]>>[C:1]1([H:7])([H:8])[C@@:2]2([H:9])[O:3][C@:4]1([H:10])[C:5][C:6]2([H:11])[H:12]"
C       -0.99368530       0.34273808       0.60812912
C       -0.41820950      -0.85144602      -0.18828720
O       -0.47840115      -0.03267015      -1.37902777
C       -0.10333564       1.03872020      -0.46671940
C        1.25610842       0.64958341       0.07990426
C        1.06666267      -0.73830942       0.17247907
H       -2.05019339       0.52420164       0.41781613
H       -0.74419676       0.44737858       1.66331529
H       -0.90381656      -1.82060842      -0.27409937
H       -0.27554172       2.03915428      -0.85140202
H        2.07734285      -0.21147418      -0.66436253
H        1.56726609      -1.38726801       0.88225444
12
Frame=13 idx=003874 GeodesicLength=0.5396679600071367 rxn_smarts="[C:1]1([H:7])([H:8])[C@@:2]2([H:9])[O:3][C@:4]1([H:10])[C:5]([H:11])=[C:6]2[H:12]>>[C:1]1([H:7])([H:8])[C@@:2]2([H:9])[O:3][C@:4]1([H:10])[C:5][C:6]2([H:11])[H:12]"
C       -0.99207031       0.34129047       0.60944052
C       -0.41988770      -0.85202250      -0.19011796
O       -0.48546608      -0.03217580      -1.38034948
C       -0.10589152       1.03840475      -0.46934649
C        1.25118053       0.64625400       0.07339431
C        1.06685460      -0.74300382       0.16446860
H       -2.04891791       0.52549946       0.42345751
H       -0.73845509       0.44520806       1.66373095
H       -0.90744097      -1.82031326      -0.27463073
H       -0.27864111       2.03948587      -0.85214694
H        2.10305718      -0.20435104      -0.65738480
H        1.55567837      -1.38427618       0.88948452
12
Frame=14 idx=003874 GeodesicLength=0.5806059311244269 rxn_smarts="[C:1]1([H:7])([H:8])[C@@:2]2([H:9])[O:3][C@:4]1([H:10])[C:5]([H:11])=[C:6]2[H:12]>>[C:1]1([H:7])([H:8])[C@@:2]2([H:9])[O:3][C@:4]1([H:10])[C:5][C:6]2([H:11])[H:12]"
C       -0.99036588       0.33992733       0.61078727
C       -0.42175143      -0.85262345      -0.19194835
O       -0.49289480      -0.03184056      -1.38169602
C       -0.10855120       1.03796809      -0.47219378
C        1.24627066       0.64277810       0.06634197
C        1.06702743      -0.74780910       0.15624142
H       -2.04760669       0.52694725       0.42930904
H       -0.73240822       0.44316249       1.66410038
H       -0.91126951      -1.82009136      -0.27493833
H       -0.28180686       2.03967694      -0.85312208
H        2.12927686      -0.19658451      -0.64836854
H        1.54407965      -1.38151123       0.89548702
12
Frame=15 idx=003874 GeodesicLength=0.6220076235127308 rxn_smarts="[C:1]1([H:7])([H:8])[C@@:2]2([H:9])[O:3][C@:4]1([H:10])[C:5]([H:11])=[C:6]2[H:12]>>[C:1]1([H:7])([H:8])[C@@:2]2([H:9])[O:3][C@:4]1([H:10])[C:5][C:6]2([H:11])[H:12]"
C       -0.98861692       0.33855351       0.61211890
C       -0.42365263      -0.85325546      -0.19375751
O       -0.50045797      -0.03153809      -1.38300960
C       -0.11124116       1.03751000      -0.47509555
C        1.24133131       0.63923003       0.05917234
C        1.06711082      -0.75266704       0.14787252
H       -2.04619700       0.52839069       0.43523121
H       -0.72622966       0.44115136       1.66440178
H       -0.91517334      -1.81984910      -0.27517673
H       -0.28498833       2.03984143      -0.85418680
H        2.15567057      -0.18860138      -0.63875154
H        1.53244430      -1.37876596       0.90118098
12
Frame=16 idx=003874 GeodesicLength=0.6634069216331453 rxn_smarts="[C:1]1([H:7])([H:8])[C@@:2]2([H:9])[O:3][C@:4]1([H:10])[C:5]([H:11])=[C:6]2[H:12]>>[C:1]1([H:7])([H:8])[C@@:2]2([H:9])[O:3][C@:4]1([H:10])[C:5][C:6]2([H:11])[H:12]"
C       -0.98679748       0.33721842       0.61346449
C       -0.42567827      -0.85392582      -0.19556449
O       -0.50831870      -0.03133760      -1.38432914
C       -0.11401319       1.03697964      -0.47814954
C        1.23638031       0.63555310       0.05162368
C        1.06712277      -0.75762792       0.13926552
H       -2.04471506       0.52991775       0.44133311
H       -0.71979344       0.43923862       1.66465095
H       -0.91925442      -1.81962412      -0.27526887
H       -0.28823173       2.03992114      -0.85543674
H        2.18247848      -0.18015215      -0.62766296
H        1.52082073      -1.37616104       0.90607399
