18
Frame=0 idx=001249 GeodesicLength=0.0 rxn_smarts="[C:1]([C:2]([C:3]([O:4][C:5]([C:6]([H:16])([H:17])[H:18])([H:14])[H:15])([H:12])[H:13])([H:10])[H:11])([H:7])([H:8])[H:9]>>[C:1]([C:2]([C:3]([O:4][H:17])([H:12])[H:13])([H:10])[H:11])([H:7])([H:8])[H:9].[C:5](=[C:6]([H:16])[H:18])([H:14])[H:15]"
C        2.75380284      -0.59465847       0.50893399
C        1.51785554      -0.67114728      -0.37736701
C        0.47667435       0.36750493      -0.00017208
O       -0.65206439       0.28340823      -0.84402864
C       -2.17271554       1.08385034      -0.23641051
C       -2.83705182      -0.12978490       0.05645222
H        3.48914413      -1.34901744       0.22640739
H        2.50074970      -0.75799857       1.55946058
H        3.23698566       0.38261072       0.43299300
H        1.06149325      -1.66275153      -0.30670487
H        1.78881150      -0.52593746      -1.42623059
H        0.17299637       0.22454640       1.05052024
H        0.90249072       1.37327297      -0.08547289
H       -2.39673159       1.63635095      -1.14102284
H       -1.74491310       1.68430465       0.56066316
H       -2.95746566      -0.40906790       1.09644475
H       -1.52328657      -0.47221135      -0.45714669
H       -3.61677532      -0.46327427      -0.61731920
18
Frame=1 idx=001249 GeodesicLength=0.08445209563267263 rxn_smarts="[C:1]([C:2]([C:3]([O:4][C:5]([C:6]([H:16])([H:17])[H:18])([H:14])[H:15])([H:12])[H:13])([H:10])[H:11])([H:7])([H:8])[H:9]>>[C:1]([C:2]([C:3]([O:4][H:17])([H:12])[H:13])([H:10])[H:11])([H:7])([H:8])[H:9].[C:5](=[C:6]([H:16])[H:18])([H:14])[H:15]"
C        2.78128499      -0.57535145       0.49350732
C        1.52639678      -0.68738139      -0.36189709
C        0.48654109       0.35576255       0.00597597
O       -0.65449991       0.24393365      -0.81479265
C       -2.17016957       1.08239000      -0.20912013
C       -2.87841998      -0.12034736       0.02058145
H        3.51486485      -1.33454308       0.21948800
H        2.55290664      -0.70456246       1.55438680
H        3.25680956       0.40138667       0.37423319
H        1.07828413      -1.67891721      -0.25018049
H        1.77332295      -0.57368430      -1.42055432
H        0.20361015       0.23877717       1.06543606
H        0.90675038       1.36090429      -0.11335029
H       -2.36157316       1.67747713      -1.09444849
H       -1.76333402       1.64553993       0.62554025
H       -3.06189875      -0.41658508       1.04684287
H       -1.55292672      -0.50415328      -0.44601484
H       -3.63794939      -0.41064577      -0.69563359
18
Frame=2 idx=001249 GeodesicLength=0.16751876312481567 rxn_smarts="[C:1]([C:2]([C:3]([O:4][C:5]([C:6]([H:16])([H:17])[H:18])([H:14])[H:15])([H:12])[H:13])([H:10])[H:11])([H:7])([H:8])[H:9]>>[C:1]([C:2]([C:3]([O:4][H:17])([H:12])[H:13])([H:10])[H:11])([H:7])([H:8])[H:9].[C:5](=[C:6]([H:16])[H:18])([H:14])[H:15]"
C        2.80843786      -0.55558483       0.47668711
C        1.53502968      -0.70371762      -0.34524605
C        0.49615205       0.34367373       0.01267053
O       -0.65758469       0.20222197      -0.78241530
C       -2.16792975       1.07926499      -0.17960550
C       -2.91861248      -0.10905039      -0.01698310
H        3.54072976      -1.31915113       0.21153471
H        2.60545807      -0.64943453       1.54640956
H        3.27465340       0.41927393       0.31317632
H        1.09657156      -1.69385238      -0.19127394
H        1.75716887      -0.62305355      -1.41241087
H        0.23520648       0.25472264       1.08027381
H        0.90928400       1.34728344      -0.14270319
H       -2.32433909       1.71616533      -1.04291137
H       -1.78468225       1.60265554       0.69159622
H       -3.16801740      -0.41961855       0.99125310
H       -1.58445824      -0.53712133      -0.43455905
H       -3.65306783      -0.35467725      -0.77549300
18
Frame=3 idx=001249 GeodesicLength=0.24868959366939766 rxn_smarts="[C:1]([C:2]([C:3]([O:4][C:5]([C:6]([H:16])([H:17])[H:18])([H:14])[H:15])([H:12])[H:13])([H:10])[H:11])([H:7])([H:8])[H:9]>>[C:1]([C:2]([C:3]([O:4][H:17])([H:12])[H:13])([H:10])[H:11])([H:7])([H:8])[H:9].[C:5](=[C:6]([H:16])[H:18])([H:14])[H:15]"
C        2.83468826      -0.53557657       0.45885828
C        1.54350354      -0.72007910      -0.32723432
C        0.50538619       0.33161460       0.01952172
O       -0.66107665       0.15923536      -0.74749264
C       -2.16621590       1.07436858      -0.14796985
C       -2.95654648      -0.09619604      -0.05592933
H        3.56603300      -1.30333385       0.20338447
H        2.65753895      -0.59245168       1.53575200
H        3.29026322       0.43571780       0.25016793
H        1.11581484      -1.70714425      -0.12975828
H        1.74040413      -0.67428318      -1.40141496
H        0.26729555       0.27291742       1.09435212
H        0.91025415       1.33245667      -0.17374765
H       -2.28625293       1.75219870      -0.98605962
H       -1.80899117       1.55563833       0.75820221
H       -3.27156645      -0.41975426       0.92989523
H       -1.61786821      -0.57051963      -0.42583845
H       -3.66266404      -0.29480890      -0.85468888
18
Frame=4 idx=001249 GeodesicLength=0.3282919377769547 rxn_smarts="[C:1]([C:2]([C:3]([O:4][C:5]([C:6]([H:16])([H:17])[H:18])([H:14])[H:15])([H:12])[H:13])([H:10])[H:11])([H:7])([H:8])[H:9]>>[C:1]([C:2]([C:3]([O:4][H:17])([H:12])[H:13])([H:10])[H:11])([H:7])([H:8])[H:9].[C:5](=[C:6]([H:16])[H:18])([H:14])[H:15]"
C        2.86006042      -0.51540051       0.43980207
C        1.55195233      -0.73631077      -0.30804340
C        0.51417141       0.31936798       0.02678778
O       -0.66508850       0.11443655      -0.70919642
C       -2.16513425       1.06769570      -0.11425019
C       -2.99213906      -0.08140941      -0.09586974
H        3.59099700      -1.28679402       0.19430514
H        2.70902806      -0.53439925       1.52200003
H        3.30330866       0.45077203       0.18559624
H        1.13648704      -1.71869126      -0.06633582
H        1.72325761      -0.72672093      -1.38755211
H        0.29985904       0.29312221       1.10771631
H        0.90917432       1.31610561      -0.20625599
H       -2.24737435       1.78490994      -0.92417145
H       -1.83662029       1.50484409       0.82489568
H       -3.37400077      -0.41480852       0.86298083
H       -1.65307616      -0.60434851      -0.41886944
H       -3.66486250      -0.23237094      -0.93353953
18
Frame=5 idx=001249 GeodesicLength=0.40603896626350855 rxn_smarts="[C:1]([C:2]([C:3]([O:4][C:5]([C:6]([H:16])([H:17])[H:18])([H:14])[H:15])([H:12])[H:13])([H:10])[H:11])([H:7])([H:8])[H:9]>>[C:1]([C:2]([C:3]([O:4][H:17])([H:12])[H:13])([H:10])[H:11])([H:7])([H:8])[H:9].[C:5](=[C:6]([H:16])[H:18])([H:14])[H:15]"
C        2.88412119      -0.49510901       0.41998339
C        1.56022445      -0.75244820      -0.28734669
C        0.52239880       0.30716631       0.03391865
O       -0.66933837       0.06853320      -0.66829116
C       -2.16479598       1.05898786      -0.07855517
C       -3.02462827      -0.06506805      -0.13661069
H        3.61508125      -1.26989589       0.18550883
H        2.75929799      -0.47454417       1.50549353
H        3.31375719       0.46394434       0.11954003
H        1.15809525      -1.72810777      -0.00033302
H        1.70581745      -0.78098329      -1.37030887
H        0.33248433       0.31589513       1.11952150
H        0.90624154       1.29807068      -0.24075371
H       -2.20875958       1.81435628      -0.85670158
H       -1.86722844       1.44976467       0.89121465
H       -3.47102705      -0.40713873       0.79112369
H       -1.69004932      -0.63784124      -0.41783678
H       -3.66169243      -0.16558210      -1.00956660
18
Frame=6 idx=001249 GeodesicLength=0.48226444682586683 rxn_smarts="[C:1]([C:2]([C:3]([O:4][C:5]([C:6]([H:16])([H:17])[H:18])([H:14])[H:15])([H:12])[H:13])([H:10])[H:11])([H:7])([H:8])[H:9]>>[C:1]([C:2]([C:3]([O:4][H:17])([H:12])[H:13])([H:10])[H:11])([H:7])([H:8])[H:9].[C:5](=[C:6]([H:16])[H:18])([H:14])[H:15]"
C        2.90696727      -0.47472640       0.39902538
C        1.56847896      -0.76834214      -0.26544893
C        0.52991852       0.29457809       0.04141738
O       -0.67406560       0.02066016      -0.62342003
C       -2.16526235       1.04842103      -0.04098220
C       -3.05406379      -0.04661266      -0.17771068
H        3.63865645      -1.25214280       0.17579308
H        2.80831989      -0.41394604       1.48573086
H        3.32115275       0.47553490       0.05241067
H        1.18134347      -1.73547041       0.06723003
H        1.68829397      -0.83616350      -1.34984575
H        0.36509563       0.34061980       1.13002871
H        0.90064593       1.27785150      -0.27671213
H       -2.17029117       1.83988461      -0.78428580
H       -1.90139457       1.39130685       0.95664221
H       -3.56493341      -0.39391659       0.71446449
H       -1.72837993      -0.67094223      -0.42067212
H       -3.65048204      -0.09659416      -1.08366518
18
Frame=7 idx=001249 GeodesicLength=0.556823103655801 rxn_smarts="[C:1]([C:2]([C:3]([O:4][C:5]([C:6]([H:16])([H:17])[H:18])([H:14])[H:15])([H:12])[H:13])([H:10])[H:11])([H:7])([H:8])[H:9]>>[C:1]([C:2]([C:3]([O:4][H:17])([H:12])[H:13])([H:10])[H:11])([H:7])([H:8])[H:9].[C:5](=[C:6]([H:16])[H:18])([H:14])[H:15]"
C        2.92829046      -0.45422556       0.37743224
C        1.57668012      -0.78412350      -0.24196605
C        0.53660055       0.28164350       0.04864005
O       -0.67903143      -0.02886284      -0.57526602
C       -2.16660920       1.03570808      -0.00175390
C       -3.07994566      -0.02636202      -0.21894995
H        3.66143803      -1.23369224       0.16642284
H        2.85560913      -0.35185439       1.46307978
H        3.32551047       0.48517194      -0.01561287
H        1.20588513      -1.74044323       0.13717206
H        1.67088689      -0.89305160      -1.32556775
H        0.39738085       0.36780756       1.13826062
H        0.89245203       1.25503890      -0.31487518
H       -2.13287710       1.86153805      -0.70655400
H       -1.93859345       1.32887675       1.02066236
H       -3.65180096      -0.37768475       0.63413483
H       -1.76778574      -0.70242200      -0.43203424
H       -3.63409012      -0.02306266      -1.15322481
18
Frame=8 idx=001249 GeodesicLength=0.629846366518611 rxn_smarts="[C:1]([C:2]([C:3]([O:4][C:5]([C:6]([H:16])([H:17])[H:18])([H:14])[H:15])([H:12])[H:13])([H:10])[H:11])([H:7])([H:8])[H:9]>>[C:1]([C:2]([C:3]([O:4][H:17])([H:12])[H:13])([H:10])[H:11])([H:7])([H:8])[H:9].[C:5](=[C:6]([H:16])[H:18])([H:14])[H:15]"
C        2.94806035      -0.43364790       0.35454581
C        1.58482127      -0.79959985      -0.21736097
C        0.54213238       0.26777608       0.05657937
O       -0.68459352      -0.08086155      -0.52173392
C       -2.16887038       1.02137122       0.03895298
C       -3.10202067      -0.00380109      -0.25994627
H        3.68357843      -1.21406481       0.15556934
H        2.90107694      -0.28949681       1.43688404
H        3.32614770       0.49326319      -0.08437692
H        1.23246063      -1.74328151       0.20805158
H        1.65354193      -0.95036301      -1.29790012
H        0.42901424       0.39630068       1.14495335
H        0.88050585       1.22902231      -0.35392399
H       -2.09628805       1.87880224      -0.62466221
H       -1.97992027       1.26443326       1.08266500
H       -3.73404825      -0.35533690       0.54985427
H       -1.80703610      -0.73212106      -0.44836020
H       -3.60856247       0.05160550      -1.21979115
18
Frame=9 idx=001249 GeodesicLength=0.7006734671926758 rxn_smarts="[C:1]([C:2]([C:3]([O:4][C:5]([C:6]([H:16])([H:17])[H:18])([H:14])[H:15])([H:12])[H:13])([H:10])[H:11])([H:7])([H:8])[H:9]>>[C:1]([C:2]([C:3]([O:4][H:17])([H:12])[H:13])([H:10])[H:11])([H:7])([H:8])[H:9].[C:5](=[C:6]([H:16])[H:18])([H:14])[H:15]"
C        2.96566989      -0.41286174       0.33117004
C        1.59291005      -0.81495232      -0.19138129
C        0.54612813       0.25255770       0.06438660
O       -0.69053593      -0.13544695      -0.46372228
C       -2.17183321       1.00513771       0.08028987
C       -3.11964832       0.02054226      -0.30014917
H        3.70476538      -1.19294578       0.14471894
H        2.94376000      -0.22647269       1.40783230
H        3.32274479       0.49981933      -0.15287418
H        1.26075646      -1.74381457       0.28025987
H        1.63670109      -1.00856989      -1.26636938
H        0.45951449       0.42596282       1.14883186
H        0.86452213       1.19902583      -0.39448107
H       -2.06092153       1.89142688      -0.53938723
H       -2.02408789       1.19789656       1.14139587
H       -3.80693494      -0.32983015       0.46424251
H       -1.84517218      -0.75788147      -0.47514712
H       -3.57833841       0.13040649      -1.27961614
18
Frame=10 idx=001249 GeodesicLength=0.7700166959596788 rxn_smarts="[C:1]([C:2]([C:3]([O:4][C:5]([C:6]([H:16])([H:17])[H:18])([H:14])[H:15])([H:12])[H:13])([H:10])[H:11])([H:7])([H:8])[H:9]>>[C:1]([C:2]([C:3]([O:4][H:17])([H:12])[H:13])([H:10])[H:11])([H:7])([H:8])[H:9].[C:5](=[C:6]([H:16])[H:18])([H:14])[H:15]"
C        2.98117697      -0.39195856       0.30635130
C        1.60075352      -0.83021657      -0.16428794
C        0.54820008       0.23546508       0.07342544
O       -0.69724519      -0.19286164      -0.39896800
C       -2.17577796       0.98794517       0.12218500
C       -3.13234496       0.04681486      -0.33972560
H        3.72511575      -1.17019508       0.13177480
H        2.98405469      -0.16347881       1.37512146
H        3.31470195       0.50505289      -0.22178853
H        1.29133788      -1.74242904       0.35298922
H        1.61976796      -1.06708773      -1.23133864
H        0.48850360       0.45566510       1.15110639
H        0.84339894       1.16452103      -0.43465614
H       -2.02697649       1.89974236      -0.45165884
H       -2.07279600       1.13169351       1.19670046
H       -3.87218025      -0.29975977       0.37620982
H       -1.87985735      -0.77903184      -0.50868458
H       -3.53983314       0.21011906      -1.33475561
18
Frame=11 idx=001249 GeodesicLength=0.8379598717009114 rxn_smarts="[C:1]([C:2]([C:3]([O:4][C:5]([C:6]([H:16])([H:17])[H:18])([H:14])[H:15])([H:12])[H:13])([H:10])[H:11])([H:7])([H:8])[H:9]>>[C:1]([C:2]([C:3]([O:4][H:17])([H:12])[H:13])([H:10])[H:11])([H:7])([H:8])[H:9].[C:5](=[C:6]([H:16])[H:18])([H:14])[H:15]"
C        2.99399384      -0.37094750       0.27924934
C        1.60780473      -0.84546323      -0.13590125
C        0.54789131       0.21627804       0.08438648
O       -0.70487892      -0.25267578      -0.32608911
C       -2.18082245       0.97010654       0.16498975
C       -3.13883086       0.07463426      -0.37916790
H        3.74386047      -1.14590563       0.11581761
H        3.02177004      -0.09992331       1.33769068
H        3.30120234       0.50852666      -0.29254744
H        1.32401002      -1.73893416       0.42668378
H        1.60177186      -1.12623754      -1.19242472
H        0.51565579       0.48512334       1.15210106
H        0.81643817       1.12496854      -0.47351662
H       -1.99464029       1.90422859      -0.36093958
H       -2.12721098       1.06626029       1.24878806
H       -3.92928824      -0.26554283       0.28422700
H       -1.90813681      -0.79444322      -0.54737926
H       -3.49059003       0.28994693      -1.38596787
18
Frame=12 idx=001249 GeodesicLength=0.9048999919188984 rxn_smarts="[C:1]([C:2]([C:3]([O:4][C:5]([C:6]([H:16])([H:17])[H:18])([H:14])[H:15])([H:12])[H:13])([H:10])[H:11])([H:7])([H:8])[H:9]>>[C:1]([C:2]([C:3]([O:4][H:17])([H:12])[H:13])([H:10])[H:11])([H:7])([H:8])[H:9].[C:5](=[C:6]([H:16])[H:18])([H:14])[H:15]"
C        3.00334590      -0.35026236       0.25003166
C        1.61368560      -0.86047038      -0.10691536
C        0.54477442       0.19508088       0.09715422
O       -0.71331298      -0.31322945      -0.24654982
C       -2.18708701       0.95232895       0.20795001
C       -3.13803568       0.10293254      -0.41788493
H        3.76021927      -1.12047320       0.09666853
H        3.05573842      -0.03697870       1.29582792
H        3.28185306       0.51008919      -0.36402273
H        1.35803423      -1.73334892       0.49969307
H        1.58275497      -1.18490079      -1.15043751
H        0.54008740       0.51320144       1.15166205
H        0.78371730       1.08085264      -0.50954399
H       -1.96475875       1.90523059      -0.26892882
H       -2.18708399       1.00346701       1.29655234
H       -3.97640664      -0.22792911       0.18953724
H       -1.92688222      -0.80353407      -0.58856406
H       -3.43064328       0.36794373      -1.43222982
18
Frame=13 idx=001249 GeodesicLength=0.9712763926042396 rxn_smarts="[C:1]([C:2]([C:3]([O:4][C:5]([C:6]([H:16])([H:17])[H:18])([H:14])[H:15])([H:12])[H:13])([H:10])[H:11])([H:7])([H:8])[H:9]>>[C:1]([C:2]([C:3]([O:4][H:17])([H:12])[H:13])([H:10])[H:11])([H:7])([H:8])[H:9].[C:5](=[C:6]([H:16])[H:18])([H:14])[H:15]"
C        3.00865843      -0.33093445       0.21940341
C        1.61781670      -0.87473164      -0.07816525
C        0.53915679       0.17320837       0.11086075
O       -0.72180932      -0.37109283      -0.16458442
C       -2.19470233       0.93568087       0.25027122
C       -3.12943930       0.13060537      -0.45495284
H        3.77292113      -1.09557994       0.07515441
H        3.08466200       0.02363311       1.25049342
H        3.25721679       0.50881184      -0.43468518
H        1.39160914      -1.72529274       0.57027746
H        1.56293765      -1.24198594      -1.10641741
H        0.56080116       0.53969067       1.14932474
H        0.74713910       1.03416046      -0.54177639
H       -1.93921155       1.90410125      -0.17720801
H       -2.25134833       0.94489911       1.33897468
H       -4.01080682      -0.19102869       0.09422598
H       -1.93380456      -0.80629834      -0.62907355
H       -3.36179670       0.44215352      -1.47212301
18
Frame=14 idx=001249 GeodesicLength=1.0383285318683217 rxn_smarts="[C:1]([C:2]([C:3]([O:4][C:5]([C:6]([H:16])([H:17])[H:18])([H:14])[H:15])([H:12])[H:13])([H:10])[H:11])([H:7])([H:8])[H:9]>>[C:1]([C:2]([C:3]([O:4][H:17])([H:12])[H:13])([H:10])[H:11])([H:7])([H:8])[H:9].[C:5](=[C:6]([H:16])[H:18])([H:14])[H:15]"
C        3.01009786      -0.31304014       0.18805182
C        1.62049005      -0.88776477      -0.05099088
C        0.53133899       0.15107807       0.12497169
O       -0.73000703      -0.42486257      -0.08377198
C       -2.20355693       0.92028359       0.29127385
C       -3.11391045       0.15695823      -0.48957408
H        3.78212938      -1.07130467       0.05169143
H        3.10794010       0.08073270       1.20297370
H        3.22842893       0.50544219      -0.50274215
H        1.42412969      -1.71530044       0.63575279
H        1.54340542      -1.29542767      -1.06246406
H        0.57727626       0.56301547       1.14542597
H        0.70819075       0.98675220      -0.56895135
H       -1.91773386       1.90084695      -0.08769481
H       -2.31865381       0.89123126       1.37542831
H       -4.03473267      -0.15192187      -0.00052475
H       -1.93067086      -0.80664101      -0.66287045
H       -3.28416183       0.50992248      -1.50598504
18
Frame=15 idx=001249 GeodesicLength=1.1066958745335276 rxn_smarts="[C:1]([C:2]([C:3]([O:4][C:5]([C:6]([H:16])([H:17])[H:18])([H:14])[H:15])([H:12])[H:13])([H:10])[H:11])([H:7])([H:8])[H:9]>>[C:1]([C:2]([C:3]([O:4][H:17])([H:12])[H:13])([H:10])[H:11])([H:7])([H:8])[H:9].[C:5](=[C:6]([H:16])[H:18])([H:14])[H:15]"
C        3.00817414      -0.29661835       0.15618344
C        1.62186477      -0.89936149      -0.02568490
C        0.52197639       0.12941059       0.13931650
O       -0.73753107      -0.47386997      -0.00579012
C       -2.21367609       0.90607067       0.33094659
C       -3.09236214       0.18222942      -0.52174295
H        3.78801684      -1.04805563       0.02663891
H        3.12598248       0.13435104       1.15374557
H        3.19648147       0.49997551      -0.56821283
H        1.45526947      -1.70346067       0.69580351
H        1.52441580      -1.34493114      -1.01926270
H        0.58976211       0.58337189       1.14051502
H        0.66820779       0.93998698      -0.59109241
H       -1.90030064       1.89596249      -0.00024734
H       -2.38861534       0.84186286       1.40595114
H       -4.04899652      -0.11077466      -0.09498579
H       -1.92040768      -0.80735630      -0.68787027
H       -3.19826180       0.57120676      -1.53421139
18
Frame=16 idx=001249 GeodesicLength=1.1763634825467348 rxn_smarts="[C:1]([C:2]([C:3]([O:4][C:5]([C:6]([H:16])([H:17])[H:18])([H:14])[H:15])([H:12])[H:13])([H:10])[H:11])([H:7])([H:8])[H:9]>>[C:1]([C:2]([C:3]([O:4][H:17])([H:12])[H:13])([H:10])[H:11])([H:7])([H:8])[H:9].[C:5](=[C:6]([H:16])[H:18])([H:14])[H:15]"
C        3.00350897      -0.28149571       0.12455766
C        1.62239363      -0.90951013      -0.00238724
C        0.51161952       0.10845721       0.15320354
O       -0.74410181      -0.51840588       0.06767509
C       -2.22486320       0.89273333       0.36889792
C       -3.06627607       0.20644383      -0.55100652
H        3.79119863      -1.02574120       0.00108149
H        3.13911556       0.18452824       1.10395725
H        3.16250066       0.49292523      -0.63027030
H        1.48491218      -1.69003225       0.75037471
H        1.50675628      -1.39047330      -0.97734568
H        0.59862054       0.60096931       1.13447179
H        0.62830218       0.89456980      -0.60911609
H       -1.88638512       1.88933678       0.08438948
H       -2.45963123       0.79622942       1.43041668
H       -4.05460266      -0.06724958      -0.18759199
H       -1.90614993      -0.80995943      -0.70516076
H       -3.10691812       0.62667432      -1.55614703
