11
Frame=0 idx=006234 GeodesicLength=0.0 rxn_smarts="[O:1]=[C:2]1[C:3]([H:7])([H:8])[C:4]([H:9])=[C:5]([H:10])[N:6]1[H:11]>>[O:1]=[C:2]([N:6]([C:5](=[C:4]=[C:3]([H:7])[H:8])[H:10])[H:11])[H:9]"
O       -1.46920023       1.80439180       0.10817456
C       -0.63514439       0.96149424       0.07480076
C       -0.89695120      -0.81977938      -0.17914152
C        0.54243598      -1.50624819      -0.03397686
C        1.31966827      -0.40894871       0.06316429
N        0.69182111       0.90464252       0.05851090
H       -0.80016864      -0.40823671      -1.18552355
H       -1.86129870      -1.29907823      -0.05175112
H       -0.50625213      -0.59803206       0.83881880
H        2.39935569      -0.38108988       0.10367683
H        1.21573426       1.75088464       0.20324689
11
Frame=1 idx=006234 GeodesicLength=0.1529073227035635 rxn_smarts="[O:1]=[C:2]1[C:3]([H:7])([H:8])[C:4]([H:9])=[C:5]([H:10])[N:6]1[H:11]>>[O:1]=[C:2]([N:6]([C:5](=[C:4]=[C:3]([H:7])[H:8])[H:10])[H:11])[H:9]"
O       -1.45461251       1.82072126       0.12718999
C       -0.63228213       0.96485859       0.08813702
C       -0.89971717      -0.83300211      -0.19764230
C        0.53415620      -1.49125519      -0.02794630
C        1.32014506      -0.40110128       0.05790021
N        0.69741932       0.91125440       0.05585205
H       -0.81922667      -0.42769137      -1.20780924
H       -1.85860273      -1.32116324      -0.06166432
H       -0.50950494      -0.59736967       0.85719737
H        2.39882072      -0.38330034       0.12077825
H        1.22340486       1.75804894       0.18800728
11
Frame=2 idx=006234 GeodesicLength=0.30580597738491666 rxn_smarts="[O:1]=[C:2]1[C:3]([H:7])([H:8])[C:4]([H:9])=[C:5]([H:10])[N:6]1[H:11]>>[O:1]=[C:2]([N:6]([C:5](=[C:4]=[C:3]([H:7])[H:8])[H:10])[H:11])[H:9]"
O       -1.43962560       1.83712503       0.14544818
C       -0.62927747       0.96834229       0.10200564
C       -0.90248176      -0.84609641      -0.21696608
C        0.52533824      -1.47579474      -0.02171809
C        1.32042403      -0.39319950       0.05259791
N        0.70302072       0.91807495       0.05361835
H       -0.83808366      -0.44856195      -1.23117090
H       -1.85552210      -1.34317737      -0.07127927
H       -0.51237723      -0.59636315       0.87682576
H        2.39765039      -0.38554117       0.13659217
H        1.23093443       1.76519202       0.17404633
11
Frame=3 idx=006234 GeodesicLength=0.45869220101457187 rxn_smarts="[O:1]=[C:2]1[C:3]([H:7])([H:8])[C:4]([H:9])=[C:5]([H:10])[N:6]1[H:11]>>[O:1]=[C:2]([N:6]([C:5](=[C:4]=[C:3]([H:7])[H:8])[H:10])[H:11])[H:9]"
O       -1.42430174       1.85359234       0.16295469
C       -0.62615410       0.97195445       0.11645880
C       -0.90523152      -0.85905142      -0.23719178
C        0.51589469      -1.45982597      -0.01519046
C        1.32045334      -0.38525097       0.04736860
N        0.70860241       0.92510555       0.05187351
H       -0.85659702      -0.47104999      -1.25573294
H       -1.85206246      -1.36500107      -0.08067573
H       -0.51483588      -0.59495498       0.89787567
H        2.39589762      -0.38784736       0.15082506
H        1.23833467       1.77232942       0.16143457
11
Frame=4 idx=006234 GeodesicLength=0.6115625833126901 rxn_smarts="[O:1]=[C:2]1[C:3]([H:7])([H:8])[C:4]([H:9])=[C:5]([H:10])[N:6]1[H:11]>>[O:1]=[C:2]([N:6]([C:5](=[C:4]=[C:3]([H:7])[H:8])[H:10])[H:11])[H:9]"
O       -1.40870851       1.87010373       0.17976636
C       -0.62293795       0.97570339       0.13156237
C       -0.90794993      -0.87185425      -0.25841096
C        0.50572858      -1.44329944      -0.00830437
C        1.32017666      -0.37726076       0.04226120
N        0.71413781       0.93234985       0.05065521
H       -0.87462939      -0.49538258      -1.28163388
H       -1.84823808      -1.38648550      -0.08992336
H       -0.51680469      -0.59308846       0.92053127
H        2.39360997      -0.39026451       0.16331175
H        1.24561553       1.77947854       0.15018443
11
Frame=5 idx=006234 GeodesicLength=0.7644129143920173 rxn_smarts="[O:1]=[C:2]1[C:3]([H:7])([H:8])[C:4]([H:9])=[C:5]([H:10])[N:6]1[H:11]>>[O:1]=[C:2]([N:6]([C:5](=[C:4]=[C:3]([H:7])[H:8])[H:10])[H:11])[H:9]"
O       -1.39291305       1.88662562       0.19601728
C       -0.61965308       0.97959340       0.14740742
C       -0.91061813      -0.88448731      -0.28073356
C        0.49473538      -1.42615552      -0.00106376
C        1.31953698      -0.36923156       0.03724376
N        0.71959632       0.93981355       0.04996756
H       -0.89205488      -0.52180950      -1.30902678
H       -1.84407225      -1.40744590      -0.09908501
H       -0.51814285      -0.59071737       0.94498952
H        2.39080347      -0.39284792       0.17408102
H        1.25278210       1.78666251       0.14020255
11
Frame=6 idx=006234 GeodesicLength=0.9172433361996296 rxn_smarts="[O:1]=[C:2]1[C:3]([H:7])([H:8])[C:4]([H:9])=[C:5]([H:10])[N:6]1[H:11]>>[O:1]=[C:2]([N:6]([C:5](=[C:4]=[C:3]([H:7])[H:8])[H:10])[H:11])[H:9]"
O       -1.37698788       1.90312565       0.21183211
C       -0.61632306       0.98363091       0.16406434
C       -0.91321348      -0.89693439      -0.30427897
C        0.48279745      -1.40832376       0.00652998
C        1.31846990      -0.36116284       0.03224985
N        0.72494399       0.94750616       0.04977448
H       -0.90872809      -0.55065258      -1.33807318
H       -1.83960695      -1.42765806      -0.10821354
H       -0.51865520      -0.58776643       0.97147772
H        2.38747140      -0.39565558       0.18313772
H        1.25983193       1.79389093       0.13149947
11
Frame=7 idx=006234 GeodesicLength=1.0700529353134365 rxn_smarts="[O:1]=[C:2]1[C:3]([H:7])([H:8])[C:4]([H:9])=[C:5]([H:10])[N:6]1[H:11]>>[O:1]=[C:2]([N:6]([C:5](=[C:4]=[C:3]([H:7])[H:8])[H:10])[H:11])[H:9]"
O       -1.36100752       1.91955924       0.22739614
C       -0.61297196       0.98781759       0.18163905
C       -0.91570824      -0.90917357      -0.32919172
C        0.46978051      -1.38972296       0.01445249
C        1.31690379      -0.35305666       0.02719330
N        0.73013703       0.95543722       0.05003920
H       -0.92447033      -0.58227841      -1.36894634
H       -1.83490605      -1.44684424      -0.11739394
H       -0.51808040      -0.58416629       1.00025692
H        2.38357080      -0.39875313       0.19056540
H        1.26675236       1.80118120       0.12398949
11
Frame=8 idx=006234 GeodesicLength=1.2228410202995907 rxn_smarts="[O:1]=[C:2]1[C:3]([H:7])([H:8])[C:4]([H:9])=[C:5]([H:10])[N:6]1[H:11]>>[O:1]=[C:2]([N:6]([C:5](=[C:4]=[C:3]([H:7])[H:8])[H:10])[H:11])[H:9]"
O       -1.34506052       1.93588167       0.24293181
C       -0.60962957       0.99215518       0.20026206
C       -0.91806861      -0.92117809      -0.35564244
C        0.45552999      -1.37026611       0.02268149
C        1.31475811      -0.34492197       0.02198582
N        0.73511922       0.96361887       0.05071949
H       -0.93904534      -0.61712133      -1.40183110
H       -1.83006678      -1.46466358      -0.12674796
H       -0.51608586      -0.57984000       1.03163609
H        2.37903443      -0.40221973       0.19644954
H        1.27351495       1.80855507       0.11755520
11
Frame=9 idx=006234 GeodesicLength=1.375662567886401 rxn_smarts="[O:1]=[C:2]1[C:3]([H:7])([H:8])[C:4]([H:9])=[C:5]([H:10])[N:6]1[H:11]>>[O:1]=[C:2]([N:6]([C:5](=[C:4]=[C:3]([H:7])[H:8])[H:10])[H:11])[H:9]"
O       -1.32921534       1.95203391       0.25871159
C       -0.60630569       0.99662754       0.22008423
C       -0.92023958      -0.93291430      -0.38385799
C        0.43983247      -1.34979875       0.03116234
C        1.31190600      -0.33674563       0.01652093
N        0.73983854       0.97204244       0.05176877
H       -0.95219884      -0.65571808      -1.43684856
H       -1.82518983      -1.48072887      -0.13647073
H       -0.51222725      -0.57468698       1.06596496
H        2.37370523      -0.40611477       0.20093281
H        1.28009429       1.81600350       0.11203165
11
Frame=10 idx=006234 GeodesicLength=1.5284517546525016 rxn_smarts="[O:1]=[C:2]1[C:3]([H:7])([H:8])[C:4]([H:9])=[C:5]([H:10])[N:6]1[H:11]>>[O:1]=[C:2]([N:6]([C:5](=[C:4]=[C:3]([H:7])[H:8])[H:10])[H:11])[H:9]"
O       -1.31358335       1.96796455       0.27501779
C       -0.60304387       1.00123677       0.24128307
C       -0.92217043      -0.94434432      -0.41406022
C        0.42245796      -1.32820567       0.03990960
C        1.30822479      -0.32854948       0.01074750
N        0.74420141       0.98072677       0.05314306
H       -0.96351958      -0.69871142      -1.47416246
H       -1.82047465      -1.49452966      -0.14681559
H       -0.50598360      -0.56859322       1.10365062
H        2.36747022      -0.41054554       0.20399162
H        1.28642110       1.82355122       0.10729501
11
Frame=11 idx=006234 GeodesicLength=1.6811953862370497 rxn_smarts="[O:1]=[C:2]1[C:3]([H:7])([H:8])[C:4]([H:9])=[C:5]([H:10])[N:6]1[H:11]>>[O:1]=[C:2]([N:6]([C:5](=[C:4]=[C:3]([H:7])[H:8])[H:10])[H:11])[H:9]"
O       -1.29826775       1.98361443       0.29220380
C       -0.59987590       1.00597398       0.26408044
C       -0.92378432      -0.95541506      -0.44653624
C        0.40310178      -1.30530677       0.04891855
C        1.30353653      -0.32034366       0.00459849
N        0.74810206       0.98967896       0.05479497
H       -0.97253790      -0.74689720      -1.51385988
H       -1.81616035      -1.50546076      -0.15816085
H       -0.49665282      -0.56142823       1.14515297
H        2.36012616      -0.41561995       0.20565839
H        1.29241251       1.83120425       0.10314935
11
Frame=12 idx=006234 GeodesicLength=1.8338760578156397 rxn_smarts="[O:1]=[C:2]1[C:3]([H:7])([H:8])[C:4]([H:9])=[C:5]([H:10])[N:6]1[H:11]>>[O:1]=[C:2]([N:6]([C:5](=[C:4]=[C:3]([H:7])[H:8])[H:10])[H:11])[H:9]"
O       -1.28338694       1.99892776       0.31068878
C       -0.59684135       1.01083388       0.28874934
C       -0.92497953      -0.96606150      -0.48162928
C        0.38137773      -1.28088272       0.05820643
C        1.29761454      -0.31214782      -0.00197894
N        0.75140134       0.99890884       0.05667435
H       -0.97865764      -0.80125125      -1.55593503
H       -1.81256908      -1.51278449      -0.17104632
H       -0.48332896      -0.55303470       1.19097811
H        2.35141753      -0.42147619       0.20593157
H        1.29795237       1.83896820       0.09936100
11
Frame=13 idx=006234 GeodesicLength=1.9864910551367063 rxn_smarts="[O:1]=[C:2]1[C:3]([H:7])([H:8])[C:4]([H:9])=[C:5]([H:10])[N:6]1[H:11]>>[O:1]=[C:2]([N:6]([C:5](=[C:4]=[C:3]([H:7])[H:8])[H:10])[H:11])[H:9]"
O       -1.26907459       2.01386718       0.33097300
C       -0.59398560       1.01582728       0.31563038
C       -0.92561188      -0.97620743      -0.51974981
C        0.35679273      -1.25466503       0.06781331
C        1.29016275      -0.30399727      -0.00902651
N        0.75391778       1.00843655       0.05872988
H       -0.98113821      -0.86298753      -1.60022406
H       -1.81011600      -1.51559786      -0.18623800
H       -0.46484013      -0.54323252       1.24165794
H        2.34101107      -0.42829894       0.20477594
H        1.30288208       1.84685557       0.09565793
11
Frame=14 idx=006234 GeodesicLength=2.1390343924803092 rxn_smarts="[O:1]=[C:2]1[C:3]([H:7])([H:8])[C:4]([H:9])=[C:5]([H:10])[N:6]1[H:11]>>[O:1]=[C:2]([N:6]([C:5](=[C:4]=[C:3]([H:7])[H:8])[H:10])[H:11])[H:9]"
O       -1.25548598       2.02843442       0.35365276
C       -0.59136465       1.02099622       0.34514024
C       -0.92547250      -0.98577436      -0.56137959
C        0.32871720      -1.22631948       0.07779989
C        1.28080233      -0.29594618      -0.01657343
N        0.75541430       1.01829563       0.06089985
H       -0.97906682      -0.93361789      -1.64626419
H       -1.80933175      -1.51279990      -0.20480845
H       -0.43969776      -0.53181530       1.29766410
H        2.32848845      -0.43633657       0.20210178
H        1.30699718       1.85488341       0.09176704
11
Frame=15 idx=006234 GeodesicLength=2.2914726733556865 rxn_smarts="[O:1]=[C:2]1[C:3]([H:7])([H:8])[C:4]([H:9])=[C:5]([H:10])[N:6]1[H:11]>>[O:1]=[C:2]([N:6]([C:5](=[C:4]=[C:3]([H:7])[H:8])[H:10])[H:11])[H:9]"
O       -1.24275836       2.04263139       0.37941389
C       -0.58901299       1.02640547       0.37778016
C       -0.92425264      -0.99469838      -0.60706576
C        0.29635180      -1.19539186       0.08819680
C        1.26903979      -0.28804082      -0.02462517
N        0.75560174       1.02852804       0.06310987
H       -0.97142379      -1.01497819      -1.69302321
H       -1.81084077      -1.50304957      -0.22824452
H       -0.40606185      -0.51859595       1.35920331
H        2.31329256      -0.44586165       0.19781793
H        1.31006451       1.86305152       0.08743670
11
Frame=16 idx=006234 GeodesicLength=2.4437092110968335 rxn_smarts="[O:1]=[C:2]1[C:3]([H:7])([H:8])[C:4]([H:9])=[C:5]([H:10])[N:6]1[H:11]>>[O:1]=[C:2]([N:6]([C:5](=[C:4]=[C:3]([H:7])[H:8])[H:10])[H:11])[H:9]"
O       -1.23104390       2.05650235       0.40891352
C       -0.58695205       1.03216231       0.41407494
C       -0.92143339      -1.00301003      -0.65737120
C        0.25880110      -1.16130132       0.09895700
C        1.25429459      -0.28031419      -0.03315113
N        0.75414165       1.03916635       0.06531902
H       -0.95727777      -1.10904176      -1.73853335
H       -1.81525405      -1.48476819      -0.25846927
H       -0.36185395      -0.50351211       1.42588021
H        2.29475740      -0.45718683       0.19182541
H        1.31182039       1.87130343       0.08255485
