14
Frame=0 idx=010156 GeodesicLength=0.0 rxn_smarts="[O:1]([C@@:2]1([H:9])[C@@:3]2([H:10])[C@@:4]3([H:11])[C:5]([H:12])([H:13])[C@:6]1([H:14])[N:7]23)[H:8]>>[O:1]([C@@:2]1([H:9])[C:3]([H:10])=[N+:7]2[C-:4]([H:11])[C:5]([H:12])([H:13])[C@@:6]12[H:14])[H:8]"
O        1.59046781      -0.57544913      -1.02730249
C        1.17265723      -0.24606016       0.27768858
C        0.90264136       1.25063407       0.44853484
C       -1.28948422       0.78077148      -0.26839839
C       -1.27253801      -0.68886552      -0.54850986
C       -0.27549086      -0.68381235       0.62820200
N       -0.63127992       0.75077873       0.85057416
H        1.65863779       0.28265861      -1.46449229
H        1.88401126      -0.67080094       0.99315458
H        1.27766538       1.67293644       1.38079188
H       -1.53210747       1.67762563      -0.82884580
H       -0.86285131      -0.95881088      -1.52190281
H       -2.21188866      -1.21379062      -0.37402280
H       -0.41044032      -1.37781532       1.45452844
14
Frame=1 idx=010156 GeodesicLength=0.06999277658729801 rxn_smarts="[O:1]([C@@:2]1([H:9])[C@@:3]2([H:10])[C@@:4]3([H:11])[C:5]([H:12])([H:13])[C@:6]1([H:14])[N:7]23)[H:8]>>[O:1]([C@@:2]1([H:9])[C:3]([H:10])=[N+:7]2[C-:4]([H:11])[C:5]([H:12])([H:13])[C@@:6]12[H:14])[H:8]"
O        1.60342849      -0.58925923      -1.01870293
C        1.17496727      -0.25068935       0.28005984
C        0.88033611       1.24098921       0.44268192
C       -1.28260167       0.78659448      -0.26324876
C       -1.27270940      -0.68264932      -0.55242310
C       -0.27372023      -0.69096901       0.62259543
N       -0.62802972       0.74075610       0.86373994
H        1.68917423       0.26308306      -1.46296435
H        1.88459107      -0.66423602       1.00345315
H        1.27399489       1.70302774       1.34695136
H       -1.55789459       1.68841987      -0.79890327
H       -0.86622368      -0.94896214      -1.52836835
H       -2.21329604      -1.20536156      -0.37819177
H       -0.41201673      -1.39074383       1.44332091
14
Frame=2 idx=010156 GeodesicLength=0.13970249063912982 rxn_smarts="[O:1]([C@@:2]1([H:9])[C@@:3]2([H:10])[C@@:4]3([H:11])[C:5]([H:12])([H:13])[C@:6]1([H:14])[N:7]23)[H:8]>>[O:1]([C@@:2]1([H:9])[C:3]([H:10])=[N+:7]2[C-:4]([H:11])[C:5]([H:12])([H:13])[C@@:6]12[H:14])[H:8]"
O        1.61622692      -0.60232578      -1.01017331
C        1.17726926      -0.25532098       0.28245152
C        0.85882004       1.23100506       0.43774189
C       -1.27566735       0.79255317      -0.25819322
C       -1.27291545      -0.67631132      -0.55622418
C       -0.27201318      -0.69794832       0.61696418
N       -0.62455893       0.73082254       0.87656638
H        1.71930243       0.24423869      -1.46074712
H        1.88499795      -0.65821266       1.01338555
H        1.26937055       1.73277879       1.31177465
H       -1.58270167       1.69795704      -0.76888201
H       -0.86964445      -0.93915816      -1.53466336
H       -2.21475492      -1.19674832      -0.38214178
H       -0.41373121      -1.40332975       1.43214081
14
Frame=3 idx=010156 GeodesicLength=0.20915603282435768 rxn_smarts="[O:1]([C@@:2]1([H:9])[C@@:3]2([H:10])[C@@:4]3([H:11])[C:5]([H:12])([H:13])[C@:6]1([H:14])[N:7]23)[H:8]>>[O:1]([C@@:2]1([H:9])[C:3]([H:10])=[N+:7]2[C-:4]([H:11])[C:5]([H:12])([H:13])[C@@:6]12[H:14])[H:8]"
O        1.62882734      -0.61458640      -1.00173062
C        1.17955245      -0.25993914       0.28484473
C        0.83804135       1.22068996       0.43379416
C       -1.26868634       0.79861819      -0.25321822
C       -1.27315436      -0.66984730      -0.55986055
C       -0.27035088      -0.70473661       0.61130802
N       -0.62092511       0.72094944       0.88906322
H        1.74892473       0.22619324      -1.45785389
H        1.88526518      -0.65274903       1.02288499
H        1.26367184       1.76203115       1.27530425
H       -1.60624949       1.70625971      -0.73899710
H       -0.87314018      -0.92943012      -1.54070860
H       -2.21624993      -1.18791683      -0.38580005
H       -0.41552660      -1.41553625       1.42096963
14
Frame=4 idx=010156 GeodesicLength=0.2783555920024832 rxn_smarts="[O:1]([C@@:2]1([H:9])[C@@:3]2([H:10])[C@@:4]3([H:11])[C:5]([H:12])([H:13])[C@:6]1([H:14])[N:7]23)[H:8]>>[O:1]([C@@:2]1([H:9])[C:3]([H:10])=[N+:7]2[C-:4]([H:11])[C:5]([H:12])([H:13])[C@@:6]12[H:14])[H:8]"
O        1.64123437      -0.62607436      -0.99341669
C        1.18182585      -0.26453549       0.28726750
C        0.81799838       1.21015808       0.43089555
C       -1.26166808       0.80481338      -0.24829390
C       -1.27344602      -0.66329473      -0.56335010
C       -0.26872897      -0.71137798       0.60566829
N       -0.61714072       0.71114855       0.90132974
H        1.77798820       0.20895700      -1.45442007
H        1.88543180      -0.64785466       1.03203246
H        1.25691392       1.79079732       1.23759452
H       -1.62845285       1.71347987      -0.70940544
H       -0.87676058      -0.91980454      -1.54658274
H       -2.21780820      -1.17894561      -0.38918874
H       -0.41738710      -1.42746681       1.40986963
14
Frame=5 idx=010156 GeodesicLength=0.34730786733650265 rxn_smarts="[O:1]([C@@:2]1([H:9])[C@@:3]2([H:10])[C@@:4]3([H:11])[C:5]([H:12])([H:13])[C@:6]1([H:14])[N:7]23)[H:8]>>[O:1]([C@@:2]1([H:9])[C:3]([H:10])=[N+:7]2[C-:4]([H:11])[C:5]([H:12])([H:13])[C@@:6]12[H:14])[H:8]"
O        1.65346456      -0.63676250      -0.98518301
C        1.18406965      -0.26908400       0.28970748
C        0.79866137       1.19937452       0.42903888
C       -1.25457573       0.81108370      -0.24334569
C       -1.27375159      -0.65661210      -0.56663705
C       -0.26715506      -0.71785103       0.60002608
N       -0.61323624       0.70134287       0.91338256
H        1.80650608       0.19251098      -1.45044038
H        1.88545770      -0.64348834       1.04078243
H        1.24895515       1.81893669       1.19850629
H       -1.64920619       1.71960749      -0.68013995
H       -0.88046361      -0.91018793      -1.55219793
H       -2.21938571      -1.16977645      -0.39226011
H       -0.41934036      -1.43909391       1.39876040
14
Frame=6 idx=010156 GeodesicLength=0.4161031396750381 rxn_smarts="[O:1]([C@@:2]1([H:9])[C@@:3]2([H:10])[C@@:4]3([H:11])[C:5]([H:12])([H:13])[C@:6]1([H:14])[N:7]23)[H:8]>>[O:1]([C@@:2]1([H:9])[C:3]([H:10])=[N+:7]2[C-:4]([H:11])[C:5]([H:12])([H:13])[C@@:6]12[H:14])[H:8]"
O        1.66551894      -0.64675029      -0.97703769
C        1.18628917      -0.27359715       0.29219482
C        0.77996257       1.18843255       0.42821540
C       -1.24750775       0.81745795      -0.23830650
C       -1.27409679      -0.64981818      -0.56975583
C       -0.26561061      -0.72420262       0.59440360
N       -0.60923282       0.69153857       0.92532027
H        1.83463760       0.17679694      -1.44592300
H        1.88539346      -0.63965047       1.04924101
H        1.23981998       1.84647786       1.15790651
H       -1.66857168       1.72487486      -0.65119921
H       -0.88429703      -0.90054160      -1.55764429
H       -2.22098543      -1.16048723      -0.39507963
H       -0.42131962      -1.45053119       1.38766454
14
Frame=7 idx=010156 GeodesicLength=0.4846986220463518 rxn_smarts="[O:1]([C@@:2]1([H:9])[C@@:3]2([H:10])[C@@:4]3([H:11])[C:5]([H:12])([H:13])[C@:6]1([H:14])[N:7]23)[H:8]>>[O:1]([C@@:2]1([H:9])[C:3]([H:10])=[N+:7]2[C-:4]([H:11])[C:5]([H:12])([H:13])[C@@:6]12[H:14])[H:8]"
O        1.67740286      -0.65599191      -0.96899551
C        1.18849097      -0.27805458       0.29473544
C        0.76191133       1.17735977       0.42850425
C       -1.24040299       0.82391724      -0.23316980
C       -1.27447097      -0.64292046      -0.57268110
C       -0.26409271      -0.73043513       0.58881779
N       -0.60515814       0.68170728       0.93718291
H        1.86228896       0.16186380      -1.44094371
H        1.88525669      -0.63634805       1.05739880
H        1.22941122       1.87329234       1.11580628
H       -1.68642511       1.72935302      -0.62273762
H       -0.88826510      -0.89089382      -1.56289770
H       -2.22261517      -1.15106818      -0.39761371
H       -0.42333182      -1.46178132       1.37659366
14
Frame=8 idx=010156 GeodesicLength=0.5532117603356491 rxn_smarts="[O:1]([C@@:2]1([H:9])[C@@:3]2([H:10])[C@@:4]3([H:11])[C:5]([H:12])([H:13])[C@:6]1([H:14])[N:7]23)[H:8]>>[O:1]([C@@:2]1([H:9])[C:3]([H:10])=[N+:7]2[C-:4]([H:11])[C:5]([H:12])([H:13])[C@@:6]12[H:14])[H:8]"
O        1.68913195      -0.66456736      -0.96101233
C        1.19067407      -0.28246980       0.29733829
C        0.74444064       1.16616546       0.42986870
C       -1.23330803       0.83046853      -0.22785300
C       -1.27485115      -0.63588098      -0.57540740
C       -0.26257424      -0.73655652       0.58325333
N       -0.60102691       0.67181882       0.94901498
H        1.88962178       0.14761709      -1.43543149
H        1.88505614      -0.63357893       1.06528980
H        1.21758453       1.89930662       1.07195933
H       -1.70285994       1.73319243      -0.59466821
H       -0.89235054      -0.88113926      -1.56795297
H       -2.22422117      -1.14149363      -0.39988501
H       -0.42531715      -1.47288247       1.36548598
14
Frame=9 idx=010156 GeodesicLength=0.6216038866688125 rxn_smarts="[O:1]([C@@:2]1([H:9])[C@@:3]2([H:10])[C@@:4]3([H:11])[C:5]([H:12])([H:13])[C@:6]1([H:14])[N:7]23)[H:8]>>[O:1]([C@@:2]1([H:9])[C:3]([H:10])=[N+:7]2[C-:4]([H:11])[C:5]([H:12])([H:13])[C@@:6]12[H:14])[H:8]"
O        1.70073816      -0.67247579      -0.95303950
C        1.19281956      -0.28680413       0.30001889
C        0.72753782       1.15487631       0.43226796
C       -1.22622188       0.83707717      -0.22228114
C       -1.27523119      -0.62868353      -0.57793419
C       -0.26109247      -0.74256631       0.57770666
N       -0.59684727       0.66181990       0.96086288
H        1.91683524       0.13403299      -1.42933241
H        1.88473836      -0.63126111       1.07296309
H        1.20436856       1.92437482       1.02604781
H       -1.71796433       1.73644133      -0.56683247
H       -0.89652256      -0.87116361      -1.57281729
H       -2.22580486      -1.13179719      -0.40192803
H       -0.42735314      -1.48387086       1.35429774
14
Frame=10 idx=010156 GeodesicLength=0.6899363418732721 rxn_smarts="[O:1]([C@@:2]1([H:9])[C@@:3]2([H:10])[C@@:4]3([H:11])[C:5]([H:12])([H:13])[C@:6]1([H:14])[N:7]23)[H:8]>>[O:1]([C@@:2]1([H:9])[C:3]([H:10])=[N+:7]2[C-:4]([H:11])[C:5]([H:12])([H:13])[C@@:6]12[H:14])[H:8]"
O        1.71223533      -0.67975128      -0.94509094
C        1.19495227      -0.29106186       0.30280204
C        0.71117928       1.14355452       0.43576780
C       -1.21914756       0.84378202      -0.21644017
C       -1.27560018      -0.62132297      -0.58027236
C       -0.25960943      -0.74847455       0.57219899
N       -0.59263767       0.65172799       0.97278825
H        1.94391627       0.12109349      -1.42267893
H        1.88436274      -0.62943441       1.08046680
H        1.18963238       1.94835038       0.97799694
H       -1.73177450       1.73926216      -0.53929890
H       -0.90079052      -0.86097340      -1.57752866
H       -2.22735155      -1.12196819      -0.40376100
H       -0.42936685      -1.49478392       1.34305014
14
Frame=11 idx=010156 GeodesicLength=0.7582137462906122 rxn_smarts="[O:1]([C@@:2]1([H:9])[C@@:3]2([H:10])[C@@:4]3([H:11])[C:5]([H:12])([H:13])[C@:6]1([H:14])[N:7]23)[H:8]>>[O:1]([C@@:2]1([H:9])[C:3]([H:10])=[N+:7]2[C-:4]([H:11])[C:5]([H:12])([H:13])[C@@:6]12[H:14])[H:8]"
O        1.72362710      -0.68635703      -0.93715204
C        1.19706924      -0.29520969       0.30569491
C        0.69534942       1.13223684       0.44040384
C       -1.21205806       0.85057400      -0.21031213
C       -1.27594039      -0.61378727      -0.58240448
C       -0.25811921      -0.75426633       0.56673583
N       -0.58842120       0.64152473       0.98481222
H        1.97088662       0.10882827      -1.41545458
H        1.88392774      -0.62807934       1.08780362
H        1.17328966       1.97095826       0.92767386
H       -1.74427364       1.74173225      -0.51209570
H       -0.90514106      -0.85054625      -1.58206173
H       -2.22884584      -1.11199334      -0.40537189
H       -0.43135038      -1.50561511       1.33172828
14
Frame=12 idx=010156 GeodesicLength=0.8264534505337153 rxn_smarts="[O:1]([C@@:2]1([H:9])[C@@:3]2([H:10])[C@@:4]3([H:11])[C:5]([H:12])([H:13])[C@:6]1([H:14])[N:7]23)[H:8]>>[O:1]([C@@:2]1([H:9])[C:3]([H:10])=[N+:7]2[C-:4]([H:11])[C:5]([H:12])([H:13])[C@@:6]12[H:14])[H:8]"
O        1.73491899      -0.69226245      -0.92921718
C        1.19916969      -0.29920569       0.30870378
C        0.68002668       1.12098250       0.44620158
C       -1.20493779       0.85745471      -0.20389032
C       -1.27623454      -0.60606725      -0.58432101
C       -0.25661127      -0.75991980       0.56132749
N       -0.58422363       0.63121202       0.99695436
H        1.99776682       0.09726167      -1.40765800
H        1.88343822      -0.62716667       1.09498428
H        1.15527975       1.99186102       0.87499587
H       -1.75547804       1.74393851      -0.48525397
H       -0.90956134      -0.83987103      -1.58640643
H       -2.23026949      -1.10186750      -0.40675392
H       -0.43328405      -1.51635005       1.32033347
14
Frame=13 idx=010156 GeodesicLength=0.8946784915980299 rxn_smarts="[O:1]([C@@:2]1([H:9])[C@@:3]2([H:10])[C@@:4]3([H:11])[C:5]([H:12])([H:13])[C@:6]1([H:14])[N:7]23)[H:8]>>[O:1]([C@@:2]1([H:9])[C:3]([H:10])=[N+:7]2[C-:4]([H:11])[C:5]([H:12])([H:13])[C@@:6]12[H:14])[H:8]"
O        1.74611837      -0.69743971      -0.92127934
C        1.20125456      -0.30299017       0.31182758
C        0.66518434       1.10987180       0.45315476
C       -1.19778224       0.86442987      -0.19718659
C       -1.27646606      -0.59815519      -0.58601601
C       -0.25507037      -0.76539653       0.55598280
N       -0.58007024       0.62081355       1.00921429
H        2.02456288       0.08640693      -1.39930374
H        1.88290370      -0.62663933       1.10201567
H        1.13558580       2.01062966       0.81998311
H       -1.76544207       1.74595595      -0.45881402
H       -0.91404049      -0.82894752      -1.59055328
H       -2.23160137      -1.09159055      -0.40789952
H       -0.43513681      -1.52694876       1.30887428
14
Frame=14 idx=010156 GeodesicLength=0.9629152431603066 rxn_smarts="[O:1]([C@@:2]1([H:9])[C@@:3]2([H:10])[C@@:4]3([H:11])[C:5]([H:12])([H:13])[C@:6]1([H:14])[N:7]23)[H:8]>>[O:1]([C@@:2]1([H:9])[C:3]([H:10])=[N+:7]2[C-:4]([H:11])[C:5]([H:12])([H:13])[C@@:6]12[H:14])[H:8]"
O        1.75722811      -0.70187007      -0.91334265
C        1.20332316      -0.30648257       0.31504765
C        0.65078838       1.09901057       0.46119736
C       -1.19060339       0.87150612      -0.19023469
C       -1.27662387      -0.59005191      -0.58748599
C       -0.25347910      -0.77064161       0.55070875
N       -0.57598171       0.61037924       1.02156703
H        2.05128003       0.07625736      -1.39043480
H        1.88233384      -0.62640001       1.10889346
H        1.11424932       2.02676233       0.76283385
H       -1.77424920       1.74784625      -0.43283746
H       -0.91857606      -0.81779428      -1.59449615
H       -2.23282096      -1.08117785      -0.40879099
H       -0.43686857      -1.53734359       1.29737463
14
Frame=15 idx=010156 GeodesicLength=1.0311931807072452 rxn_smarts="[O:1]([C@@:2]1([H:9])[C@@:3]2([H:10])[C@@:4]3([H:11])[C:5]([H:12])([H:13])[C@:6]1([H:14])[N:7]23)[H:8]>>[O:1]([C@@:2]1([H:9])[C:3]([H:10])=[N+:7]2[C-:4]([H:11])[C:5]([H:12])([H:13])[C@@:6]12[H:14])[H:8]"
O        1.76824032      -0.70555748      -0.90543496
C        1.20537290      -0.30958228       0.31831200
C        0.63679735       1.08852329       0.47016726
C       -1.18343472       0.87868532      -0.18309138
C       -1.27670742      -0.58176976      -0.58872422
C       -0.25181885      -0.77558093       0.54550508
N       -0.57196779       0.59998766       1.03395177
H        2.07795055       0.06675962      -1.38112887
H        1.88173829      -0.62630006       1.11558282
H        1.09136315       2.03972849       0.70402013
H       -1.78200847       1.74964749      -0.40742201
H       -0.92318121      -0.80645251      -1.59822566
H       -2.23391310      -1.07066007      -0.40938504
H       -0.43843100      -1.54742878       1.28587308
14
Frame=16 idx=010156 GeodesicLength=1.0995384200416207 rxn_smarts="[O:1]([C@@:2]1([H:9])[C@@:3]2([H:10])[C@@:4]3([H:11])[C:5]([H:12])([H:13])[C@:6]1([H:14])[N:7]23)[H:8]>>[O:1]([C@@:2]1([H:9])[C:3]([H:10])=[N+:7]2[C-:4]([H:11])[C:5]([H:12])([H:13])[C@@:6]12[H:14])[H:8]"
O        1.77915197      -0.70854750      -0.89758620
C        1.20740214      -0.31216976       0.32154022
C        0.62314683       1.07855913       0.47977146
C       -1.17634620       0.88596768      -0.17586916
C       -1.27673098      -0.57334134      -0.58973935
C       -0.25006775      -0.78011841       0.54036073
N       -0.56802717       0.58976359       1.04624995
H        2.10456970       0.05779405      -1.37152219
H        1.88113387      -0.62612084       1.12204015
H        1.06720864       2.04901332       0.64438857
H       -1.78892914       1.75136022      -0.38268286
H       -0.92788616      -0.79500815      -1.60174075
H       -2.23486663      -1.06009933      -0.40963755
H       -0.43975912      -1.55705265       1.27442697
