11
Frame=0 idx=001770 GeodesicLength=0.0 rxn_smarts="[N:1]([c:2]1[c:3]([H:9])[n:4]([H:10])[n:5][c:6]1[H:11])([H:7])[H:8]>>[N:1](=[C:2]1[C-:3]([H:9])[N+:4]([H:8])([H:10])[N:5]=[C:6]1[H:11])[H:7]"
N       -1.45049294      -0.58228061       0.00745675
C       -0.56622925       0.09609747      -0.73491341
C        0.60329424      -0.68726112      -0.92422134
N        1.05588026      -0.38608079       0.39304712
N        0.93532506       1.04942867       0.59412307
C       -0.06480839       1.35777047      -0.13556461
H       -2.20083075      -0.00345966       0.37732651
H       -0.20674391      -0.73345124       0.88158545
H        0.42896092      -1.74854220      -1.06840707
H        1.94358924      -0.71912095       0.75243674
H       -0.47794450       2.35689996      -0.14286921
11
Frame=1 idx=001770 GeodesicLength=0.06708553445826161 rxn_smarts="[N:1]([c:2]1[c:3]([H:9])[n:4]([H:10])[n:5][c:6]1[H:11])([H:7])[H:8]>>[N:1](=[C:2]1[C-:3]([H:9])[N+:4]([H:8])([H:10])[N:5]=[C:6]1[H:11])[H:7]"
N       -1.46396991      -0.57735344       0.00587835
C       -0.56938964       0.09456839      -0.73352627
C        0.60072667      -0.68811694      -0.91762314
N        1.06079545      -0.38431835       0.39673064
N        0.94541330       1.05027800       0.58653781
C       -0.05887506       1.35541832      -0.14227071
H       -2.21034057       0.01065476       0.36811821
H       -0.21543073      -0.74608731       0.89607351
H        0.44235223      -1.75003033      -1.07122812
H        1.95487115      -0.71361716       0.74330301
H       -0.48615290       2.34860406      -0.13199330
11
Frame=2 idx=001770 GeodesicLength=0.13415988168955573 rxn_smarts="[N:1]([c:2]1[c:3]([H:9])[n:4]([H:10])[n:5][c:6]1[H:11])([H:7])[H:8]>>[N:1](=[C:2]1[C-:3]([H:9])[N+:4]([H:8])([H:10])[N:5]=[C:6]1[H:11])[H:7]"
N       -1.47760266      -0.57236520       0.00432823
C       -0.57267411       0.09302193      -0.73195712
C        0.59802390      -0.68897139      -0.91085255
N        1.06582851      -0.38239296       0.40040495
N        0.95543329       1.05119202       0.57886857
C       -0.05323221       1.35302063      -0.14878544
H       -2.21983172       0.02473687       0.35900768
H       -0.22432610      -0.75913367       0.91074598
H        0.45612133      -1.75119728      -1.07430220
H        1.96602697      -0.70806047       0.73407388
H       -0.49376720       2.34014951      -0.12153198
11
Frame=3 idx=001770 GeodesicLength=0.20122227919048802 rxn_smarts="[N:1]([c:2]1[c:3]([H:9])[n:4]([H:10])[n:5][c:6]1[H:11])([H:7])[H:8]>>[N:1](=[C:2]1[C-:3]([H:9])[N+:4]([H:8])([H:10])[N:5]=[C:6]1[H:11])[H:7]"
N       -1.49139737      -0.56731381       0.00280517
C       -0.57608184       0.09144931      -0.73020033
C        0.59518371      -0.68983969      -0.90389457
N        1.07098292      -0.38030599       0.40407199
N        0.96539327       1.05217073       0.57110331
C       -0.04787368       1.35057105      -0.15511113
H       -2.22930566       0.03879992       0.35000197
H       -0.23344418      -0.77262158       0.92560755
H        0.47028166      -1.75202511      -1.07764318
H        1.97706400      -0.70245470       0.72475689
H       -0.50080281       2.33156986      -0.11149768
11
Frame=4 idx=001770 GeodesicLength=0.2682791396118518 rxn_smarts="[N:1]([c:2]1[c:3]([H:9])[n:4]([H:10])[n:5][c:6]1[H:11])([H:7])[H:8]>>[N:1](=[C:2]1[C-:3]([H:9])[N+:4]([H:8])([H:10])[N:5]=[C:6]1[H:11])[H:7]"
N       -1.50535934      -0.56218916       0.00131276
C       -0.57960831       0.08983790      -0.72825429
C        0.59220227      -0.69075205      -0.89672903
N        1.07626546      -0.37805919       0.40773273
N        0.97531417       1.05321706       0.56320773
C       -0.04278032       1.34806315      -0.16127407
H       -2.23876034       0.05286713       0.34109375
H       -0.24279942      -0.78657179       0.94066949
H        0.48485347      -1.75249563      -1.08126304
H        1.98797833      -0.69680775       0.71536328
H       -0.50730595       2.32289032      -0.10185932
11
Frame=5 idx=001770 GeodesicLength=0.3353303491731054 rxn_smarts="[N:1]([c:2]1[c:3]([H:9])[n:4]([H:10])[n:5][c:6]1[H:11])([H:7])[H:8]>>[N:1](=[C:2]1[C-:3]([H:9])[N+:4]([H:8])([H:10])[N:5]=[C:6]1[H:11])[H:7]"
N       -1.51949361      -0.55698131      -0.00015110
C       -0.58324850       0.08817747      -0.72611853
C        0.58907753      -0.69173252      -0.88933667
N        1.08168126      -0.37565160       0.41138758
N        0.98521201       1.05433352       0.55515133
C       -0.03793511       1.34549188      -0.16729941
H       -2.24819283       0.06695764       0.33228049
H       -0.25240678      -0.80100660       0.95593966
H        0.49985011      -1.75259612      -1.08516911
H        1.99877226      -0.69112614       0.70590441
H       -0.51331635       2.31413378      -0.09258866
11
Frame=6 idx=001770 GeodesicLength=0.4023831779803266 rxn_smarts="[N:1]([c:2]1[c:3]([H:9])[n:4]([H:10])[n:5][c:6]1[H:11])([H:7])[H:8]>>[N:1](=[C:2]1[C-:3]([H:9])[N+:4]([H:8])([H:10])[N:5]=[C:6]1[H:11])[H:7]"
N       -1.53380890      -0.55168229      -0.00158101
C       -0.58700230       0.08645518      -0.72378550
C        0.58580338      -0.69280945      -0.88169370
N        1.08723600      -0.37308380       0.41503998
N        0.99510076       1.05552043       0.54690701
C       -0.03332619       1.34284921      -0.17320312
H       -2.25760225       0.08109122       0.32356165
H       -0.26228726      -0.81595105       0.97143259
H        0.51529752      -1.75229032      -1.08938457
H        2.00944598      -0.68541341       0.69638768
H       -0.51885674       2.30531426      -0.08368100
11
Frame=7 idx=001770 GeodesicLength=0.4694378465660631 rxn_smarts="[N:1]([c:2]1[c:3]([H:9])[n:4]([H:10])[n:5][c:6]1[H:11])([H:7])[H:8]>>[N:1](=[C:2]1[C-:3]([H:9])[N+:4]([H:8])([H:10])[N:5]=[C:6]1[H:11])[H:7]"
N       -1.54831177      -0.54628219      -0.00297355
C       -0.59086600       0.08465665      -0.72124625
C        0.58237508      -0.69400980      -0.87377335
N        1.09293730      -0.37035279       0.41869292
N        1.00499704       1.05678053       0.53844078
C       -0.02893932       1.34012784      -0.17900911
H       -2.26698856       0.09529288       0.31493030
H       -0.27246085      -0.83143278       0.98715758
H        0.53121417      -1.75154928      -1.09392512
H        2.02000319      -0.67967431       0.68682151
H       -0.52396029       2.29644327      -0.07511570
11
Frame=8 idx=001770 GeodesicLength=0.5364961940889876 rxn_smarts="[N:1]([c:2]1[c:3]([H:9])[n:4]([H:10])[n:5][c:6]1[H:11])([H:7])[H:8]>>[N:1](=[C:2]1[C-:3]([H:9])[N+:4]([H:8])([H:10])[N:5]=[C:6]1[H:11])[H:7]"
N       -1.56301161      -0.54077356      -0.00432872
C       -0.59483997       0.08277131      -0.71849402
C        0.57878745      -0.69535638      -0.86554930
N        1.09878829      -0.36745674       0.42235094
N        1.01490919       1.05811271       0.52973006
C       -0.02476656       1.33732054      -0.18472826
H       -2.27635202       0.10957693       0.30638859
H       -0.28295538      -0.84747716       1.00312977
H        0.54761810      -1.75033537      -1.09881174
H        2.03045949      -0.67390913       0.67720943
H       -0.52863699       2.28752685      -0.06689676
11
Frame=9 idx=001770 GeodesicLength=0.6035627081597341 rxn_smarts="[N:1]([c:2]1[c:3]([H:9])[n:4]([H:10])[n:5][c:6]1[H:11])([H:7])[H:8]>>[N:1](=[C:2]1[C-:3]([H:9])[N+:4]([H:8])([H:10])[N:5]=[C:6]1[H:11])[H:7]"
N       -1.57791873      -0.53514505      -0.00563762
C       -0.59892483       0.08078125      -0.71551907
C        0.57503001      -0.69689027      -0.85698302
N        1.10479492      -0.36439355       0.42601920
N        1.02485629       1.05951746       0.52072905
C       -0.02079122       1.33441658      -0.19039522
H       -2.28569273       0.12396821       0.29794343
H       -0.29380082      -0.86410933       1.01936517
H        0.56455358      -1.74859144      -1.10408222
H        2.04080644      -0.66812546       0.66756774
H       -0.53291291       2.27857161      -0.05900743
11
Frame=10 idx=001770 GeodesicLength=0.6706334758560223 rxn_smarts="[N:1]([c:2]1[c:3]([H:9])[n:4]([H:10])[n:5][c:6]1[H:11])([H:7])[H:8]>>[N:1](=[C:2]1[C-:3]([H:9])[N+:4]([H:8])([H:10])[N:5]=[C:6]1[H:11])[H:7]"
N       -1.59304174      -0.52938788      -0.00689767
C       -0.60311832       0.07866987      -0.71230811
C        0.57109755      -0.69863717      -0.84804189
N        1.11096289      -0.36115942       0.42970419
N        1.03484646       1.06099344       0.51140975
C       -0.01700487       1.33140538      -0.19602664
H       -2.29500948       0.13848766       0.28958702
H       -0.30502676      -0.88135907       1.03588171
H        0.58203263      -1.74626697      -1.10975866
H        2.05106307      -0.66232260       0.65789787
H       -0.53680142       2.26957676      -0.05144757
11
Frame=11 idx=001770 GeodesicLength=0.73770879205997 rxn_smarts="[N:1]([c:2]1[c:3]([H:9])[n:4]([H:10])[n:5][c:6]1[H:11])([H:7])[H:8]>>[N:1](=[C:2]1[C-:3]([H:9])[N+:4]([H:8])([H:10])[N:5]=[C:6]1[H:11])[H:7]"
N       -1.60839025      -0.52349020      -0.00809427
C       -0.60742108       0.07641793      -0.70884482
C        0.56697878      -0.70063680      -0.83868295
N        1.11729910      -0.35775021       0.43341330
N        1.04489841       1.06253945       0.50172376
C       -0.01339343       1.32827389      -0.20165222
H       -2.30429966       0.15315344       0.28131240
H       -0.31666281      -0.89925260       1.05270478
H        0.60009110      -1.74328743      -1.11588196
H        2.06122368      -0.65651307       0.64821274
H       -0.54032385       2.26054562      -0.04421076
11
Frame=12 idx=001770 GeodesicLength=0.8047911151483237 rxn_smarts="[N:1]([c:2]1[c:3]([H:9])[n:4]([H:10])[n:5][c:6]1[H:11])([H:7])[H:8]>>[N:1](=[C:2]1[C-:3]([H:9])[N+:4]([H:8])([H:10])[N:5]=[C:6]1[H:11])[H:7]"
N       -1.62397746      -0.51744295      -0.00921456
C       -0.61183549       0.07400087      -0.70510830
C        0.56266192      -0.70293153      -0.82885387
N        1.12381013      -0.35416195       0.43715794
N        1.05502284       1.06415015       0.49163014
C       -0.00994809       1.32500490      -0.20729648
H       -2.31356271       0.16798816       0.27312528
H       -0.32875282      -0.91782468       1.06985913
H        0.61876829      -1.73955701      -1.12250575
H        2.07129592      -0.65070157       0.63852232
H       -0.54348253       2.25147562      -0.03731584
11
Frame=13 idx=001770 GeodesicLength=0.8718731038945383 rxn_smarts="[N:1]([c:2]1[c:3]([H:9])[n:4]([H:10])[n:5][c:6]1[H:11])([H:7])[H:8]>>[N:1](=[C:2]1[C-:3]([H:9])[N+:4]([H:8])([H:10])[N:5]=[C:6]1[H:11])[H:7]"
N       -1.63981629      -0.51123737      -0.01024714
C       -0.61636423       0.07139333      -0.70107702
C        0.55813387      -0.70556503      -0.81849992
N        1.13049972      -0.35039153       0.44094995
N        1.06523002       1.06581826       0.48108526
C       -0.00665981       1.32157952      -0.21298628
H       -2.32279888       0.18301380       0.26503126
H       -0.34133942      -0.93710728       1.08737327
H        0.63810281      -1.73496953      -1.12968535
H        2.08128997      -0.64489464       0.62883897
H       -0.54627775       2.24236047      -0.03078300
11
Frame=14 idx=001770 GeodesicLength=0.9389539941579184 rxn_smarts="[N:1]([c:2]1[c:3]([H:9])[n:4]([H:10])[n:5][c:6]1[H:11])([H:7])[H:8]>>[N:1](=[C:2]1[C-:3]([H:9])[N+:4]([H:8])([H:10])[N:5]=[C:6]1[H:11])[H:7]"
N       -1.65592002      -0.50486263      -0.01116593
C       -0.62100986       0.06856217      -0.69672177
C        0.55337756      -0.70859383      -0.80755313
N        1.13737536      -0.34643469       0.44480497
N        1.07553572       1.06753264       0.47003055
C       -0.00351543       1.31797228      -0.21875882
H       -2.33200514       0.19825247       0.25702782
H       -0.35447350      -0.95713381       1.10528475
H        0.65814336      -1.72938365      -1.13749448
H        2.09120630      -0.63910637       0.61918026
H       -0.54871434       2.23319542      -0.02463421
11
Frame=15 idx=001770 GeodesicLength=1.0060224204230463 rxn_smarts="[N:1]([c:2]1[c:3]([H:9])[n:4]([H:10])[n:5][c:6]1[H:11])([H:7])[H:8]>>[N:1](=[C:2]1[C-:3]([H:9])[N+:4]([H:8])([H:10])[N:5]=[C:6]1[H:11])[H:7]"
N       -1.67230239      -0.49830936      -0.01195007
C       -0.62577556       0.06547246      -0.69201193
C        0.54837634      -0.71207476      -0.79594100
N        1.14444240      -0.34228909       0.44873891
N        1.08595009       1.06927860       0.45841362
C       -0.00050429       1.31415441      -0.22464944
H       -2.34117958       0.21372605       0.24911799
H       -0.36820877      -0.97793753       1.12363257
H        0.67893379      -1.72264341      -1.14600868
H        2.10105333      -0.63334655       0.60956238
H       -0.55078538       2.22396918      -0.01890435
11
Frame=16 idx=001770 GeodesicLength=1.0730727201966066 rxn_smarts="[N:1]([c:2]1[c:3]([H:9])[n:4]([H:10])[n:5][c:6]1[H:11])([H:7])[H:8]>>[N:1](=[C:2]1[C-:3]([H:9])[N+:4]([H:8])([H:10])[N:5]=[C:6]1[H:11])[H:7]"
N       -1.68897970      -0.49156857      -0.01256680
C       -0.63066641       0.06207802      -0.68690977
C        0.54310782      -0.71608217      -0.78357284
N        1.15170586      -0.33795406       0.45277321
N        1.09648679       1.07103516       0.44616780
C        0.00238674       1.31008930      -0.23070292
H       -2.35031972       0.22945862       0.24130707
H       -0.38260786      -0.99955721       1.14246836
H        0.70053386      -1.71453930      -1.15533055
H        2.11083194      -0.62763281       0.60001094
H       -0.55247932       2.21467303      -0.01364449
