10
Frame=0 idx=003080 GeodesicLength=0.0 rxn_smarts="[N:1]([c:2]1[c:3]([H:9])[o:4][c:5]([H:10])[n:6]1)([H:7])[H:8]>>[N:1]([c:2]1[c:3]([H:9])[o+:4][c-:5][n:6]1[H:10])([H:7])[H:8]"
N        1.54094278      -0.39058301       0.57927138
C        0.30018416      -0.05879878       0.07168483
C       -0.25117995       1.10294437      -0.31917148
O       -1.57235746       0.88956896      -0.60588626
C       -1.82242096      -0.43063406      -0.50787915
N       -0.67636958      -1.04201620      -0.08881248
H        2.27032330       0.27804421       0.39803468
H        1.81987449      -1.33242864       0.35578905
H        0.13185190       2.09748570      -0.46654377
H       -1.74084868      -1.11358255       0.58351320
10
Frame=1 idx=003080 GeodesicLength=0.040644301831931094 rxn_smarts="[N:1]([c:2]1[c:3]([H:9])[o:4][c:5]([H:10])[n:6]1)([H:7])[H:8]>>[N:1]([c:2]1[c:3]([H:9])[o+:4][c-:5][n:6]1[H:10])([H:7])[H:8]"
N        1.54051988      -0.38974800       0.58192906
C        0.30168718      -0.05500330       0.07064793
C       -0.24798405       1.10870607      -0.31693594
O       -1.57235160       0.89871791      -0.59316939
C       -1.82328547      -0.42006274      -0.49448857
N       -0.67880529      -1.03322455      -0.08426418
H        2.26999579       0.28023283       0.40594052
H        1.82157529      -1.32967232       0.35284374
H        0.14327769       2.09522705      -0.49348590
H       -1.75462940      -1.15517295       0.57098273
10
Frame=2 idx=003080 GeodesicLength=0.0812400456400805 rxn_smarts="[N:1]([c:2]1[c:3]([H:9])[o:4][c:5]([H:10])[n:6]1)([H:7])[H:8]>>[N:1]([c:2]1[c:3]([H:9])[o+:4][c-:5][n:6]1[H:10])([H:7])[H:8]"
N        1.54061787      -0.38878669       0.58414700
C        0.30311671      -0.05099044       0.07072503
C       -0.24409197       1.11402892      -0.31661758
O       -1.57136087       0.90731442      -0.58321665
C       -1.82407616      -0.40955785      -0.47987521
N       -0.68184718      -1.02400852      -0.07598524
H        2.27006966       0.28240689       0.41252396
H        1.82343598      -1.32680129       0.34922983
H        0.15376809       2.09322705      -0.51735877
H       -1.76963212      -1.19683249       0.55642765
10
Frame=3 idx=003080 GeodesicLength=0.12173305994371013 rxn_smarts="[N:1]([c:2]1[c:3]([H:9])[o:4][c:5]([H:10])[n:6]1)([H:7])[H:8]>>[N:1]([c:2]1[c:3]([H:9])[o+:4][c-:5][n:6]1[H:10])([H:7])[H:8]"
N        1.54105873      -0.38769714       0.58596586
C        0.30464941      -0.04692530       0.07094591
C       -0.23959875       1.11888896      -0.31835216
O       -1.56951536       0.91541598      -0.57612782
C       -1.82515038      -0.39889220      -0.46327188
N       -0.68552453      -1.01433579      -0.06432423
H        2.27047953       0.28452047       0.41804945
H        1.82534683      -1.32391084       0.34545094
H        0.16347364       2.09180734      -0.53813361
H       -1.78521913      -1.23887146       0.53979755
10
Frame=4 idx=003080 GeodesicLength=0.16208878139343105 rxn_smarts="[N:1]([c:2]1[c:3]([H:9])[o:4][c:5]([H:10])[n:6]1)([H:7])[H:8]>>[N:1]([c:2]1[c:3]([H:9])[o+:4][c-:5][n:6]1[H:10])([H:7])[H:8]"
N        1.54151077      -0.38644502       0.58757943
C        0.30647922      -0.04297522       0.07007870
C       -0.23454753       1.12333941      -0.32231822
O       -1.56709245       0.92337693      -0.57111257
C       -1.82704931      -0.38747351      -0.44327153
N       -0.68980344      -1.00411174      -0.05026998
H        2.27105678       0.28653008       0.42307700
H        1.82710031      -1.32110762       0.34236135
H        0.17269881       2.09104812      -0.55667903
H       -1.80035317      -1.28218144       0.52055486
10
Frame=5 idx=003080 GeodesicLength=0.20229397744455113 rxn_smarts="[N:1]([c:2]1[c:3]([H:9])[o:4][c:5]([H:10])[n:6]1)([H:7])[H:8]>>[N:1]([c:2]1[c:3]([H:9])[o+:4][c-:5][n:6]1[H:10])([H:7])[H:8]"
N        1.54243871      -0.38505758       0.58859052
C        0.30832189      -0.03897755       0.06965662
C       -0.22909774       1.12724245      -0.32798849
O       -1.56348962       0.93025006      -0.57114131
C       -1.82939045      -0.37569055      -0.42020132
N       -0.69493940      -0.99310561      -0.03136210
H        2.27207351       0.28844522       0.42646726
H        1.82885007      -1.31833670       0.33883630
H        0.18128191       2.09135050      -0.57125852
H       -1.81604888      -1.32612024       0.49840103
10
Frame=6 idx=003080 GeodesicLength=0.24229888888087764 rxn_smarts="[N:1]([c:2]1[c:3]([H:9])[o:4][c:5]([H:10])[n:6]1)([H:7])[H:8]>>[N:1]([c:2]1[c:3]([H:9])[o+:4][c-:5][n:6]1[H:10])([H:7])[H:8]"
N        1.54423021      -0.38348237       0.58851950
C        0.31007219      -0.03483916       0.07039903
C       -0.22336736       1.13043384      -0.33525195
O       -1.55796870       0.93471362      -0.58013682
C       -1.83202751      -0.36369102      -0.39387468
N       -0.70124779      -0.98084204      -0.00505024
H        2.27393964       0.29001831       0.42653329
H        1.83043109      -1.31577733       0.33459928
H        0.18868873       2.09363529      -0.57891264
H       -1.83275050      -1.37016915       0.47317523
10
Frame=7 idx=003080 GeodesicLength=0.28192056604929266 rxn_smarts="[N:1]([c:2]1[c:3]([H:9])[o:4][c:5]([H:10])[n:6]1)([H:7])[H:8]>>[N:1]([c:2]1[c:3]([H:9])[o+:4][c-:5][n:6]1[H:10])([H:7])[H:8]"
N        1.54636926      -0.38124375       0.58783064
C        0.31218209      -0.03077602       0.06991790
C       -0.21732102       1.13316966      -0.34455987
O       -1.55110037       0.93729264      -0.59559242
C       -1.83595572      -0.34960160      -0.36067347
N       -0.70859274      -0.96671103       0.02708357
H        2.27680161       0.29071348       0.42247402
H        1.83087629      -1.31399088       0.33338257
H        0.19489768       2.09787524      -0.58148841
H       -1.84815708      -1.41672772       0.44162548
10
Frame=8 idx=003080 GeodesicLength=0.3206661557771252 rxn_smarts="[N:1]([c:2]1[c:3]([H:9])[o:4][c:5]([H:10])[n:6]1)([H:7])[H:8]>>[N:1]([c:2]1[c:3]([H:9])[o+:4][c-:5][n:6]1[H:10])([H:7])[H:8]"
N        1.54977162      -0.37818326       0.58679622
C        0.31361483      -0.02540025       0.07413682
C       -0.21169722       1.13640256      -0.35163294
O       -1.54296672       0.93744736      -0.61545085
C       -1.84051149      -0.33299170      -0.32055608
N       -0.71756958      -0.94900231       0.07083585
H        2.28124093       0.29038862       0.41226534
H        1.82977327      -1.31267449       0.33338837
H        0.20098738       2.10167208      -0.58547284
H       -1.86264301      -1.46765862       0.39569011
10
Frame=9 idx=003080 GeodesicLength=0.356536865652302 rxn_smarts="[N:1]([c:2]1[c:3]([H:9])[o:4][c:5]([H:10])[n:6]1)([H:7])[H:8]>>[N:1]([c:2]1[c:3]([H:9])[o+:4][c-:5][n:6]1[H:10])([H:7])[H:8]"
N        1.55320138      -0.37438828       0.58734956
C        0.31411670      -0.01870385       0.08278096
C       -0.20613654       1.13927071      -0.35946246
O       -1.53804402       0.93961941      -0.62200680
C       -1.84684116      -0.31220705      -0.26896028
N       -0.72823068      -0.92704385       0.12571319
H        2.28593557       0.28944973       0.40044868
H        1.82652406      -1.31157225       0.33642968
H        0.20936431       2.10020999      -0.60509973
H       -1.86988961      -1.52463456       0.32280720
10
Frame=10 idx=003080 GeodesicLength=0.3871800877368558 rxn_smarts="[N:1]([c:2]1[c:3]([H:9])[o:4][c:5]([H:10])[n:6]1)([H:7])[H:8]>>[N:1]([c:2]1[c:3]([H:9])[o+:4][c-:5][n:6]1[H:10])([H:7])[H:8]"
N        1.55733959      -0.37181256       0.58675674
C        0.31207311      -0.01073911       0.10085228
C       -0.20220670       1.14039786      -0.36582369
O       -1.53244792       0.93513997      -0.63534775
C       -1.85359561      -0.29171608      -0.21431615
N       -0.74254683      -0.89916829       0.20143015
H        2.29064601       0.28649758       0.38333898
H        1.82023693      -1.31190943       0.33531804
H        0.21544557       2.09687402      -0.62426222
H       -1.86494415      -1.57356395       0.23205361
10
Frame=11 idx=003080 GeodesicLength=0.4175896752080381 rxn_smarts="[N:1]([c:2]1[c:3]([H:9])[o:4][c:5]([H:10])[n:6]1)([H:7])[H:8]>>[N:1]([c:2]1[c:3]([H:9])[o+:4][c-:5][n:6]1[H:10])([H:7])[H:8]"
N        1.55927898      -0.37057915       0.58675686
C        0.30867362      -0.00487777       0.11735395
C       -0.20019520       1.13868122      -0.37377671
O       -1.53023801       0.92811656      -0.64349202
C       -1.86138135      -0.27241513      -0.15954176
N       -0.75709226      -0.87138327       0.27515215
H        2.29326860       0.28124464       0.36557821
H        1.81132043      -1.31439426       0.33786993
H        0.21829421       2.09159707      -0.64348262
H       -1.84192903      -1.60598991       0.13758201
10
Frame=12 idx=003080 GeodesicLength=0.4524014643920681 rxn_smarts="[N:1]([c:2]1[c:3]([H:9])[o:4][c:5]([H:10])[n:6]1)([H:7])[H:8]>>[N:1]([c:2]1[c:3]([H:9])[o+:4][c-:5][n:6]1[H:10])([H:7])[H:8]"
N        1.55957731      -0.37000751       0.58632454
C        0.30575407      -0.00276554       0.12572528
C       -0.19860649       1.13311453      -0.38798008
O       -1.52886559       0.91700093      -0.65550873
C       -1.86800969      -0.25622933      -0.11332202
N       -0.76907651      -0.84758996       0.33444395
H        2.29461720       0.27364161       0.34551488
H        1.80217286      -1.31885384       0.34701819
H        0.21447709       2.09159933      -0.64506548
H       -1.81204024      -1.61991023       0.06284947
10
Frame=13 idx=003080 GeodesicLength=0.4893107180401493 rxn_smarts="[N:1]([c:2]1[c:3]([H:9])[o:4][c:5]([H:10])[n:6]1)([H:7])[H:8]>>[N:1]([c:2]1[c:3]([H:9])[o+:4][c-:5][n:6]1[H:10])([H:7])[H:8]"
N        1.55899259      -0.37104299       0.58622736
C        0.30265905      -0.00179371       0.13300970
C       -0.19831768       1.12813068      -0.39753251
O       -1.52765816       0.90465185      -0.66733851
C       -1.87316960      -0.24280952      -0.07570417
N       -0.77862994      -0.82881166       0.37943715
H        2.29416739       0.26753069       0.33265742
H        1.79525745      -1.32246844       0.35060453
H        0.21030429       2.09040668      -0.64686205
H       -1.78360539      -1.62379358       0.00550108
10
Frame=14 idx=003080 GeodesicLength=0.5267522429480723 rxn_smarts="[N:1]([c:2]1[c:3]([H:9])[o:4][c:5]([H:10])[n:6]1)([H:7])[H:8]>>[N:1]([c:2]1[c:3]([H:9])[o+:4][c-:5][n:6]1[H:10])([H:7])[H:8]"
N        1.55779393      -0.37333955       0.58663458
C        0.29928297      -0.00099694       0.14095102
C       -0.19916934       1.12472352      -0.40147793
O       -1.52696974       0.89316578      -0.67594605
C       -1.87727050      -0.23176363      -0.04456975
N       -0.78681821      -0.81353584       0.41565665
H        2.29236458       0.26343947       0.32682209
H        1.79003176      -1.32509699       0.34804902
H        0.20788533       2.08657542      -0.65435083
H       -1.75713078      -1.62317123      -0.04176880
10
Frame=15 idx=003080 GeodesicLength=0.5643185574249675 rxn_smarts="[N:1]([c:2]1[c:3]([H:9])[o:4][c:5]([H:10])[n:6]1)([H:7])[H:8]>>[N:1]([c:2]1[c:3]([H:9])[o+:4][c-:5][n:6]1[H:10])([H:7])[H:8]"
N        1.55622099      -0.37577726       0.58760693
C        0.29617517      -0.00125456       0.14694006
C       -0.20051803       1.12176007      -0.40337036
O       -1.52745596       0.88346395      -0.68007663
C       -1.88075330      -0.22198469      -0.01620626
N       -0.79363241      -0.80146038       0.44484321
H        2.28989669       0.26087457       0.32490092
H        1.78648103      -1.32695885       0.34452993
H        0.20657340       2.08099183      -0.66536867
H       -1.73298759      -1.61965467      -0.08379912
10
Frame=16 idx=003080 GeodesicLength=0.6021089476127109 rxn_smarts="[N:1]([c:2]1[c:3]([H:9])[o:4][c:5]([H:10])[n:6]1)([H:7])[H:8]>>[N:1]([c:2]1[c:3]([H:9])[o+:4][c-:5][n:6]1[H:10])([H:7])[H:8]"
N        1.55446391      -0.37859623       0.58855302
C        0.29273999      -0.00084847       0.15436210
C       -0.20238750       1.11983407      -0.40277724
O       -1.52788557       0.87406010      -0.68366814
C       -1.88367969      -0.21389462       0.00775723
N       -0.80025410      -0.79006038       0.47175907
H        2.28719276       0.25823095       0.32355825
H        1.78250882      -1.32878999       0.33928589
H        0.20576265       2.07490676      -0.67742305
H       -1.70846126      -1.61484220      -0.12140713
