15
Frame=0 idx=008164 GeodesicLength=0.0 rxn_smarts="[O:1]([C@@:2]12[C:3]([H:9])([H:10])[C@@:4]3([H:11])[C:5]([H:12])([H:13])[C@:6]1([H:14])[C@@:7]23[H:15])[H:8]>>[O:1]([C@:2]1([C:3]([H:9])([H:10])[H:12])[C@@:6]2([H:14])[C:5]([H:13])=[C:4]([H:11])[C@@:7]12[H:15])[H:8]"
O        2.18246302       0.72714513      -0.36315305
C        0.90754050       0.24974509      -0.16228080
C        0.55592269      -1.18183834       0.18663777
C       -0.88153629      -0.82321153      -0.33023967
C       -1.56491223       0.56176178       0.67188716
C       -0.30156703       1.18574420       0.10657533
C       -0.23951565       0.35282962      -1.12023711
H        2.46733668       1.19328081       0.42515690
H        0.66509095      -1.54964402       1.21207693
H        1.03208200      -1.86615693      -0.51587350
H       -1.57029162      -1.56906921      -0.70614518
H       -1.13516219      -0.57145994       0.88773135
H       -1.67749430       0.44731093       1.77104860
H       -0.10495110       2.24982187       0.10516830
H       -0.33500549       0.59374049      -2.16835299
15
Frame=1 idx=008164 GeodesicLength=0.13880739787197974 rxn_smarts="[O:1]([C@@:2]12[C:3]([H:9])([H:10])[C@@:4]3([H:11])[C:5]([H:12])([H:13])[C@:6]1([H:14])[C@@:7]23[H:15])[H:8]>>[O:1]([C@:2]1([C:3]([H:9])([H:10])[H:12])[C@@:6]2([H:14])[C:5]([H:13])=[C:4]([H:11])[C@@:7]12[H:15])[H:8]"
O        2.18186618       0.71249118      -0.36510550
C        0.90475523       0.24331382      -0.15923896
C        0.55228965      -1.18682100       0.19565642
C       -0.90069895      -0.81066168      -0.34292932
C       -1.55834442       0.54314457       0.66530600
C       -0.29951532       1.18326437       0.10883631
C       -0.23659650       0.35644065      -1.12389287
H        2.45516886       1.21917018       0.40194105
H        0.68423505      -1.54303564       1.22230370
H        1.03129450      -1.87411293      -0.50221211
H       -1.58467725      -1.55596434      -0.72905343
H       -1.13523131      -0.60395528       0.91677905
H       -1.67550264       0.46300510       1.76597612
H       -0.10247950       2.24713156       0.11667479
H       -0.31656358       0.60658945      -2.17104124
15
Frame=2 idx=008164 GeodesicLength=0.2774972995607671 rxn_smarts="[O:1]([C@@:2]12[C:3]([H:9])([H:10])[C@@:4]3([H:11])[C:5]([H:12])([H:13])[C@:6]1([H:14])[C@@:7]23[H:15])[H:8]>>[O:1]([C@:2]1([C:3]([H:9])([H:10])[H:12])[C@@:6]2([H:14])[C:5]([H:13])=[C:4]([H:11])[C@@:7]12[H:15])[H:8]"
O        2.18119546       0.69788070      -0.36662366
C        0.90187866       0.23694930      -0.15608100
C        0.54857430      -1.19152665       0.20564880
C       -0.91995692      -0.79752299      -0.35591808
C       -1.55122628       0.52484928       0.65954526
C       -0.29747134       1.18102572       0.11106925
C       -0.23355772       0.36023345      -1.12747013
H        2.44311701       1.24432287       0.37666917
H        0.70366731      -1.53553282       1.23306820
H        1.03037868      -1.88199161      -0.48737853
H       -1.59899725      -1.54227961      -0.75217566
H       -1.13653812      -0.63693320       0.94432199
H       -1.67319741       0.47643802       1.76050635
H       -0.09994283       2.24458556       0.12819886
H       -0.29792353       0.61950199      -2.17338083
15
Frame=3 idx=008164 GeodesicLength=0.4161178209157642 rxn_smarts="[O:1]([C@@:2]12[C:3]([H:9])([H:10])[C@@:4]3([H:11])[C:5]([H:12])([H:13])[C@:6]1([H:14])[C@@:7]23[H:15])[H:8]>>[O:1]([C@:2]1([C:3]([H:9])([H:10])[H:12])[C@@:6]2([H:14])[C:5]([H:13])=[C:4]([H:11])[C@@:7]12[H:15])[H:8]"
O        2.18043406       0.68336370      -0.36767191
C        0.89891459       0.23065552      -0.15282722
C        0.54482152      -1.19595591       0.21656879
C       -0.93927201      -0.78378738      -0.36926590
C       -1.54364306       0.50683089       0.65445001
C       -0.29545058       1.17900152       0.11327746
C       -0.23039814       0.36420290      -1.13097999
H        2.43113600       1.26866449       0.34939275
H        0.72335814      -1.52720614       1.24426598
H        1.02934509      -1.88976697      -0.47146204
H       -1.61325898      -1.52803198      -0.77543404
H       -1.13891467      -0.67044555       0.97059087
H       -1.67064405       0.48784061       1.75471342
H       -0.09736696       2.24215872       0.13976325
H       -0.27906095       0.63247557      -2.17538143
15
Frame=4 idx=008164 GeodesicLength=0.5547241697409344 rxn_smarts="[O:1]([C@@:2]12[C:3]([H:9])([H:10])[C@@:4]3([H:11])[C:5]([H:12])([H:13])[C@:6]1([H:14])[C@@:7]23[H:15])[H:8]>>[O:1]([C@:2]1([C:3]([H:9])([H:10])[H:12])[C@@:6]2([H:14])[C:5]([H:13])=[C:4]([H:11])[C@@:7]12[H:15])[H:8]"
O        2.17956690       0.66901034      -0.36822393
C        0.89586227       0.22443725      -0.14951195
C        0.54107359      -1.20010543       0.22836386
C       -0.95860887      -0.76943949      -0.38302847
C       -1.53565950       0.48902587       0.64988669
C       -0.29347330       1.17716676       0.11545228
C       -0.22712586       0.36834249      -1.13444114
H        2.41919287       1.29207688       0.32022700
H        0.74328337      -1.51811892       1.25579317
H        1.02820415      -1.89741000      -0.45455812
H       -1.62746711      -1.51325191      -0.79874874
H       -1.14217788      -0.70450860       0.99582443
H       -1.66790825       0.49744341       1.74864420
H       -0.09478761       2.23982652       0.15137796
H       -0.25997478       0.64550484      -2.17705724
15
Frame=5 idx=008164 GeodesicLength=0.6933700821309314 rxn_smarts="[O:1]([C@@:2]12[C:3]([H:9])([H:10])[C@@:4]3([H:11])[C:5]([H:12])([H:13])[C@:6]1([H:14])[C@@:7]23[H:15])[H:8]>>[O:1]([C@:2]1([C:3]([H:9])([H:10])[H:12])[C@@:6]2([H:14])[C:5]([H:13])=[C:4]([H:11])[C@@:7]12[H:15])[H:8]"
O        2.17857991       0.65487935      -0.36823707
C        0.89272366       0.21829612      -0.14615224
C        0.53737369      -1.20397767       0.24098640
C       -0.97794632      -0.75445811      -0.39724883
C       -1.52732940       0.47136681       0.64573929
C       -0.29155733       1.17549377       0.11759733
C       -0.22373525       0.37265044      -1.13786759
H        2.40724742       1.31447505       0.28920659
H        0.76340353      -1.50835143       1.26756095
H        1.02696814      -1.90489608      -0.43676043
H       -1.64162569      -1.49796449      -0.82205769
H       -1.14613990      -0.73912407       1.02025789
H       -1.66508686       0.50545917       1.74231731
H       -0.09223140       2.23756068       0.16307258
H       -0.24064419       0.65859045      -2.17841448
15
Frame=6 idx=008164 GeodesicLength=0.8320889630791315 rxn_smarts="[O:1]([C@@:2]12[C:3]([H:9])([H:10])[C@@:4]3([H:11])[C:5]([H:12])([H:13])[C@:6]1([H:14])[C@@:7]23[H:15])[H:8]>>[O:1]([C@:2]1([C:3]([H:9])([H:10])[H:12])[C@@:6]2([H:14])[C:5]([H:13])=[C:4]([H:11])[C@@:7]12[H:15])[H:8]"
O        2.17746644       0.64104198      -0.36768883
C        0.88949504       0.21223138      -0.14277687
C        0.53375835      -1.20757049       0.25439072
C       -0.99728187      -0.73880575      -0.41194914
C       -1.51869813       0.45379412       0.64189802
C       -0.28972037       1.17396081       0.11970652
C       -0.22023197       0.37712654      -1.14127615
H        2.39527930       1.33573992       0.25643101
H        0.78370738      -1.49796360       1.27948568
H        1.02564049      -1.91220228      -0.41815956
H       -1.65573623      -1.48219823      -0.84529188
H       -1.15060403      -0.77428562       1.04411507
H       -1.66227637       0.51206392       1.73571366
H       -0.08972488       2.23533642       0.17486345
H       -0.22107315       0.67173090      -2.17946171
15
Frame=7 idx=008164 GeodesicLength=0.9708997273917332 rxn_smarts="[O:1]([C@@:2]12[C:3]([H:9])([H:10])[C@@:4]3([H:11])[C:5]([H:12])([H:13])[C@:6]1([H:14])[C@@:7]23[H:15])[H:8]>>[O:1]([C@:2]1([C:3]([H:9])([H:10])[H:12])[C@@:6]2([H:14])[C:5]([H:13])=[C:4]([H:11])[C@@:7]12[H:15])[H:8]"
O        2.17622391       0.62754433      -0.36654362
C        0.88617601       0.20623702      -0.13940029
C        0.53026217      -1.21088984       0.26853477
C       -1.01661779      -0.72244444      -0.42715343
C       -1.50980307       0.43623548       0.63826522
C       -0.28797526       1.17254231       0.12178946
C       -0.21661145       0.38177497      -1.14467679
H        2.38324778       1.35579701       0.22192816
H        0.80417706      -1.48703385       1.29149330
H        1.02422082      -1.91931345      -0.39884386
H       -1.66979567      -1.46598169      -0.86840650
H       -1.15537237      -0.80996168       1.06763271
H       -1.65959975       0.51743239       1.72879246
H       -0.08728540       2.23312270       0.18678918
H       -0.20124701       0.68493874      -2.18020078
15
Frame=8 idx=008164 GeodesicLength=1.10981840976587 rxn_smarts="[O:1]([C@@:2]12[C:3]([H:9])([H:10])[C@@:4]3([H:11])[C:5]([H:12])([H:13])[C@:6]1([H:14])[C@@:7]23[H:15])[H:8]>>[O:1]([C@:2]1([C:3]([H:9])([H:10])[H:12])[C@@:6]2([H:14])[C:5]([H:13])=[C:4]([H:11])[C@@:7]12[H:15])[H:8]"
O        2.17484422       0.61447201      -0.36477758
C        0.88275585       0.20030659      -0.13605171
C        0.52690931      -1.21394319       0.28337383
C       -1.03596029      -0.70531992      -0.44288003
C       -1.50068322       0.41863196       0.63474419
C       -0.28634297       1.17121371       0.12384388
C       -0.21288606       0.38659914      -1.14808241
H        2.37116634       1.37451136       0.18579301
H        0.82481239      -1.47561593       1.30351533
H        1.02271332      -1.92621462      -0.37890556
H       -1.68379383      -1.44934557      -0.89135232
H       -1.16023618      -0.84612521       1.09105618
H       -1.65717842       0.52172110       1.72148112
H       -0.08493642       2.23088665       0.19887004
H       -0.18118402       0.69822192      -2.18062800
15
Frame=9 idx=008164 GeodesicLength=1.2486958472572893 rxn_smarts="[O:1]([C@@:2]12[C:3]([H:9])([H:10])[C@@:4]3([H:11])[C:5]([H:12])([H:13])[C@:6]1([H:14])[C@@:7]23[H:15])[H:8]>>[O:1]([C@:2]1([C:3]([H:9])([H:10])[H:12])[C@@:6]2([H:14])[C:5]([H:13])=[C:4]([H:11])[C@@:7]12[H:15])[H:8]"
O        2.17337204       0.60176381      -0.36249716
C        0.87924730       0.19442167      -0.13273623
C        0.52376836      -1.21671459       0.29887131
C       -1.05538998      -0.68739793      -0.45905082
C       -1.49135575       0.40094598       0.63124422
C       -0.28478964       1.16997127       0.12589737
C       -0.20903344       0.39160996      -1.15151044
H        2.35878647       1.39190716       0.14814962
H        0.84559127      -1.46378999       1.31550748
H        1.02109466      -1.93289369      -0.35841037
H       -1.69769879      -1.43230428      -0.91406020
H       -1.16502877      -0.88276620       1.11450007
H       -1.65510663       0.52503538       1.71372964
H       -0.08261260       2.22862087       0.21116331
H       -0.16084450       0.71159059      -2.18079781
15
Frame=10 idx=008164 GeodesicLength=1.387705937255502 rxn_smarts="[O:1]([C@@:2]12[C:3]([H:9])([H:10])[C@@:4]3([H:11])[C:5]([H:12])([H:13])[C@:6]1([H:14])[C@@:7]23[H:15])[H:8]>>[O:1]([C@:2]1([C:3]([H:9])([H:10])[H:12])[C@@:6]2([H:14])[C:5]([H:13])=[C:4]([H:11])[C@@:7]12[H:15])[H:8]"
O        2.17174393       0.58957132      -0.35956054
C        0.87562310       0.18856888      -0.12949963
C        0.52081738      -1.21923273       0.31497179
C       -1.07487802      -0.66860659      -0.47580437
C       -1.48185912       0.38309226       0.62767369
C       -0.28337194       1.16876536       0.12793671
C       -0.20508673       0.39680884      -1.15497477
H        2.34628992       1.40775686       0.10904311
H        0.86655258      -1.45160426       1.32736417
H        1.01938359      -1.93934371      -0.33745916
H       -1.71150514      -1.41490330      -0.93653685
H       -1.16946158      -0.91976482       1.13842084
H       -1.65358494       0.52754691       1.70540902
H       -0.08039100       2.22626055       0.22368196
H       -0.14027202       0.72508444      -2.18066595
15
Frame=11 idx=008164 GeodesicLength=1.5268126602216643 rxn_smarts="[O:1]([C@@:2]12[C:3]([H:9])([H:10])[C@@:4]3([H:11])[C:5]([H:12])([H:13])[C@:6]1([H:14])[C@@:7]23[H:15])[H:8]>>[O:1]([C@:2]1([C:3]([H:9])([H:10])[H:12])[C@@:6]2([H:14])[C:5]([H:13])=[C:4]([H:11])[C@@:7]12[H:15])[H:8]"
O        2.16992961       0.57793958      -0.35599974
C        0.87187514       0.18273042      -0.12638657
C        0.51808800      -1.22150478       0.33162385
C       -1.09446946      -0.64887734      -0.49316069
C       -1.47221584       0.36501928       0.62394662
C       -0.28209743       1.16757261       0.12996320
C       -0.20106142       0.40219688      -1.15849924
H        2.33362913       1.42192361       0.06868240
H        0.88774467      -1.43911207       1.33899928
H        1.01757594      -1.94555963      -0.31613822
H       -1.72519063      -1.39717385      -0.95876142
H       -1.17327864      -0.95703910       1.16312619
H       -1.65277613       0.52939555       1.69640267
H       -0.07826403       2.22377345       0.23645045
H       -0.11948891       0.73871538      -2.18024876
15
Frame=12 idx=008164 GeodesicLength=1.6659750841007488 rxn_smarts="[O:1]([C@@:2]12[C:3]([H:9])([H:10])[C@@:4]3([H:11])[C:5]([H:12])([H:13])[C@:6]1([H:14])[C@@:7]23[H:15])[H:8]>>[O:1]([C@:2]1([C:3]([H:9])([H:10])[H:12])[C@@:6]2([H:14])[C:5]([H:13])=[C:4]([H:11])[C@@:7]12[H:15])[H:8]"
O        2.16789494       0.56693201      -0.35187948
C        0.86798544       0.17687927      -0.12346202
C        0.51560137      -1.22354203       0.34876999
C       -1.11422042      -0.62813212      -0.51113889
C       -1.46244418       0.34666048       0.61997228
C       -0.28098052       1.16636128       0.13196629
C       -0.19699061       0.40777449      -1.16211675
H        2.32081404       1.43424075       0.02739085
H        0.90923885      -1.42635201       1.35031199
H        1.01566086      -1.95154381      -0.29454574
H       -1.73872700      -1.37915199      -0.98071530
H       -1.17618609      -0.99446422       1.18898758
H       -1.65286320       0.53071851       1.68654938
H       -0.07623556       2.22111526       0.24947695
H       -0.09854793       0.75250413      -2.17956713
15
Frame=13 idx=008164 GeodesicLength=1.8051834632097965 rxn_smarts="[O:1]([C@@:2]12[C:3]([H:9])([H:10])[C@@:4]3([H:11])[C:5]([H:12])([H:13])[C@:6]1([H:14])[C@@:7]23[H:15])[H:8]>>[O:1]([C@:2]1([C:3]([H:9])([H:10])[H:12])[C@@:6]2([H:14])[C:5]([H:13])=[C:4]([H:11])[C@@:7]12[H:15])[H:8]"
O        2.16559522       0.55661058      -0.34730442
C        0.86392872       0.17097764      -0.12082015
C        0.51337554      -1.22535868       0.36634598
C       -1.13419753      -0.60627054      -0.52976652
C       -1.45255545       0.32794619       0.61565098
C       -0.28003763       1.16509190       0.13391826
C       -0.19292378       0.41353931      -1.16587170
H        2.30787294       1.44452628      -0.01436242
H        0.93113578      -1.41335003       1.36118545
H        1.01361294      -1.95730812      -0.27279197
H       -1.75206784      -1.36086963      -1.00237420
H       -1.17785886      -1.03188100       1.21644879
H       -1.65403266       0.53164310       1.67564404
H       -0.07430898       2.21823177       0.26274924
H       -0.07753840       0.76647122      -2.17865136
15
Frame=14 idx=008164 GeodesicLength=1.9443488249436713 rxn_smarts="[O:1]([C@@:2]12[C:3]([H:9])([H:10])[C@@:4]3([H:11])[C:5]([H:12])([H:13])[C@:6]1([H:14])[C@@:7]23[H:15])[H:8]>>[O:1]([C@:2]1([C:3]([H:9])([H:10])[H:12])[C@@:6]2([H:14])[C:5]([H:13])=[C:4]([H:11])[C@@:7]12[H:15])[H:8]"
O        2.16300791       0.54696785      -0.34235934
C        0.85968759       0.16498279      -0.11851133
C        0.51142237      -1.22697958       0.38430113
C       -1.15447578      -0.58319632      -0.54906839
C       -1.44257354       0.30879766       0.61088460
C       -0.27927451       1.16372425       0.13583217
C       -0.18888442       0.41949738      -1.16979027
H        2.29480846       1.45272010      -0.05629689
H        0.95350002      -1.40017488       1.37150440
H        1.01139589      -1.96287781      -0.25096673
H       -1.76514972      -1.34234428      -1.02374585
H       -1.17797776      -1.06910702       1.24595841
H       -1.65651926       0.53226367       1.66346914
H       -0.07247704       2.21506747       0.27630635
H       -0.05649022       0.78065874      -2.17751741
15
Frame=15 idx=008164 GeodesicLength=2.0834204595862342 rxn_smarts="[O:1]([C@@:2]12[C:3]([H:9])([H:10])[C@@:4]3([H:11])[C:5]([H:12])([H:13])[C@:6]1([H:14])[C@@:7]23[H:15])[H:8]>>[O:1]([C@:2]1([C:3]([H:9])([H:10])[H:12])[C@@:6]2([H:14])[C:5]([H:13])=[C:4]([H:11])[C@@:7]12[H:15])[H:8]"
O        2.16010383       0.53800079      -0.33717838
C        0.85523681       0.15884147      -0.11661716
C        0.50975461      -1.22842738       0.40258379
C       -1.17513972      -0.55878505      -0.56906004
C       -1.43251891       0.28914246       0.60555929
C       -0.27869653       1.16221066       0.13770127
C       -0.18491539       0.42565057      -1.17390832
H        2.28165571       1.45874295      -0.09798406
H        0.97641845      -1.38686732       1.38114706
H        1.00896371      -1.96828616      -0.22916215
H       -1.77789390      -1.32358145      -1.04484037
H       -1.17621282      -1.10595145       1.27801253
H       -1.66054269       0.53264916       1.64976996
H       -0.07073201       2.21155716       0.29016058
H       -0.03548114       0.79510359      -2.17618401
15
Frame=16 idx=008164 GeodesicLength=2.2223816458237327 rxn_smarts="[O:1]([C@@:2]12[C:3]([H:9])([H:10])[C@@:4]3([H:11])[C:5]([H:12])([H:13])[C@:6]1([H:14])[C@@:7]23[H:15])[H:8]>>[O:1]([C@:2]1([C:3]([H:9])([H:10])[H:12])[C@@:6]2([H:14])[C:5]([H:13])=[C:4]([H:11])[C@@:7]12[H:15])[H:8]"
O        2.15684642       0.52968738      -0.33194128
C        0.85054657       0.15248872      -0.11522791
C        0.50838322      -1.22973366       0.42114167
C       -1.19629148      -0.53289037      -0.58976095
C       -1.42241618       0.26889319       0.59954539
C       -0.27831191       1.16049241       0.13951716
C       -0.18106334       0.43199631      -1.17826818
H        2.26846120       1.46254430      -0.13891854
H        0.99998414      -1.37347882       1.38997428
H        1.00625787      -1.97358276      -0.20747076
H       -1.79020422      -1.30456902      -1.06568790
H       -1.17218779      -1.14216696       1.31318817
H       -1.66634157       0.53285003       1.63425951
H       -0.06907187       2.20762586       0.30432784
H       -0.01459107       0.80984340      -2.17467848
