14
Frame=0 idx=011688 GeodesicLength=0.0 rxn_smarts="[C:1]([c:2]1[c:3]([H:11])[o:4][c:5]([N:6]([H:12])[H:13])[c:7]1[H:14])([H:8])([H:9])[H:10]>>[C:1]([C:2]1=[C:3]([H:11])[O:4]/[C:5](=[N:6]/[H:13])[C:7]1([H:12])[H:14])([H:8])([H:9])[H:10]"
C       -2.13982882       0.15128780       0.34919344
C       -0.71538992      -0.14621425       0.02957097
C       -0.23737552      -1.29995337      -0.45073701
O        1.15395773      -1.26574690      -0.67963598
C        1.51474020      -0.05842510      -0.25835214
N        2.65478354       0.38413903       0.19641474
C        0.42406547       0.79344131       0.08634604
H       -2.25438284       0.41096965       1.40339737
H       -2.78421182      -0.70245147       0.13537216
H       -2.49912416       1.00184309      -0.23503865
H       -0.70382881      -2.24263678      -0.68664401
H        1.70320950       1.18372575       0.74880230
H        3.54490002       0.06687583      -0.16592104
H        0.33848542       1.72314535      -0.47276824
14
Frame=1 idx=011688 GeodesicLength=0.04609795519083789 rxn_smarts="[C:1]([c:2]1[c:3]([H:11])[o:4][c:5]([N:6]([H:12])[H:13])[c:7]1[H:14])([H:8])([H:9])[H:10]>>[C:1]([C:2]1=[C:3]([H:11])[O:4]/[C:5](=[N:6]/[H:13])[C:7]1([H:12])[H:14])([H:8])([H:9])[H:10]"
C       -2.13960915       0.15687017       0.34182486
C       -0.71595477      -0.14827682       0.02580616
C       -0.24018805      -1.30596853      -0.44646870
O        1.15273071      -1.28399642      -0.65126240
C        1.51812545      -0.06440961      -0.26650923
N        2.65636417       0.35524186       0.21757361
C        0.42735486       0.78543997       0.08720709
H       -2.25475432       0.42639093       1.39356326
H       -2.78639738      -0.69684843       0.13531370
H       -2.49618103       1.00297733      -0.25049888
H       -0.71076154      -2.24598660      -0.68499233
H        1.70518787       1.15773327       0.78883247
H        3.53841242       0.13952139      -0.22847202
H        0.34567076       1.72131149      -0.46191759
14
Frame=2 idx=011688 GeodesicLength=0.09279243605058245 rxn_smarts="[C:1]([c:2]1[c:3]([H:11])[o:4][c:5]([N:6]([H:12])[H:13])[c:7]1[H:14])([H:8])([H:9])[H:10]>>[C:1]([C:2]1=[C:3]([H:11])[O:4]/[C:5](=[N:6]/[H:13])[C:7]1([H:12])[H:14])([H:8])([H:9])[H:10]"
C       -2.13902994       0.16254504       0.33385234
C       -0.71598132      -0.15041011       0.02279157
C       -0.24303540      -1.31112869      -0.44415405
O        1.15036716      -1.29939727      -0.62931422
C        1.52117364      -0.06975076      -0.27813826
N        2.65929645       0.32811912       0.22815841
C        0.43126692       0.77716276       0.08964178
H       -2.25551021       0.44173227       1.38296365
H       -2.78821113      -0.69089259       0.13398944
H       -2.49228352       1.00422817      -0.26672247
H       -0.71591763      -2.25198130      -0.67471432
H        1.70951311       1.12807267       0.82747969
H        3.52629444       0.21107661      -0.27928487
H        0.35205742       1.72062407      -0.44654870
14
Frame=3 idx=011688 GeodesicLength=0.14018351728114126 rxn_smarts="[C:1]([c:2]1[c:3]([H:11])[o:4][c:5]([N:6]([H:12])[H:13])[c:7]1[H:14])([H:8])([H:9])[H:10]>>[C:1]([C:2]1=[C:3]([H:11])[O:4]/[C:5](=[N:6]/[H:13])[C:7]1([H:12])[H:14])([H:8])([H:9])[H:10]"
C       -2.13824463       0.16838974       0.32541453
C       -0.71562023      -0.15275284       0.02061777
C       -0.24580529      -1.31615265      -0.44223651
O        1.14720210      -1.31258672      -0.61298261
C        1.52395112      -0.07475798      -0.29215780
N        2.66336288       0.30203491       0.23119056
C        0.43568349       0.76855407       0.09327586
H       -2.25670093       0.45770993       1.37161474
H       -2.78990139      -0.68463680       0.13203779
H       -2.48759859       1.00538612      -0.28394925
H       -0.72008322      -2.25974142      -0.65843257
H        1.71577785       1.09511968       0.86485729
H        3.50998846       0.28300244      -0.32130455
H        0.35798839       1.72043153      -0.42794526
14
Frame=4 idx=011688 GeodesicLength=0.18802274266318728 rxn_smarts="[C:1]([c:2]1[c:3]([H:11])[o:4][c:5]([N:6]([H:12])[H:13])[c:7]1[H:14])([H:8])([H:9])[H:10]>>[C:1]([C:2]1=[C:3]([H:11])[O:4]/[C:5](=[N:6]/[H:13])[C:7]1([H:12])[H:14])([H:8])([H:9])[H:10]"
C       -2.13699823       0.17419936       0.31752120
C       -0.71495033      -0.15516755       0.01872884
C       -0.24837541      -1.32129097      -0.44002807
O        1.14356446      -1.32411383      -0.60094608
C        1.52646844      -0.07950237      -0.30789210
N        2.66784843       0.27685058       0.22935792
C        0.44029795       0.76004490       0.09627079
H       -2.25696647       0.47438469       1.36053191
H       -2.79112412      -0.67853974       0.13149078
H       -2.48275163       1.00596807      -0.30100943
H       -0.72394626      -2.26764094      -0.64092354
H        1.72294307       1.06067680       0.89970460
H        3.49053479       0.35403601      -0.35302348
H        0.36345531       1.72009501      -0.40978332
14
Frame=5 idx=011688 GeodesicLength=0.23629395320619415 rxn_smarts="[C:1]([c:2]1[c:3]([H:11])[o:4][c:5]([N:6]([H:12])[H:13])[c:7]1[H:14])([H:8])([H:9])[H:10]>>[C:1]([C:2]1=[C:3]([H:11])[O:4]/[C:5](=[N:6]/[H:13])[C:7]1([H:12])[H:14])([H:8])([H:9])[H:10]"
C       -2.13548129       0.18004605       0.30974095
C       -0.71399001      -0.15772453       0.01756415
C       -0.25069641      -1.32664412      -0.43692368
O        1.13957656      -1.33403914      -0.59302389
C        1.52865900      -0.08380200      -0.32523858
N        2.67284263       0.25269945       0.22276262
C        0.44512688       0.75151700       0.09937358
H       -2.25703175       0.49209653       1.34912963
H       -2.79203705      -0.67251421       0.13177954
H       -2.47757429       1.00587993      -0.31872085
H       -0.72733460      -2.27581305      -0.62148328
H        1.73127399       1.02422469       0.93265298
H        3.46821290       0.42433509      -0.37678485
H        0.36845344       1.71973831      -0.39082833
14
Frame=6 idx=011688 GeodesicLength=0.2850202083180929 rxn_smarts="[C:1]([c:2]1[c:3]([H:11])[o:4][c:5]([N:6]([H:12])[H:13])[c:7]1[H:14])([H:8])([H:9])[H:10]>>[C:1]([C:2]1=[C:3]([H:11])[O:4]/[C:5](=[N:6]/[H:13])[C:7]1([H:12])[H:14])([H:8])([H:9])[H:10]"
C       -2.13383341       0.18596784       0.30174520
C       -0.71273300      -0.16055879       0.01773339
C       -0.25272736      -1.33229900      -0.43239156
O        1.13540388      -1.34268699      -0.58811170
C        1.53042558      -0.08757196      -0.34391561
N        2.67850890       0.23004659       0.21120217
C        0.45020352       0.74282578       0.10334977
H       -2.25757163       0.51108679       1.33692300
H       -2.79278125      -0.66646853       0.13234846
H       -2.47178136       1.00504203      -0.33774363
H       -0.73024187      -2.28413679      -0.60039676
H        1.74119762       0.98548465       0.96402019
H        3.44296733       0.49394300      -0.39472850
H        0.37296306       1.71932539      -0.37003442
14
Frame=7 idx=011688 GeodesicLength=0.3342390549600168 rxn_smarts="[C:1]([c:2]1[c:3]([H:11])[o:4][c:5]([N:6]([H:12])[H:13])[c:7]1[H:14])([H:8])([H:9])[H:10]>>[C:1]([C:2]1=[C:3]([H:11])[O:4]/[C:5](=[N:6]/[H:13])[C:7]1([H:12])[H:14])([H:8])([H:9])[H:10]"
C       -2.13225750       0.19213475       0.29252608
C       -0.71115880      -0.16383090       0.02013074
C       -0.25440250      -1.33825945      -0.42591073
O        1.13094830      -1.34967919      -0.58694273
C        1.53139823      -0.09033397      -0.36424334
N        2.68505889       0.20921780       0.19342184
C        0.45560427       0.73360261       0.11002645
H       -2.25994406       0.53164707       1.32263224
H       -2.79354937      -0.66005575       0.13143689
H       -2.46460031       1.00358970      -0.35951744
H       -0.73196236      -2.29334051      -0.57443188
H        1.75375313       0.94283144       0.99456083
H        3.41424775       0.56330093      -0.40974898
H        0.37686433       1.71917547      -0.34393996
14
Frame=8 idx=011688 GeodesicLength=0.38396337482236176 rxn_smarts="[C:1]([c:2]1[c:3]([H:11])[o:4][c:5]([N:6]([H:12])[H:13])[c:7]1[H:14])([H:8])([H:9])[H:10]>>[C:1]([C:2]1=[C:3]([H:11])[O:4]/[C:5](=[N:6]/[H:13])[C:7]1([H:12])[H:14])([H:8])([H:9])[H:10]"
C       -2.13071597       0.19843820       0.28244359
C       -0.70940546      -0.16731050       0.02399493
C       -0.25578131      -1.34424741      -0.41832081
O        1.12616665      -1.35480331      -0.58997042
C        1.53146754      -0.09177286      -0.38638185
N        2.69196213       0.19012759       0.17044649
C        0.46118202       0.72415177       0.11841793
H       -2.26340465       0.55337902       1.30675487
H       -2.79432200      -0.65344938       0.12965552
H       -2.45648095       1.00150015      -0.38321221
H       -0.73219853      -2.30330683      -0.54333417
H        1.76850843       0.89673605       1.02356646
H        3.38278521       0.63128587      -0.42016489
H        0.38023689       1.71927162      -0.31389544
14
Frame=9 idx=011688 GeodesicLength=0.43393861391127553 rxn_smarts="[C:1]([c:2]1[c:3]([H:11])[o:4][c:5]([N:6]([H:12])[H:13])[c:7]1[H:14])([H:8])([H:9])[H:10]>>[C:1]([C:2]1=[C:3]([H:11])[O:4]/[C:5](=[N:6]/[H:13])[C:7]1([H:12])[H:14])([H:8])([H:9])[H:10]"
C       -2.12889004       0.20452709       0.27298072
C       -0.70755976      -0.17067939       0.02816123
C       -0.25686784      -1.34997780      -0.41059724
O        1.12133602      -1.35873200      -0.59485862
C        1.53086657      -0.09220108      -0.40948313
N        2.69839191       0.17286984       0.14506561
C        0.46659530       0.71524746       0.12582934
H       -2.26597022       0.57566988       1.29099798
H       -2.79465924      -0.64726035       0.12955851
H       -2.44854247       0.99838015      -0.40657200
H       -0.73162672      -2.31262155      -0.51249287
H        1.78378448       0.85017106       1.04962828
H        3.35006908       0.69544243      -0.42300179
H        0.38307292       1.71916428      -0.28521603
14
Frame=10 idx=011688 GeodesicLength=0.4844233898381788 rxn_smarts="[C:1]([c:2]1[c:3]([H:11])[o:4][c:5]([N:6]([H:12])[H:13])[c:7]1[H:14])([H:8])([H:9])[H:10]>>[C:1]([C:2]1=[C:3]([H:11])[O:4]/[C:5](=[N:6]/[H:13])[C:7]1([H:12])[H:14])([H:8])([H:9])[H:10]"
C       -2.12711308       0.21065794       0.26272815
C       -0.70559448      -0.17425802       0.03408225
C       -0.25757590      -1.35568060      -0.40151538
O        1.11614162      -1.36092302      -0.60284745
C        1.52908475      -0.09108883      -0.43392708
N        2.70475000       0.15780344       0.11513289
C        0.47207738       0.70621663       0.13498295
H       -2.26966388       0.59908454       1.27356788
H       -2.79497881      -0.64097441       0.12867426
H       -2.43959655       0.99440306      -0.43176617
H       -0.72939915      -2.32216585      -0.47785128
H        1.80132031       0.80076958       1.07363591
H        3.31520091       0.75704694      -0.42203983
H        0.38534689       1.71910860      -0.25285710
14
Frame=11 idx=011688 GeodesicLength=0.535297815339024 rxn_smarts="[C:1]([c:2]1[c:3]([H:11])[o:4][c:5]([N:6]([H:12])[H:13])[c:7]1[H:14])([H:8])([H:9])[H:10]>>[C:1]([C:2]1=[C:3]([H:11])[O:4]/[C:5](=[N:6]/[H:13])[C:7]1([H:12])[H:14])([H:8])([H:9])[H:10]"
C       -2.12526553       0.21664771       0.25235878
C       -0.70357732      -0.17787409       0.04118317
C       -0.25791271      -1.36112159      -0.39178488
O        1.11066625      -1.36158291      -0.61295307
C        1.52618702      -0.08849067      -0.45927261
N        2.71052579       0.14499654       0.08217482
C        0.47743671       0.69746551       0.14461639
H       -2.27356956       0.62337646       1.25518748
H       -2.79509261      -0.63491330       0.12827625
H       -2.43021685       0.98928304      -0.45779449
H       -0.72567749      -2.33133843      -0.44163231
H        1.82023002       0.74992036       1.09500676
H        3.27920654       0.81466942      -0.41612475
H        0.38705974       1.71896193      -0.21924154
14
Frame=12 idx=011688 GeodesicLength=0.586631430338052 rxn_smarts="[C:1]([c:2]1[c:3]([H:11])[o:4][c:5]([N:6]([H:12])[H:13])[c:7]1[H:14])([H:8])([H:9])[H:10]>>[C:1]([C:2]1=[C:3]([H:11])[O:4]/[C:5](=[N:6]/[H:13])[C:7]1([H:12])[H:14])([H:8])([H:9])[H:10]"
C       -2.12339526       0.22251626       0.24165224
C       -0.70155514      -0.18153726       0.04958637
C       -0.25788863      -1.36626496      -0.38140601
O        1.10475325      -1.36061198      -0.62519382
C        1.52198029      -0.08426363      -0.48540444
N        2.71556757       0.13456109       0.04618085
C        0.48267479       0.68891681       0.15509271
H       -2.27793342       0.64835478       1.23561565
H       -2.79509438      -0.62895260       0.12777614
H       -2.42018703       0.98317018      -0.48474929
H       -0.72010478      -2.34021013      -0.40305018
H        1.84072763       0.69744074       1.11368729
H        3.24219438       0.86819098      -0.40604500
H        0.38826073       1.71868971      -0.18374251
14
Frame=13 idx=011688 GeodesicLength=0.6383108489652236 rxn_smarts="[C:1]([c:2]1[c:3]([H:11])[o:4][c:5]([N:6]([H:12])[H:13])[c:7]1[H:14])([H:8])([H:9])[H:10]>>[C:1]([C:2]1=[C:3]([H:11])[O:4]/[C:5](=[N:6]/[H:13])[C:7]1([H:12])[H:14])([H:8])([H:9])[H:10]"
C       -2.12143921       0.22813264       0.23106260
C       -0.69955725      -0.18515817       0.05898064
C       -0.25750720      -1.37099520      -0.37075221
O        1.09857430      -1.35836256      -0.63825324
C        1.51660040      -0.07862673      -0.51174023
N        2.71963201       0.12659089       0.00837999
C        0.48767707       0.68083526       0.16566488
H       -2.28225460       0.67363140       1.21541305
H       -2.79490729      -0.62324403       0.12777536
H       -2.40984597       0.97601001      -0.51183895
H       -0.71303402      -2.34833831      -0.36419990
H        1.86219302       0.64461541       1.12947887
H        3.20490915       0.91671851      -0.39185585
H        0.38895958       1.71819088      -0.14811499
14
Frame=14 idx=011688 GeodesicLength=0.6902893727710001 rxn_smarts="[C:1]([c:2]1[c:3]([H:11])[o:4][c:5]([N:6]([H:12])[H:13])[c:7]1[H:14])([H:8])([H:9])[H:10]>>[C:1]([C:2]1=[C:3]([H:11])[O:4]/[C:5](=[N:6]/[H:13])[C:7]1([H:12])[H:14])([H:8])([H:9])[H:10]"
C       -2.11938608       0.23344059       0.22078844
C       -0.69761620      -0.18864403       0.06901850
C       -0.25678971      -1.37523214      -0.36013109
O        1.09220383      -1.35497734      -0.65163746
C        1.51015937      -0.07170094      -0.53799235
N        2.72258645       0.12098789      -0.03040419
C        0.49237543       0.67337915       0.17590917
H       -2.28625318       0.69890891       1.19488452
H       -2.79451282      -0.61784156       0.12851322
H       -2.39945137       0.96785399      -0.53859808
H       -0.70457341      -2.35559851      -0.32575324
H        1.88418056       0.59204248       1.14245501
H        3.16789428       0.95988032      -0.37376736
H        0.38918285       1.71750119      -0.11328511
14
Frame=15 idx=011688 GeodesicLength=0.742487739115011 rxn_smarts="[C:1]([c:2]1[c:3]([H:11])[o:4][c:5]([N:6]([H:12])[H:13])[c:7]1[H:14])([H:8])([H:9])[H:10]>>[C:1]([C:2]1=[C:3]([H:11])[O:4]/[C:5](=[N:6]/[H:13])[C:7]1([H:12])[H:14])([H:8])([H:9])[H:10]"
C       -2.11723830       0.23839062       0.21100239
C       -0.69574298      -0.19192612       0.07943777
C       -0.25573895      -1.37894032      -0.34969795
O        1.08578917      -1.35066662      -0.66472509
C        1.50282174      -0.06367198      -0.56384020
N        2.72440119       0.11764864      -0.06940136
C        0.49671904       0.66668165       0.18551609
H       -2.28975197       0.72390537       1.17431595
H       -2.79390489      -0.61278524       0.13015200
H       -2.38922855       0.95876808      -0.56463449
H       -0.69499689      -2.36188880      -0.28859370
H        1.90630881       0.54034728       1.15282169
H        3.13161722       0.99745160      -0.35231082
H        0.38894534       1.71668586      -0.08004226
14
Frame=16 idx=011688 GeodesicLength=0.7948473332509748 rxn_smarts="[C:1]([c:2]1[c:3]([H:11])[o:4][c:5]([N:6]([H:12])[H:13])[c:7]1[H:14])([H:8])([H:9])[H:10]>>[C:1]([C:2]1=[C:3]([H:11])[O:4]/[C:5](=[N:6]/[H:13])[C:7]1([H:12])[H:14])([H:8])([H:9])[H:10]"
C       -2.11501476       0.24296503       0.20178248
C       -0.69394401      -0.19494607       0.08999639
C       -0.25436316      -1.38210537      -0.33956269
O        1.07944913      -1.34558164      -0.67717737
C        1.49474808      -0.05470168      -0.58907852
N        2.72511243       0.11640503      -0.10804036
C        0.50068004       0.66081981       0.19431530
H       -2.29267447       0.74838587       1.15390308
H       -2.79309564      -0.60807697       0.13270461
H       -2.37935025       0.94886800      -0.58969160
H       -0.68450678      -2.36720795      -0.25312001
H        1.92829908       0.48988488       1.16087185
H        3.09639491       1.02945164      -0.32806616
H        0.38826538       1.71583944      -0.04883700
