12
Frame=0 idx=004854 GeodesicLength=0.0 rxn_smarts="[C:1]([C:2]([C:3](=[O:4])[C:5](=[O:6])[H:12])([H:10])[H:11])([H:7])([H:8])[H:9]>>[C-:5]#[O+:6].[C:1]([C:2]([C:3][O:4][H:12])([H:10])[H:11])([H:7])([H:8])[H:9]"
C       -1.76977953      -0.20218623       0.37864444
C       -0.30144374      -0.39984422       0.72994984
C        0.70553122       0.12553670      -0.22970661
O        0.31013422       0.70348572      -1.25979353
C        2.57947666       0.48663443      -0.91038839
O        3.61008146       0.22966696      -0.47968269
H       -2.00896149       0.85635695       0.27236427
H       -2.01706490      -0.69059968      -0.56447429
H       -2.41001432      -0.62030588       1.15678236
H       -0.05343972      -1.45848218       0.86837154
H       -0.04782380       0.05329749       1.69544395
H        1.40330397       0.91643995      -1.65751086
12
Frame=1 idx=004854 GeodesicLength=0.039791386442288426 rxn_smarts="[C:1]([C:2]([C:3](=[O:4])[C:5](=[O:6])[H:12])([H:10])[H:11])([H:7])([H:8])[H:9]>>[C-:5]#[O+:6].[C:1]([C:2]([C:3][O:4][H:12])([H:10])[H:11])([H:7])([H:8])[H:9]"
C       -1.76927957      -0.20274400       0.38122304
C       -0.29983556      -0.39987285       0.72735057
C        0.70067844       0.12474203      -0.23910235
O        0.30340959       0.70790122      -1.26605245
C        2.57885114       0.48197040      -0.91017798
O        3.60230637       0.22771092      -0.45943441
H       -2.00958504       0.85566892       0.27610351
H       -2.01981194      -0.69063022      -0.56131837
H       -2.40620683      -0.62149602       1.16172204
H       -0.04972210      -1.45812571       0.86501977
H       -0.04118749       0.05465433       1.69082019
H        1.41038298       0.92022097      -1.66615357
12
Frame=2 idx=004854 GeodesicLength=0.07960551354523768 rxn_smarts="[C:1]([C:2]([C:3](=[O:4])[C:5](=[O:6])[H:12])([H:10])[H:11])([H:7])([H:8])[H:9]>>[C-:5]#[O+:6].[C:1]([C:2]([C:3][O:4][H:12])([H:10])[H:11])([H:7])([H:8])[H:9]"
C       -1.76875145      -0.20408622       0.38338942
C       -0.29818987      -0.39897580       0.72519636
C        0.69577929       0.12541928      -0.24776621
O        0.29658323       0.71285610      -1.27205245
C        2.57823380       0.48197389      -0.90719974
O        3.59416791       0.21817898      -0.44334999
H       -2.01122803       0.85388948       0.27877169
H       -2.02153496      -0.69219118      -0.55844395
H       -2.40233028      -0.62373254       1.16611985
H       -0.04493222      -1.45650741       0.86275971
H       -0.03549910       0.05769582       1.68651804
H        1.41770170       0.92547959      -1.67394272
12
Frame=3 idx=004854 GeodesicLength=0.1194270375165731 rxn_smarts="[C:1]([C:2]([C:3](=[O:4])[C:5](=[O:6])[H:12])([H:10])[H:11])([H:7])([H:8])[H:9]>>[C-:5]#[O+:6].[C:1]([C:2]([C:3][O:4][H:12])([H:10])[H:11])([H:7])([H:8])[H:9]"
C       -1.76820399      -0.20546920       0.38554564
C       -0.29652692      -0.39791814       0.72308411
C        0.69083088       0.12657138      -0.25621265
O        0.28968118       0.71833833      -1.27776456
C        2.57753972       0.47701261      -0.90677803
O        3.58578448       0.21126605      -0.42595156
H       -2.01302314       0.85203969       0.28158010
H       -2.02310202      -0.69369870      -0.55565970
H       -2.39839953      -0.62622749       1.17039713
H       -0.03994643      -1.45469800       0.86036696
H       -0.02994339       0.06079422       1.68232263
H        1.42530916       0.93198926      -1.68093007
12
Frame=4 idx=004854 GeodesicLength=0.15929814894007843 rxn_smarts="[C:1]([C:2]([C:3](=[O:4])[C:5](=[O:6])[H:12])([H:10])[H:11])([H:7])([H:8])[H:9]>>[C-:5]#[O+:6].[C:1]([C:2]([C:3][O:4][H:12])([H:10])[H:11])([H:7])([H:8])[H:9]"
C       -1.76763206      -0.20702602       0.38763671
C       -0.29483037      -0.39665195       0.72100711
C        0.68581452       0.12800314      -0.26461387
O        0.28265724       0.72389241      -1.28350009
C        2.57680745       0.47376127      -0.90525193
O        3.57712193       0.20228847      -0.40959142
H       -2.01502768       0.84994099       0.28417500
H       -2.02448463      -0.69556767      -0.55288163
H       -2.39437718      -0.62892572       1.17462540
H       -0.03468936      -1.45259197       0.85815071
H       -0.02451864       0.06430219       1.67808742
H        1.43315878       0.93857487      -1.68784340
12
Frame=5 idx=004854 GeodesicLength=0.1992724526079468 rxn_smarts="[C:1]([C:2]([C:3](=[O:4])[C:5](=[O:6])[H:12])([H:10])[H:11])([H:7])([H:8])[H:9]>>[C-:5]#[O+:6].[C:1]([C:2]([C:3][O:4][H:12])([H:10])[H:11])([H:7])([H:8])[H:9]"
C       -1.76701421      -0.20663264       0.39082709
C       -0.29310755      -0.39784646       0.71749382
C        0.68066862       0.12540314      -0.27536164
O        0.27558459       0.72774835      -1.29020542
C        2.57602330       0.46522886      -0.90632395
O        3.56801787       0.20879040      -0.38478637
H       -2.01425187       0.85058550       0.28948827
H       -2.02863311      -0.69369295      -0.54915245
H       -2.39021360      -0.62887494       1.18043402
H       -0.03207924      -1.45380775       0.85287591
H       -0.01630358       0.06352683       1.67247679
H        1.44130878       0.93957169      -1.69776606
12
Frame=6 idx=004854 GeodesicLength=0.23919715122696708 rxn_smarts="[C:1]([C:2]([C:3](=[O:4])[C:5](=[O:6])[H:12])([H:10])[H:11])([H:7])([H:8])[H:9]>>[C-:5]#[O+:6].[C:1]([C:2]([C:3][O:4][H:12])([H:10])[H:11])([H:7])([H:8])[H:9]"
C       -1.76638716      -0.20839589       0.39285467
C       -0.29134410      -0.39621448       0.71547418
C        0.67552536       0.12749822      -0.28358358
O        0.26836189       0.73382422      -1.29574627
C        2.57521306       0.46128627      -0.90477385
O        3.55862822       0.19895871      -0.36890709
H       -2.01658746       0.84817891       0.29198562
H       -2.02970106      -0.69589904      -0.54642912
H       -2.38601627      -0.63199233       1.18453383
H       -0.02635648      -1.45121664       0.85074511
H       -0.01107678       0.06756462       1.66824185
H        1.44974079       0.94640745      -1.70439534
12
Frame=7 idx=004854 GeodesicLength=0.2792310683682864 rxn_smarts="[C:1]([C:2]([C:3](=[O:4])[C:5](=[O:6])[H:12])([H:10])[H:11])([H:7])([H:8])[H:9]>>[C-:5]#[O+:6].[C:1]([C:2]([C:3][O:4][H:12])([H:10])[H:11])([H:7])([H:8])[H:9]"
C       -1.76571580      -0.20901540       0.39554429
C       -0.28954956      -0.39608208       0.71253462
C        0.67025891       0.12711400      -0.29331128
O        0.26104856       0.73874863      -1.30197138
C        2.57434903       0.45537920      -0.90401599
O        3.54884359       0.19759815      -0.34836573
H       -2.01722608       0.84738903       0.29607579
H       -2.03245840      -0.69592822      -0.54308420
H       -2.38167986      -0.63344081       1.18962588
H       -0.02221000      -1.45063876       0.84674291
H       -0.00412093       0.06904298       1.66307343
H        1.45846054       0.94983328      -1.71284834
12
Frame=8 idx=004854 GeodesicLength=0.31928280253861974 rxn_smarts="[C:1]([C:2]([C:3](=[O:4])[C:5](=[O:6])[H:12])([H:10])[H:11])([H:7])([H:8])[H:9]>>[C-:5]#[O+:6].[C:1]([C:2]([C:3][O:4][H:12])([H:10])[H:11])([H:7])([H:8])[H:9]"
C       -1.76502119      -0.21021667       0.39794608
C       -0.28771628      -0.39515689       0.70994803
C        0.66493843       0.12802473      -0.30243270
O        0.25358664       0.74431258      -1.30790848
C        2.57342293       0.45096584      -0.90228761
O        3.53877909       0.19168398      -0.33022403
H       -2.01870761       0.84576737       0.29945506
H       -2.03439986      -0.69706749      -0.53996826
H       -2.37725820      -0.63574652       1.19430606
H       -0.01716664      -1.44898911       0.84351243
H        0.00208427       0.07186677       1.65819296
H        1.46745843       0.95455540      -1.72053954
12
Frame=9 idx=004854 GeodesicLength=0.3593912743033506 rxn_smarts="[C:1]([C:2]([C:3](=[O:4])[C:5](=[O:6])[H:12])([H:10])[H:11])([H:7])([H:8])[H:9]>>[C-:5]#[O+:6].[C:1]([C:2]([C:3][O:4][H:12])([H:10])[H:11])([H:7])([H:8])[H:9]"
C       -1.76429826      -0.21155437       0.40030450
C       -0.28584825      -0.39401112       0.70739831
C        0.65954684       0.12936575      -0.31142801
O        0.24599916       0.75024742      -1.31369574
C        2.57243080       0.44614604      -0.90058502
O        3.52837755       0.18521813      -0.31235510
H       -2.02040614       0.84394429       0.30279200
H       -2.03614034      -0.69840865      -0.53690385
H       -2.37273853      -0.63833296       1.19889363
H       -0.01183855      -1.44704368       0.84031396
H        0.00814718       0.07499278       1.65333449
H        1.47676853       0.95943638      -1.72806917
12
Frame=10 idx=004854 GeodesicLength=0.3995866142961996 rxn_smarts="[C:1]([C:2]([C:3](=[O:4])[C:5](=[O:6])[H:12])([H:10])[H:11])([H:7])([H:8])[H:9]>>[C-:5]#[O+:6].[C:1]([C:2]([C:3][O:4][H:12])([H:10])[H:11])([H:7])([H:8])[H:9]"
C       -1.76354144      -0.21296068       0.40266803
C       -0.28393547      -0.39275780       0.70479937
C        0.65406542       0.13082904      -0.32050851
O        0.23825809       0.75622233      -1.31955405
C        2.57137740       0.44120115      -0.89874253
O        3.51759604       0.17836155      -0.29455899
H       -2.02218087       0.84201580       0.30609265
H       -2.03783592      -0.69990744      -0.53378487
H       -2.36808927      -0.64099876       1.20352680
H       -0.00634268      -1.44494256       0.83709688
H        0.01423589       0.07832861       1.64835399
H        1.48639279       0.96460877      -1.73538878
12
Frame=11 idx=004854 GeodesicLength=0.43983888453570275 rxn_smarts="[C:1]([C:2]([C:3](=[O:4])[C:5](=[O:6])[H:12])([H:10])[H:11])([H:7])([H:8])[H:9]>>[C-:5]#[O+:6].[C:1]([C:2]([C:3][O:4][H:12])([H:10])[H:11])([H:7])([H:8])[H:9]"
C       -1.76272318      -0.21368069       0.40545282
C       -0.28196778      -0.39245655       0.70154842
C        0.64845271       0.13076250      -0.33062474
O        0.23040640       0.76150283      -1.32588887
C        2.57026511       0.43647698      -0.89645902
O        3.50623877       0.17589861      -0.27425540
H       -2.02286646       0.84107319       0.31041870
H       -2.04060206      -0.70006421      -0.53024159
H       -2.36326095      -0.64267358       1.20880538
H       -0.00178044      -1.44412050       0.83260673
H        0.02149333       0.08004499       1.64266867
H        1.49634454       0.96723642      -1.74403110
12
Frame=12 idx=004854 GeodesicLength=0.48021563317677624 rxn_smarts="[C:1]([C:2]([C:3](=[O:4])[C:5](=[O:6])[H:12])([H:10])[H:11])([H:7])([H:8])[H:9]>>[C-:5]#[O+:6].[C:1]([C:2]([C:3][O:4][H:12])([H:10])[H:11])([H:7])([H:8])[H:9]"
C       -1.76187054      -0.21474759       0.40809465
C       -0.27994986      -0.39163562       0.69846584
C        0.64275608       0.13152843      -0.34044633
O        0.22236998       0.76723154      -1.33208442
C        2.56907113       0.43171234      -0.89402883
O        3.49451270       0.17119653      -0.25496023
H       -2.02407214       0.83962407       0.31437593
H       -2.04288752      -0.70089268      -0.52679355
H       -2.35829722      -0.64487990       1.21388986
H        0.00338770      -1.44259618       0.82850399
H        0.02835400       0.08262610       1.63708695
H        1.50662569       0.97083297      -1.75210386
12
Frame=13 idx=004854 GeodesicLength=0.5206576431993218 rxn_smarts="[C:1]([C:2]([C:3](=[O:4])[C:5](=[O:6])[H:12])([H:10])[H:11])([H:7])([H:8])[H:9]>>[C-:5]#[O+:6].[C:1]([C:2]([C:3][O:4][H:12])([H:10])[H:11])([H:7])([H:8])[H:9]"
C       -1.76095706      -0.21538664       0.41101321
C       -0.27787932      -0.39140739       0.69492995
C        0.63693522       0.13143881      -0.35092092
O        0.21421667       0.77271976      -1.33848739
C        2.56781425       0.42717985      -0.89112722
O        3.48221159       0.16931460      -0.23407204
H       -2.02458694       0.83879257       0.31908392
H       -2.04583948      -0.70081359      -0.52308277
H       -2.35315905      -0.64654465       1.21936267
H        0.00800988      -1.44187277       0.82346444
H        0.03598333       0.08413521       1.63101946
H        1.51725090       0.97244423      -1.76118330
12
Frame=14 idx=004854 GeodesicLength=0.5612245932315107 rxn_smarts="[C:1]([C:2]([C:3](=[O:4])[C:5](=[O:6])[H:12])([H:10])[H:11])([H:7])([H:8])[H:9]>>[C-:5]#[O+:6].[C:1]([C:2]([C:3][O:4][H:12])([H:10])[H:11])([H:7])([H:8])[H:9]"
C       -1.75999088      -0.21595982       0.41401347
C       -0.27575651      -0.39124696       0.69123137
C        0.63100827       0.13131645      -0.36159011
O        0.20590829       0.77830421      -1.34492657
C        2.56647677       0.42267261      -0.88793180
O        3.46940475       0.16794521      -0.21279862
H       -2.02497550       0.83805500       0.32402612
H       -2.04891389      -0.70055897      -0.51927696
H       -2.34785901      -0.64817979       1.22494739
H        0.01263058      -1.44124526       0.81809337
H        0.04382965       0.08546989       1.62474699
H        1.52823748       0.97342741      -1.77053464
12
Frame=15 idx=004854 GeodesicLength=0.601888950655347 rxn_smarts="[C:1]([C:2]([C:3](=[O:4])[C:5](=[O:6])[H:12])([H:10])[H:11])([H:7])([H:8])[H:9]>>[C-:5]#[O+:6].[C:1]([C:2]([C:3][O:4][H:12])([H:10])[H:11])([H:7])([H:8])[H:9]"
C       -1.75897899      -0.21658011       0.41702559
C       -0.27359135      -0.39097175       0.68748858
C        0.62499635       0.13156819      -0.37219258
O        0.19745716       0.78433335      -1.35116880
C        2.56505182       0.41809346      -0.88452708
O        3.45615627       0.16653057      -0.19152018
H       -2.02544634       0.83724541       0.32913473
H       -2.05189658      -0.70026788      -0.51549802
H       -2.34242374      -0.65004578       1.23047769
H        0.01743290      -1.44047520       0.81251269
H        0.05166117       0.08684631       1.61844428
H        1.53958132       0.97372342      -1.78017690
12
Frame=16 idx=004854 GeodesicLength=0.642631409293996 rxn_smarts="[C:1]([C:2]([C:3](=[O:4])[C:5](=[O:6])[H:12])([H:10])[H:11])([H:7])([H:8])[H:9]>>[C-:5]#[O+:6].[C:1]([C:2]([C:3][O:4][H:12])([H:10])[H:11])([H:7])([H:8])[H:9]"
C       -1.75792920      -0.21728039       0.42002280
C       -0.27139557      -0.39051910       0.68375676
C        0.61891822       0.13240791      -0.38257312
O        0.18888271       0.79104316      -1.35704236
C        2.56353966       0.41334593      -0.88097835
O        3.44252621       0.16504335      -0.17035549
H       -2.02608131       0.83631566       0.33444293
H       -2.05469977      -0.69992877      -0.51182675
H       -2.33688161      -0.65227793       1.23585607
H        0.02247416      -1.43948568       0.80671852
H        0.05936804       0.08828424       1.61222514
H        1.55127846       0.97305162      -1.79024615
