16
Frame=0 idx=010358 GeodesicLength=0.0 rxn_smarts="[C:1]([C:2]1([C:3]([H:11])([H:12])[H:13])[C:4]([H:14])([H:15])[O:5]/[C:6]1=[N:7]\[H:16])([H:8])([H:9])[H:10]>>[C:1]([C@@:2]1([H:12])[C:4]([H:14])([H:15])[O+:5]=[C:6]1[N:7]([C-:3]([H:11])[H:13])[H:16])([H:8])([H:9])[H:10]"
C       -1.15542526      -0.23726504       1.21376328
C       -0.43639082       0.25171725      -0.02716004
C        0.12299089      -2.21921080      -1.64571381
C       -0.46001277       1.75523655      -0.34039098
O        0.98496750       1.82111610      -0.18016249
C        1.05092661       0.48385255       0.09673103
N        2.03015984      -0.24901200       0.35102718
H       -0.92442921       0.39259233       2.07518082
H       -2.23585581      -0.23161853       1.06073806
H       -0.85287571      -1.25727326       1.45270189
H        0.17441780      -2.79040873      -0.69694393
H       -0.68658634      -0.37124389      -0.89834438
H        1.19442055      -2.03887937      -1.85677099
H       -0.96085648       2.38316936       0.39745921
H       -0.75085124       2.03822024      -1.35121917
H        2.90540048       0.26900723       0.34910439
16
Frame=1 idx=010358 GeodesicLength=0.14064641835467398 rxn_smarts="[C:1]([C:2]1([C:3]([H:11])([H:12])[H:13])[C:4]([H:14])([H:15])[O:5]/[C:6]1=[N:7]\[H:16])([H:8])([H:9])[H:10]>>[C:1]([C@@:2]1([H:12])[C:4]([H:14])([H:15])[O+:5]=[C:6]1[N:7]([C-:3]([H:11])[H:13])[H:16])([H:8])([H:9])[H:10]"
C       -1.16618874      -0.23694051       1.21452918
C       -0.44371158       0.24482651      -0.02806474
C        0.16841603      -2.15068976      -1.59480023
C       -0.45898723       1.75044048      -0.33757286
O        0.98652220       1.81028150      -0.17888717
C        1.04286136       0.47432227       0.10568534
N        2.01745938      -0.28091389       0.31393272
H       -0.93324319       0.39279099       2.07550104
H       -2.24649842      -0.22560985       1.06044877
H       -0.87108260      -1.25769279       1.45936882
H        0.19817618      -2.75424981      -0.66771955
H       -0.72271566      -0.37686926      -0.91322437
H        1.23386204      -2.03109345      -1.86113635
H       -0.95618018       2.38015093       0.40127283
H       -0.74887785       2.03744699      -1.34760164
H        2.90018827       0.22379965       0.29826821
16
Frame=2 idx=010358 GeodesicLength=0.2812490051518572 rxn_smarts="[C:1]([C:2]1([C:3]([H:11])([H:12])[H:13])[C:4]([H:14])([H:15])[O:5]/[C:6]1=[N:7]\[H:16])([H:8])([H:9])[H:10]>>[C:1]([C@@:2]1([H:12])[C:4]([H:14])([H:15])[O+:5]=[C:6]1[N:7]([C-:3]([H:11])[H:13])[H:16])([H:8])([H:9])[H:10]"
C       -1.17560643      -0.23739179       1.21509974
C       -0.44850997       0.23736500      -0.02835862
C        0.21114356      -2.08482901      -1.54588104
C       -0.45720535       1.74462273      -0.33559455
O        0.98842333       1.80067000      -0.17594761
C        1.03694221       0.46631284       0.11738548
N        2.00633890      -0.30859924       0.28065543
H       -0.94266544       0.39297577       2.07559407
H       -2.25556401      -0.22177043       1.05840542
H       -0.88707920      -1.25843335       1.46637221
H        0.21589757      -2.71853209      -0.64100349
H       -0.75427662      -0.38453597      -0.92711010
H        1.26447600      -2.02184192      -1.86625481
H       -0.95294285       2.37598112       0.40287077
H       -0.74480702       2.03416674      -1.34561651
H        2.89543532       0.18383961       0.24938361
16
Frame=3 idx=010358 GeodesicLength=0.42184534041009075 rxn_smarts="[C:1]([C:2]1([C:3]([H:11])([H:12])[H:13])[C:4]([H:14])([H:15])[O:5]/[C:6]1=[N:7]\[H:16])([H:8])([H:9])[H:10]>>[C:1]([C@@:2]1([H:12])[C:4]([H:14])([H:15])[O+:5]=[C:6]1[N:7]([C-:3]([H:11])[H:13])[H:16])([H:8])([H:9])[H:10]"
C       -1.18382217      -0.23848056       1.21550689
C       -0.45114342       0.22939143      -0.02813794
C        0.25103421      -2.02185032      -1.49868088
C       -0.45467557       1.73788877      -0.33445604
O        0.99071108       1.79199441      -0.17155945
C        1.03289048       0.45939850       0.13110278
N        1.99657790      -0.33270528       0.25109187
H       -0.95240906       0.39319111       2.07543574
H       -2.26323476      -0.21969543       1.05493447
H       -0.90117293      -1.25944163       1.47362568
H        0.22913037      -2.68329033      -0.61646233
H       -0.78181080      -0.39434186      -0.94018377
H        1.28662551      -2.01001317      -1.87211547
H       -0.95083666       2.37084950       0.40239972
H       -0.73878857       2.02864122      -1.34517529
H        2.89092439       0.14846366       0.20267403
16
Frame=4 idx=010358 GeodesicLength=0.5624783788264917 rxn_smarts="[C:1]([C:2]1([C:3]([H:11])([H:12])[H:13])[C:4]([H:14])([H:15])[O:5]/[C:6]1=[N:7]\[H:16])([H:8])([H:9])[H:10]>>[C:1]([C@@:2]1([H:12])[C:4]([H:14])([H:15])[O+:5]=[C:6]1[N:7]([C-:3]([H:11])[H:13])[H:16])([H:8])([H:9])[H:10]"
C       -1.19095285      -0.24008027       1.21578073
C       -0.45195100       0.22099704      -0.02749286
C        0.28800168      -1.96181038      -1.45306651
C       -0.45143375       1.73034366      -0.33412598
O        0.99337410       1.78402229      -0.16592096
C        1.03042285       0.45325409       0.14619826
N        1.98796712      -0.35380301       0.22505766
H       -0.96221855       0.39344926       2.07502886
H       -2.26965403      -0.21904027       1.05032863
H       -0.91360464      -1.26064653       1.48104477
H        0.23902317      -2.64851485      -0.59376881
H       -0.80580126      -0.40629605      -0.95263641
H        1.30097560      -1.99494871      -1.87857709
H       -0.94959719       2.36489326       0.40004904
H       -0.73100583       2.02113379      -1.34615794
H        2.88645457       0.11704667       0.15825860
16
Frame=5 idx=010358 GeodesicLength=0.7031486277226265 rxn_smarts="[C:1]([C:2]1([C:3]([H:11])([H:12])[H:13])[C:4]([H:14])([H:15])[O:5]/[C:6]1=[N:7]\[H:16])([H:8])([H:9])[H:10]>>[C:1]([C@@:2]1([H:12])[C:4]([H:14])([H:15])[O+:5]=[C:6]1[N:7]([C-:3]([H:11])[H:13])[H:16])([H:8])([H:9])[H:10]"
C       -1.19714852      -0.24209441       1.21593941
C       -0.45124982       0.21228247      -0.02647703
C        0.32206894      -1.90475504      -1.40890941
C       -0.44752196       1.72214329      -0.33454167
O        0.99640350       1.77662775      -0.15922854
C        1.02927698       0.44765468       0.16216235
N        1.98036314      -0.37241696       0.20230504
H       -0.97195166       0.39376338       2.07436004
H       -2.27499648      -0.21952795       1.04482681
H       -0.92463443      -1.26202562       1.48854069
H        0.24661460      -2.61426081      -0.57263557
H       -0.82667416      -0.42038371      -0.96460323
H        1.30815350      -1.97625379      -1.88546094
H       -0.94899800       2.35830208       0.39601606
H       -0.72163562       2.01194988      -1.34839316
H        2.88193002       0.08899475       0.11609916
16
Frame=6 idx=010358 GeodesicLength=0.843890207734696 rxn_smarts="[C:1]([C:2]1([C:3]([H:11])([H:12])[H:13])[C:4]([H:14])([H:15])[O:5]/[C:6]1=[N:7]\[H:16])([H:8])([H:9])[H:10]>>[C:1]([C@@:2]1([H:12])[C:4]([H:14])([H:15])[O+:5]=[C:6]1[N:7]([C-:3]([H:11])[H:13])[H:16])([H:8])([H:9])[H:10]"
C       -1.20250993      -0.24442735       1.21599350
C       -0.44931098       0.20337401      -0.02514637
C        0.35329788      -1.85052506      -1.36620076
C       -0.44300704       1.71341227      -0.33560634
O        0.99974140       1.76968922      -0.15164707
C        1.02921437       0.44244741       0.17861768
N        1.97360165      -0.38896556       0.18248711
H       -0.98147657       0.39411042       2.07345847
H       -2.27937615      -0.22092238       1.03860675
H       -0.93443448      -1.26351472       1.49602268
H        0.25252124      -2.58050705      -0.55277620
H       -0.84477978      -0.43650175      -0.97625666
H        1.30906123      -1.95402171      -1.89251036
H       -0.94884789       2.35118101       0.39055732
H       -0.71090336       2.00136102      -1.35169388
H        2.87720840       0.06381021       0.07609414
16
Frame=7 idx=010358 GeodesicLength=0.9846853370119713 rxn_smarts="[C:1]([C:2]1([C:3]([H:11])([H:12])[H:13])[C:4]([H:14])([H:15])[O:5]/[C:6]1=[N:7]\[H:16])([H:8])([H:9])[H:10]>>[C:1]([C@@:2]1([H:12])[C:4]([H:14])([H:15])[O+:5]=[C:6]1[N:7]([C-:3]([H:11])[H:13])[H:16])([H:8])([H:9])[H:10]"
C       -1.20717669      -0.24701997       1.21595220
C       -0.44637191       0.19438105      -0.02352383
C        0.38184934      -1.79901211      -1.32490847
C       -0.43794630       1.70431369      -0.33721781
O        1.00336460       1.76317652      -0.14333973
C        1.03004625       0.43754704       0.19528750
N        1.96759718      -0.40381484       0.16522445
H       -0.99077039       0.39447941       2.07233873
H       -2.28295238      -0.22305641       1.03180991
H       -0.94320870      -1.26511341       1.50341360
H        0.25732991      -2.54729127      -0.53398798
H       -0.86042026      -0.45457277      -0.98770576
H        1.30438391      -1.92841984      -1.89943279
H       -0.94899676       2.34369605       0.38390203
H       -0.69899454       1.98965639      -1.35586138
H        2.87226673       0.04105048       0.03804932
16
Frame=8 idx=010358 GeodesicLength=1.1255539802173917 rxn_smarts="[C:1]([C:2]1([C:3]([H:11])([H:12])[H:13])[C:4]([H:14])([H:15])[O:5]/[C:6]1=[N:7]\[H:16])([H:8])([H:9])[H:10]>>[C:1]([C@@:2]1([H:12])[C:4]([H:14])([H:15])[O+:5]=[C:6]1[N:7]([C-:3]([H:11])[H:13])[H:16])([H:8])([H:9])[H:10]"
C       -1.21123261      -0.24981262       1.21580798
C       -0.44262572       0.18542327      -0.02163782
C        0.40786304      -1.74997947      -1.28504345
C       -0.43240244       1.69497259      -0.33925674
O        1.00721405       1.75704298      -0.13443330
C        1.03159716       0.43290103       0.21197875
N        1.96221254      -0.41722980       0.15011669
H       -0.99978606       0.39483206       2.07102310
H       -2.28581112      -0.22578491       1.02452639
H       -0.95108598      -1.26678793       1.51062239
H        0.26135884      -2.51459858      -0.51607686
H       -0.87383683      -0.47447241      -0.99907507
H        1.29494345      -1.89990393      -1.90593180
H       -0.94930492       2.33593862       0.37630363
H       -0.68610978       1.97708316      -1.36069155
H        2.86700639       0.02037593       0.00176766
16
Frame=9 idx=010358 GeodesicLength=1.2664876336396178 rxn_smarts="[C:1]([C:2]1([C:3]([H:11])([H:12])[H:13])[C:4]([H:14])([H:15])[O:5]/[C:6]1=[N:7]\[H:16])([H:8])([H:9])[H:10]>>[C:1]([C@@:2]1([H:12])[C:4]([H:14])([H:15])[O+:5]=[C:6]1[N:7]([C-:3]([H:11])[H:13])[H:16])([H:8])([H:9])[H:10]"
C       -1.21478254      -0.25277551       1.21556358
C       -0.43823645       0.17658995      -0.01950536
C        0.43153720      -1.70324714      -1.24662118
C       -0.42642967       1.68552358      -0.34162965
O        1.01126859       1.75128600      -0.12506603
C        1.03374792       0.42847900       0.22853540
N        1.95738377      -0.42945209       0.13678138
H       -1.00853801       0.39514031       2.06953510
H       -2.28807010      -0.22900970       1.01683895
H       -0.95820775      -1.26855399       1.51758650
H        0.26493024      -2.48243352      -0.49891743
H       -0.88524279      -0.49611953      -1.01044566
H        1.28129488      -1.86881232      -1.91166979
H       -0.94967433       2.32803487       0.36796557
H       -0.67241207       1.96387425      -1.36601823
H        2.86143111       0.00147585      -0.03293315
16
Frame=10 idx=010358 GeodesicLength=1.4074981427413655 rxn_smarts="[C:1]([C:2]1([C:3]([H:11])([H:12])[H:13])[C:4]([H:14])([H:15])[O:5]/[C:6]1=[N:7]\[H:16])([H:8])([H:9])[H:10]>>[C:1]([C@@:2]1([H:12])[C:4]([H:14])([H:15])[O+:5]=[C:6]1[N:7]([C-:3]([H:11])[H:13])[H:16])([H:8])([H:9])[H:10]"
C       -1.21788963      -0.25586702       1.21520522
C       -0.43334040       0.16798884      -0.01713902
C        0.45299518      -1.65856012      -1.20964033
C       -0.42008053       1.67607952      -0.34421414
O        1.01547173       1.74589489      -0.11529887
C        1.03636758       0.42427143       0.24486729
N        1.95297659      -0.44062976       0.12485457
H       -1.01701798       0.39536475       2.06789165
H       -2.28978579      -0.23264209       1.00878552
H       -0.96466107      -1.27038743       1.52423013
H        0.26817731      -2.45077049      -0.48240337
H       -0.89480251      -0.51939086      -1.02190517
H        1.26420546      -1.83579549      -1.91639012
H       -0.95001168       2.32005630       0.35911451
H       -0.65805443       1.95024641      -1.37165097
H        2.85545017      -0.01585887      -0.06630690
16
Frame=11 idx=010358 GeodesicLength=1.5485764607483414 rxn_smarts="[C:1]([C:2]1([C:3]([H:11])([H:12])[H:13])[C:4]([H:14])([H:15])[O:5]/[C:6]1=[N:7]\[H:16])([H:8])([H:9])[H:10]>>[C:1]([C@@:2]1([H:12])[C:4]([H:14])([H:15])[O+:5]=[C:6]1[N:7]([C-:3]([H:11])[H:13])[H:16])([H:8])([H:9])[H:10]"
C       -1.22063313      -0.25906292       1.21473548
C       -0.42805487       0.15969942      -0.01454695
C        0.47239389      -1.61572196      -1.17410846
C       -0.41340198       1.66675231      -0.34691982
O        1.01979962       1.74087635      -0.10520558
C        1.03937070       0.42026908       0.26089765
N        1.94891781      -0.45090884       0.11401393
H       -1.02525581       0.39547880       2.06612131
H       -2.29104277      -0.23661527       1.00041108
H       -0.97054340      -1.27229583       1.53051062
H        0.27126125      -2.41959521      -0.46647273
H       -0.90266498      -0.54420685      -1.03351343
H        1.24422275      -1.80133210      -1.91983563
H       -0.95025823       2.31209792       0.34992830
H       -0.64316159       1.93639414      -1.37744953
H        2.84905075      -0.03182904      -0.09856623
16
Frame=12 idx=010358 GeodesicLength=1.689720962731888 rxn_smarts="[C:1]([C:2]1([C:3]([H:11])([H:12])[H:13])[C:4]([H:14])([H:15])[O:5]/[C:6]1=[N:7]\[H:16])([H:8])([H:9])[H:10]>>[C:1]([C@@:2]1([H:12])[C:4]([H:14])([H:15])[O+:5]=[C:6]1[N:7]([C-:3]([H:11])[H:13])[H:16])([H:8])([H:9])[H:10]"
C       -1.22306979      -0.26233561       1.21414871
C       -0.42247915       0.15179887      -0.01173940
C        0.48984861      -1.57452523      -1.14002786
C       -0.40643716       1.65763711      -0.34965245
O        1.02422285       1.73623139      -0.09483401
C        1.04267988       0.41646854       0.27657167
N        1.94511013      -0.46038965       0.10396979
H       -1.03326279       0.39545742       2.06424588
H       -2.29189727      -0.24086799       0.99174388
H       -0.97592665      -1.27427236       1.53637879
H        0.27425713      -2.38888279      -0.45106458
H       -0.90895262      -0.57049460      -1.04532451
H        1.22193351      -1.76596501      -1.92181557
H       -0.95035745       2.30423208       0.34058432
H       -0.62785143       1.92248839      -1.38327387
H        2.84218219      -0.04658056      -0.12991078
16
Frame=13 idx=010358 GeodesicLength=1.830922584591322 rxn_smarts="[C:1]([C:2]1([C:3]([H:11])([H:12])[H:13])[C:4]([H:14])([H:15])[O:5]/[C:6]1=[N:7]\[H:16])([H:8])([H:9])[H:10]>>[C:1]([C@@:2]1([H:12])[C:4]([H:14])([H:15])[O+:5]=[C:6]1[N:7]([C-:3]([H:11])[H:13])[H:16])([H:8])([H:9])[H:10]"
C       -1.22525802      -0.26565996       1.21344853
C       -0.41670053       0.14435100      -0.00872172
C        0.50547142      -1.53479047      -1.10739186
C       -0.39922510       1.64882086      -0.35233481
O        1.02872218       1.73196134      -0.08422925
C        1.04623286       0.41286446       0.29184990
N        1.94147332      -0.46916480       0.09447585
H       -1.04106340       0.39528577       2.06229269
H       -2.29240855      -0.24534387       0.98281345
H       -0.98088137      -1.27631436       1.54180647
H        0.27724110      -2.35861347      -0.43614331
H       -0.91376989      -0.59820701      -1.05737323
H        1.19784270      -1.73015482      -1.92219242
H       -0.95026814       2.29653351       0.33123038
H       -0.61222366       1.90867845      -1.38901261
H        2.83481507      -0.06024664      -0.16051806
16
Frame=14 idx=010358 GeodesicLength=1.9721725956598581 rxn_smarts="[C:1]([C:2]1([C:3]([H:11])([H:12])[H:13])[C:4]([H:14])([H:15])[O:5]/[C:6]1=[N:7]\[H:16])([H:8])([H:9])[H:10]>>[C:1]([C@@:2]1([H:12])[C:4]([H:14])([H:15])[O+:5]=[C:6]1[N:7]([C-:3]([H:11])[H:13])[H:16])([H:8])([H:9])[H:10]"
C       -1.22724435      -0.26901030       1.21263519
C       -0.41079478       0.13741544      -0.00550171
C        0.51934718      -1.49634535      -1.07618836
C       -0.39180244       1.64038189      -0.35489157
O        1.03328070       1.72806557      -0.07342717
C        1.04997742       0.40945387       0.30670039
N        1.93791779      -0.47730294       0.08531688
H       -1.04867113       0.39495093       2.06028557
H       -2.29262285      -0.24999124       0.97364252
H       -0.98546475      -1.27841408       1.54676538
H        0.28023787      -2.32876506      -0.42166840
H       -0.91719749      -0.62731180      -1.06968844
H        1.17246264      -1.69436393      -1.92088229
H       -0.94995221       2.28906808       0.32201049
H       -0.59637521       1.89510053      -1.39456004
H        2.82690164      -0.07293160      -0.19054845
16
Frame=15 idx=010358 GeodesicLength=2.1134596200108535 rxn_smarts="[C:1]([C:2]1([C:3]([H:11])([H:12])[H:13])[C:4]([H:14])([H:15])[O:5]/[C:6]1=[N:7]\[H:16])([H:8])([H:9])[H:10]>>[C:1]([C@@:2]1([H:12])[C:4]([H:14])([H:15])[O+:5]=[C:6]1[N:7]([C-:3]([H:11])[H:13])[H:16])([H:8])([H:9])[H:10]"
C       -1.22907407      -0.27236068       1.21171394
C       -0.40482881       0.13104205      -0.00208372
C        0.53155391      -1.45904007      -1.04639252
C       -0.38420198       1.63238940      -0.35725933
O        1.03788796       1.72454035      -0.06245947
C        1.05386989       0.40623117       0.32110204
N        1.93436273      -0.48486693       0.07631439
H       -1.05610524       0.39444909       2.05824948
H       -2.29258494      -0.25476105       0.96425255
H       -0.98973079      -1.28056169       1.55124164
H        0.28326914      -2.29931757      -0.40760870
H       -0.91929548      -0.65780196      -1.08228419
H        1.14624492      -1.65898342      -1.91786274
H       -0.94937992       2.28189972       0.31304694
H       -0.58038997       1.88187094      -1.39983031
H        2.81840265      -0.08472936      -0.22014000
16
Frame=16 idx=010358 GeodesicLength=2.254771715884567 rxn_smarts="[C:1]([C:2]1([C:3]([H:11])([H:12])[H:13])[C:4]([H:14])([H:15])[O:5]/[C:6]1=[N:7]\[H:16])([H:8])([H:9])[H:10]>>[C:1]([C@@:2]1([H:12])[C:4]([H:14])([H:15])[O+:5]=[C:6]1[N:7]([C-:3]([H:11])[H:13])[H:16])([H:8])([H:9])[H:10]"
C       -1.23078787      -0.27568443       1.21069126
C       -0.39886146       0.12527397       0.00152867
C        0.54215857      -1.42274143      -1.01796953
C       -0.37645334       1.62490430      -0.35938253
O        1.04253826       1.72137873      -0.05135517
C        1.05787352       0.40318980       0.33504007
N        1.93072919      -0.49191096       0.06732004
H       -1.06338389       0.39378252       2.05620810
H       -2.29233447      -0.25960705       0.95466219
H       -0.99372753      -1.28274373       1.55522913
H        0.28634115      -2.27025372      -0.39393433
H       -0.92009989      -0.68969399      -1.09516408
H        1.11959955      -1.62435054      -1.91316415
H       -0.94852535       2.27508809       0.30444874
H       -0.56434463       1.86909025      -1.40475060
H        2.80927820      -0.09572180      -0.24940780
