18
Frame=0 idx=003483 GeodesicLength=0.0 rxn_smarts="[C:1]([C:2]([C:3]([C:4]([H:12])([H:13])[H:14])([C:5]([H:15])([H:16])[H:17])[O:6][H:18])([H:10])[H:11])([H:7])([H:8])[H:9]>>[C:1](=[C:2]([H:10])[H:11])([H:7])[H:8].[C:3]([C:4]([H:12])([H:13])[H:14])([C:5]([H:15])([H:16])[H:17])=[O:6].[H:9][H:18]"
C        1.93966568      -0.58352638      -0.73117294
C        1.05494396      -0.85053818       0.28499843
C       -0.79863577       0.33215173      -0.08159606
C       -1.74156480      -0.74921994       0.40059784
C       -0.52649085       1.47590534       0.87458977
O       -0.80653846       0.60726183      -1.31074189
H        2.15298427      -1.33521158      -1.48206048
H        2.71110878       0.16779726      -0.60503306
H        1.26564075       0.26221371      -1.87364990
H        1.17997752      -0.36162637       1.24050711
H        0.55661354      -1.81010507       0.29832041
H       -1.47165044      -1.13142534       1.38501834
H       -1.78391277      -1.56632098      -0.31755047
H       -2.74191862      -0.31027713       0.47199687
H       -0.38251639       1.14557251       1.90308206
H       -1.39004514       2.14705196       0.84693306
H        0.34318101       2.04325095       0.54344175
H        0.43915772       0.51704561      -1.84768089
18
Frame=1 idx=003483 GeodesicLength=0.08319704289234023 rxn_smarts="[C:1]([C:2]([C:3]([C:4]([H:12])([H:13])[H:14])([C:5]([H:15])([H:16])[H:17])[O:6][H:18])([H:10])[H:11])([H:7])([H:8])[H:9]>>[C:1](=[C:2]([H:10])[H:11])([H:7])[H:8].[C:3]([C:4]([H:12])([H:13])[H:14])([C:5]([H:15])([H:16])[H:17])=[O:6].[H:9][H:18]"
C        1.93847247      -0.57982122      -0.73271157
C        1.05883209      -0.85668486       0.28893888
C       -0.79507512       0.32418788      -0.08026769
C       -1.74798572      -0.74699111       0.40510825
C       -0.53190912       1.47738507       0.86736470
O       -0.81109336       0.60077699      -1.31262275
H        2.13568816      -1.32776735      -1.49212920
H        2.72989030       0.14741874      -0.58911112
H        1.29063930       0.30024772      -1.87384242
H        1.19630917      -0.38295789       1.25090070
H        0.57342595      -1.82353735       0.30117263
H       -1.47649204      -1.12890475       1.38938706
H       -1.79823546      -1.56597116      -0.31060545
H       -2.74502652      -0.30181123       0.48095829
H       -0.38053545       1.15316934       1.89682722
H       -1.40199028       2.13998163       0.84288613
H        0.33123464       2.05026248       0.52886527
H        0.43385097       0.52101708      -1.86111894
18
Frame=2 idx=003483 GeodesicLength=0.16615726527348865 rxn_smarts="[C:1]([C:2]([C:3]([C:4]([H:12])([H:13])[H:14])([C:5]([H:15])([H:16])[H:17])[O:6][H:18])([H:10])[H:11])([H:7])([H:8])[H:9]>>[C:1](=[C:2]([H:10])[H:11])([H:7])[H:8].[C:3]([C:4]([H:12])([H:13])[H:14])([C:5]([H:15])([H:16])[H:17])=[O:6].[H:9][H:18]"
C        1.93716413      -0.57567210      -0.73391490
C        1.06287589      -0.86290309       0.29324730
C       -0.79142386       0.31625665      -0.07890749
C       -1.75435298      -0.74463212       0.40942972
C       -0.53736006       1.47885583       0.86004724
O       -0.81530371       0.59426424      -1.31448439
H        2.11806023      -1.31951266      -1.50183466
H        2.74791924       0.12672037      -0.57418535
H        1.31468258       0.33746458      -1.87306951
H        1.21313082      -0.40486071       1.26142053
H        0.59084167      -1.83705138       0.30399771
H       -1.48139982      -1.12633719       1.39356723
H       -1.81248204      -1.56539435      -0.30386138
H       -2.74803744      -0.29324842       0.48957782
H       -0.37853035       1.16083137       1.89040692
H       -1.41382480       2.13290145       0.83881321
H        0.31913868       2.05721587       0.51418875
H        0.42890183       0.52510165      -1.87443875
18
Frame=3 idx=003483 GeodesicLength=0.2490097480896365 rxn_smarts="[C:1]([C:2]([C:3]([C:4]([H:12])([H:13])[H:14])([C:5]([H:15])([H:16])[H:17])[O:6][H:18])([H:10])[H:11])([H:7])([H:8])[H:9]>>[C:1](=[C:2]([H:10])[H:11])([H:7])[H:8].[C:3]([C:4]([H:12])([H:13])[H:14])([C:5]([H:15])([H:16])[H:17])=[O:6].[H:9][H:18]"
C        1.93576451      -0.57105892      -0.73474185
C        1.06702605      -0.86921186       0.29786912
C       -0.78771570       0.30835188      -0.07750095
C       -1.76070084      -0.74213419       0.41361135
C       -0.54283255       1.48031218       0.85263665
O       -0.81925295       0.58769915      -1.31631820
H        2.10034524      -1.31049704      -1.51100569
H        2.76512958       0.10588312      -0.56016836
H        1.33797713       0.37370639      -1.87161909
H        1.23040405      -0.42744617       1.27202330
H        0.60883117      -1.85065739       0.30665153
H       -1.48637742      -1.12372232       1.39759634
H       -1.82673149      -1.56458139      -0.29726747
H       -2.75097921      -0.28456737       0.49794594
H       -0.37647534       1.16856116       1.88381735
H       -1.42552410       2.12582955       0.83472658
H        0.30691255       2.06407615       0.49938321
H        0.42419933       0.52945706      -1.88763976
18
Frame=4 idx=003483 GeodesicLength=0.33189503436561524 rxn_smarts="[C:1]([C:2]([C:3]([C:4]([H:12])([H:13])[H:14])([C:5]([H:15])([H:16])[H:17])[O:6][H:18])([H:10])[H:11])([H:7])([H:8])[H:9]>>[C:1](=[C:2]([H:10])[H:11])([H:7])[H:8].[C:3]([C:4]([H:12])([H:13])[H:14])([C:5]([H:15])([H:16])[H:17])=[O:6].[H:9][H:18]"
C        1.93429756      -0.56594546      -0.73514390
C        1.07123383      -0.87564427       0.30275392
C       -0.78398848       0.30045364      -0.07604230
C       -1.76706428      -0.73949173       0.41771845
C       -0.54830639       1.48174899       0.84510117
O       -0.82303280       0.58102839      -1.31812597
H        2.08270267      -1.30069240      -1.51956274
H        2.78152421       0.08501240      -0.54690102
H        1.36078951       0.40907704      -1.86961073
H        1.24807074      -0.45085129       1.28266618
H        0.62735934      -1.86437672       0.30896564
H       -1.49142348      -1.12104809       1.40153206
H       -1.84106883      -1.56353592      -0.29074364
H       -2.75387728      -0.27574597       0.50616808
H       -0.37432967       1.17637887       1.87702805
H       -1.43705292       2.11878766       0.83060723
H        0.29458146       2.07080266       0.48437504
H        0.41958481       0.53404221      -1.90078550
18
Frame=5 idx=003483 GeodesicLength=0.41496032332590566 rxn_smarts="[C:1]([C:2]([C:3]([C:4]([H:12])([H:13])[H:14])([C:5]([H:15])([H:16])[H:17])[O:6][H:18])([H:10])[H:11])([H:7])([H:8])[H:9]>>[C:1](=[C:2]([H:10])[H:11])([H:7])[H:8].[C:3]([C:4]([H:12])([H:13])[H:14])([C:5]([H:15])([H:16])[H:17])=[O:6].[H:9][H:18]"
C        1.93278077      -0.56028496      -0.73506705
C        1.07545347      -0.88224365       0.30785594
C       -0.78027828       0.29253782      -0.07453010
C       -1.77347516      -0.73669826       0.42181974
C       -0.55375298       1.48315959       0.83739649
O       -0.82673123       0.57419061      -1.31991256
H        2.06526562      -1.29002837      -1.52746575
H        2.79710683       0.06419593      -0.53420065
H        1.38337518       0.44377973      -1.86705690
H        1.26606581      -0.47522890       1.29330384
H        0.64639013      -1.87823063       0.31075990
H       -1.49653493      -1.11829445       1.40543866
H       -1.85557617      -1.56226405      -0.28419964
H       -2.75675169      -0.26675889       0.51434833
H       -0.37204223       1.18430852       1.86999466
H       -1.44836664       2.11179898       0.82642479
H        0.28217704       2.07735100       0.46907427
H        0.41489446       0.53870996      -1.91398398
18
Frame=6 idx=003483 GeodesicLength=0.4981389296370442 rxn_smarts="[C:1]([C:2]([C:3]([C:4]([H:12])([H:13])[H:14])([C:5]([H:15])([H:16])[H:17])[O:6][H:18])([H:10])[H:11])([H:7])([H:8])[H:9]>>[C:1](=[C:2]([H:10])[H:11])([H:7])[H:8].[C:3]([C:4]([H:12])([H:13])[H:14])([C:5]([H:15])([H:16])[H:17])=[O:6].[H:9][H:18]"
C        1.93122577      -0.55404533      -0.73446845
C        1.07965769      -0.88903475       0.31314917
C       -0.77661071       0.28459016      -0.07296272
C       -1.77995278      -0.73374956       0.42595697
C       -0.55915701       1.48454129       0.82949238
O       -0.83039751       0.56714501      -1.32168328
H        2.04809582      -1.27845226      -1.53469616
H        2.81190731       0.04347068      -0.52194956
H        1.40588755       0.47798595      -1.86394591
H        1.28435572      -0.50067506       1.30388871
H        0.66590762      -1.89222661       0.31191924
H       -1.50171155      -1.11544557       1.40935681
H       -1.87029828      -1.56076828      -0.27757865
H       -2.75961457      -0.25759164       0.52254538
H       -0.36958391       1.19236729       1.86268590
H       -1.45943957       2.10488201       0.82215842
H        0.26971570       2.08369323       0.45342271
H        0.41001272       0.54331345      -1.92729092
18
Frame=7 idx=003483 GeodesicLength=0.5814683027880203 rxn_smarts="[C:1]([C:2]([C:3]([C:4]([H:12])([H:13])[H:14])([C:5]([H:15])([H:16])[H:17])[O:6][H:18])([H:10])[H:11])([H:7])([H:8])[H:9]>>[C:1](=[C:2]([H:10])[H:11])([H:7])[H:8].[C:3]([C:4]([H:12])([H:13])[H:14])([C:5]([H:15])([H:16])[H:17])=[O:6].[H:9][H:18]"
C        1.92964018      -0.54717968      -0.73329575
C        1.08381685      -0.89605280       0.31860489
C       -0.77301294       0.27659305      -0.07134021
C       -1.78651779      -0.73063798       0.43017918
C       -0.56449685       1.48589008       0.82134986
O       -0.83408640       0.55984232      -1.32344441
H        2.03126675      -1.26588068      -1.54124064
H        2.82595230       0.02287487      -0.51002106
H        1.42848548       0.51190658      -1.86019818
H        1.30289551      -0.52731134       1.31436246
H        0.68589209      -1.90636693       0.31229868
H       -1.50695228      -1.11247872       1.41333546
H       -1.88528554      -1.55905101      -0.27081024
H       -2.76247674      -0.24822462       0.53082497
H       -0.36691579       1.20057505       1.85506022
H       -1.47023880       2.09805716       0.81778127
H        0.25721936       2.08979687       0.43734751
H        0.40481460       0.54764777      -1.94079402
18
Frame=8 idx=003483 GeodesicLength=0.6649063001288832 rxn_smarts="[C:1]([C:2]([C:3]([C:4]([H:12])([H:13])[H:14])([C:5]([H:15])([H:16])[H:17])[O:6][H:18])([H:10])[H:11])([H:7])([H:8])[H:9]>>[C:1](=[C:2]([H:10])[H:11])([H:7])[H:8].[C:3]([C:4]([H:12])([H:13])[H:14])([C:5]([H:15])([H:16])[H:17])=[O:6].[H:9][H:18]"
C        1.92802566      -0.53964505      -0.73149834
C        1.08790783      -0.90333188       0.32419770
C       -0.76950687       0.26853204      -0.06966354
C       -1.79318826      -0.72735528       0.43452390
C       -0.56974660       1.48720227       0.81294039
O       -0.83783670       0.55224174      -1.32520387
H        2.01485409      -1.25224158      -1.54706850
H        2.83922129       0.00247902      -0.49831842
H        1.45127910       0.54570146      -1.85572982
H        1.32164875      -0.55524590       1.32466293
H        0.70633646      -1.92064972       0.31176956
H       -1.51225937      -1.10937342       1.41741206
H       -1.90058124      -1.55711097      -0.26384165
H       -2.76534771      -0.23863655       0.53923711
H       -0.36399863       1.20894599       1.84708531
H       -1.48072857       2.09134476       0.81327675
H        0.24471732       2.09563220       0.42079161
H        0.39920345       0.55151088      -1.95457318
18
Frame=9 idx=003483 GeodesicLength=0.7479539052670356 rxn_smarts="[C:1]([C:2]([C:3]([C:4]([H:12])([H:13])[H:14])([C:5]([H:15])([H:16])[H:17])[O:6][H:18])([H:10])[H:11])([H:7])([H:8])[H:9]>>[C:1](=[C:2]([H:10])[H:11])([H:7])[H:8].[C:3]([C:4]([H:12])([H:13])[H:14])([C:5]([H:15])([H:16])[H:17])=[O:6].[H:9][H:18]"
C        1.92635952      -0.53146215      -0.72902961
C        1.09193245      -0.91087906       0.32991335
C       -0.76609368       0.26042030      -0.06791823
C       -1.79995354      -0.72389239       0.43898895
C       -0.57492481       1.48847616       0.80426687
O       -0.84163347       0.54434736      -1.32694320
H        1.99881072      -1.23757708      -1.55214670
H        2.85184028      -0.01769191      -0.48676114
H        1.47419620       0.57939467      -1.85060542
H        1.34066024      -0.58449467       1.33466539
H        0.72722592      -1.93498560       0.31028508
H       -1.51762857      -1.10611782       1.42158849
H       -1.91615108      -1.55493123      -0.25666530
H       -2.76821732      -0.22882631       0.54776028
H       -0.36085599       1.21746216       1.83874792
H       -1.49091744       2.08475066       0.80863551
H        0.23217986       2.10119651       0.40377584
H        0.39317071       0.55481039      -1.96855807
18
Frame=10 idx=003483 GeodesicLength=0.831069153165794 rxn_smarts="[C:1]([C:2]([C:3]([C:4]([H:12])([H:13])[H:14])([C:5]([H:15])([H:16])[H:17])[O:6][H:18])([H:10])[H:11])([H:7])([H:8])[H:9]>>[C:1](=[C:2]([H:10])[H:11])([H:7])[H:8].[C:3]([C:4]([H:12])([H:13])[H:14])([C:5]([H:15])([H:16])[H:17])=[O:6].[H:9][H:18]"
C        1.92466399      -0.52251560      -0.72581144
C        1.09583907      -0.91877613       0.33570560
C       -0.76281390       0.25221481      -0.06611714
C       -1.80685697      -0.72023393       0.44365836
C       -0.57995479       1.48970047       0.79525882
O       -0.84556563       0.53606654      -1.32868932
H        1.98336824      -1.22169059      -1.55644785
H        2.86363821      -0.03744462      -0.47519629
H        1.49748368       0.61326350      -1.84457673
H        1.35980555      -0.61528540       1.34433546
H        0.74852792      -1.94945310       0.30758878
H       -1.52306420      -1.10267587       1.42594396
H       -1.93211575      -1.55251411      -0.24916733
H       -2.77110419      -0.21873787       0.55652118
H       -0.35737589       1.22616019       1.82997971
H       -1.50071417       2.07831180       0.80382657
H        0.21969671       2.10642268       0.38615518
H        0.38654212       0.55718722      -1.98296751
18
Frame=11 idx=003483 GeodesicLength=0.9142177152932279 rxn_smarts="[C:1]([C:2]([C:3]([C:4]([H:12])([H:13])[H:14])([C:5]([H:15])([H:16])[H:17])[O:6][H:18])([H:10])[H:11])([H:7])([H:8])[H:9]>>[C:1](=[C:2]([H:10])[H:11])([H:7])[H:8].[C:3]([C:4]([H:12])([H:13])[H:14])([C:5]([H:15])([H:16])[H:17])=[O:6].[H:9][H:18]"
C        1.92294139      -0.51275226      -0.72177503
C        1.09960039      -0.92707395       0.34153938
C       -0.75968909       0.24389896      -0.06425931
C       -1.81391254      -0.71636466       0.44857792
C       -0.58480848       1.49086703       0.78587857
O       -0.84967329       0.52735114      -1.33044263
H        1.96864560      -1.20450584      -1.55994054
H        2.87459042      -0.05664492      -0.46349917
H        1.52121295       0.64743765      -1.83753098
H        1.37903316      -0.64775341       1.35357770
H        0.77020711      -1.96404654       0.30350708
H       -1.52856313      -1.09901761       1.43052484
H       -1.94851827      -1.54984854      -0.24127631
H       -2.77400553      -0.20833590       0.56557579
H       -0.35350708       1.23504645       1.82072897
H       -1.51007676       2.07204951       0.79882718
H        0.20729211       2.11127342       0.36785995
H        0.37923104       0.55841947      -1.99787341
18
Frame=12 idx=003483 GeodesicLength=0.9974666275659088 rxn_smarts="[C:1]([C:2]([C:3]([C:4]([H:12])([H:13])[H:14])([C:5]([H:15])([H:16])[H:17])[O:6][H:18])([H:10])[H:11])([H:7])([H:8])[H:9]>>[C:1](=[C:2]([H:10])[H:11])([H:7])[H:8].[C:3]([C:4]([H:12])([H:13])[H:14])([C:5]([H:15])([H:16])[H:17])=[O:6].[H:9][H:18]"
C        1.92118348      -0.50210107      -0.71684121
C        1.10318514      -0.93583957       0.34736565
C       -0.75674488       0.23544761      -0.06234747
C       -1.82113934      -0.71226712       0.45380436
C       -0.58944423       1.49196460       0.77607437
O       -0.85400593       0.51813591      -1.33221035
H        1.95476911      -1.18590725      -1.56259862
H        2.88465723      -0.07514261      -0.45151570
H        1.54548917       0.68211325      -1.82929527
H        1.39827460      -0.68205583       1.36228853
H        0.79222646      -1.97876222       0.29783433
H       -1.53411992      -1.09510819       1.43538712
H       -1.96541804      -1.54692402      -0.23290451
H       -2.77692026      -0.19757758       0.57499623
H       -0.34917915       1.24413055       1.81093229
H       -1.51894882       2.06598819       0.79360869
H        0.19500454       2.11570151       0.34879632
H        0.37113084       0.55820384      -2.01337477
18
Frame=13 idx=003483 GeodesicLength=1.0807899981144276 rxn_smarts="[C:1]([C:2]([C:3]([C:4]([H:12])([H:13])[H:14])([C:5]([H:15])([H:16])[H:17])[O:6][H:18])([H:10])[H:11])([H:7])([H:8])[H:9]>>[C:1](=[C:2]([H:10])[H:11])([H:7])[H:8].[C:3]([C:4]([H:12])([H:13])[H:14])([C:5]([H:15])([H:16])[H:17])=[O:6].[H:9][H:18]"
C        1.91937526      -0.49050433      -0.71092737
C        1.10656374      -0.94513725       0.35313879
C       -0.75400541       0.22683866      -0.06038151
C       -1.82855481      -0.70792288       0.45939042
C       -0.59382538       1.49298227       0.76579989
O       -0.85860400       0.50835879      -1.33399750
H        1.94186814      -1.16580088      -1.56438950
H        2.89380418      -0.09276816      -0.43911043
H        1.57039006       0.71744878      -1.81971041
H        1.41746933      -0.71834356       1.37034681
H        0.81454864      -1.99358945       0.29037341
H       -1.53973158      -1.09091154       1.44058375
H       -1.98286695      -1.54372857      -0.22396861
H       -2.77984610      -0.18642052       0.58484468
H       -0.34432664       1.25341940       1.80052856
H       -1.52728077       2.06015137       0.78814666
H        0.18286373       2.11966421       0.32888165
H        0.36215856       0.55626367      -2.02954929
18
Frame=14 idx=003483 GeodesicLength=1.1641936205333248 rxn_smarts="[C:1]([C:2]([C:3]([C:4]([H:12])([H:13])[H:14])([C:5]([H:15])([H:16])[H:17])[O:6][H:18])([H:10])[H:11])([H:7])([H:8])[H:9]>>[C:1](=[C:2]([H:10])[H:11])([H:7])[H:8].[C:3]([C:4]([H:12])([H:13])[H:14])([C:5]([H:15])([H:16])[H:17])=[O:6].[H:9][H:18]"
C        1.91749870      -0.47789371      -0.70395048
C        1.10970342      -0.95504815       0.35879421
C       -0.75149601       0.21804293      -0.05836536
C       -1.83617758      -0.70331115       0.46539676
C       -0.59790387       1.49390483       0.75500033
O       -0.86351626       0.49794586      -1.33581196
H        1.93008716      -1.14407350      -1.56528717
H        2.90196510      -0.10931296      -0.42610012
H        1.59600691       0.75362528      -1.80857623
H        1.43654027      -0.75677924       1.37762089
H        0.83713178      -2.00851308       0.28089968
H       -1.54539052      -1.08638816       1.44617402
H       -2.00092842      -1.54024713      -0.21437217
H       -2.78277636      -0.17481288       0.59519650
H       -0.33886420       1.26291777       1.78944447
H       -1.53500682       2.05456266       0.78241165
H        0.17091050       2.12310796       0.30801539
H        0.35221620       0.55227269      -2.04649040
18
Frame=15 idx=003483 GeodesicLength=1.2476057784787478 rxn_smarts="[C:1]([C:2]([C:3]([C:4]([H:12])([H:13])[H:14])([C:5]([H:15])([H:16])[H:17])[O:6][H:18])([H:10])[H:11])([H:7])([H:8])[H:9]>>[C:1](=[C:2]([H:10])[H:11])([H:7])[H:8].[C:3]([C:4]([H:12])([H:13])[H:14])([C:5]([H:15])([H:16])[H:17])=[O:6].[H:9][H:18]"
C        1.91552579      -0.46420402      -0.69580698
C        1.11256834      -0.96565681       0.36426426
C       -0.74924512       0.20903175      -0.05630066
C       -1.84402562      -0.69840856       0.47188673
C       -0.60163475       1.49471686       0.74362023
O       -0.86879233       0.48682026      -1.33765927
H        1.91958716      -1.12062120      -1.56524435
H        2.90909406      -0.12454697      -0.41230282
H        1.62240472       0.79079606      -1.79568360
H        1.45541015      -0.79753507       1.38393664
H        0.85992733      -2.02349975       0.26917027
H       -1.55108848      -1.08149609       1.45222002
H       -2.01966385      -1.53645981      -0.20401309
H       -2.78570096      -0.16270032       0.60612730
H       -0.33270250       1.27262658       1.77760108
H       -1.54206464       2.04924571       0.77637949
H        0.15917575       2.12598178       0.28609460
H        0.34122494       0.54590961      -2.06428985
18
Frame=16 idx=003483 GeodesicLength=1.3309969353393039 rxn_smarts="[C:1]([C:2]([C:3]([C:4]([H:12])([H:13])[H:14])([C:5]([H:15])([H:16])[H:17])[O:6][H:18])([H:10])[H:11])([H:7])([H:8])[H:9]>>[C:1](=[C:2]([H:10])[H:11])([H:7])[H:8].[C:3]([C:4]([H:12])([H:13])[H:14])([C:5]([H:15])([H:16])[H:17])=[O:6].[H:9][H:18]"
C        1.91341914      -0.44936953      -0.68639300
C        1.11512116      -0.97705616       0.36946403
C       -0.74728240       0.19977252      -0.05419234
C       -1.85211676      -0.69319071       0.47892869
C       -0.60496751       1.49540102       0.73159571
O       -0.87448559       0.47489672      -1.33954801
H        1.91052007      -1.09532173      -1.56422837
H        2.91514006      -0.13822949      -0.39750609
H        1.64966926       0.82915055      -1.78077494
H        1.47399595      -0.84078206       1.38910718
H        0.88288487      -2.03851697       0.25492926
H       -1.55681101      -1.07618847       1.45878763
H       -2.03913952      -1.53234524      -0.19277991
H       -2.78860670      -0.15002382       0.61771960
H       -0.32573926       1.28254786       1.76490762
H       -1.54838538       2.04422389       0.77002210
H        0.14769025       2.12823062       0.26300197
H        0.32909337       0.53680099      -2.08304112
