13
Frame=0 idx=002095 GeodesicLength=0.0 rxn_smarts="[C:1]([c:2]1[c:3]([H:10])[c:4]([H:11])[c:5]([H:12])[n:6]1[H:13])([H:7])([H:8])[H:9]>>[C:1]([C+:2]1[C:3]([H:10])([H:11])[C-:4]=[C:5]([H:12])[N:6]1[H:13])([H:7])([H:8])[H:9]"
C        1.82207278       0.09138573      -0.06556787
C        0.33642823       0.06023639       0.02960586
C       -0.59347158       1.04923386       0.43730059
C       -1.98933758       0.47550293       0.49203979
C       -1.74276768      -0.79246654      -0.01153363
N       -0.39880945      -1.01810236      -0.23112172
H        2.28478258      -0.34252429       0.82475462
H        2.18638610      -0.45849544      -0.93573078
H        2.16831785       1.12048656      -0.14943682
H       -0.30457430       1.99356577       0.87936859
H       -1.31896170       1.29763378      -0.47468440
H       -2.43622654      -1.59896233      -0.20114306
H       -0.01383872      -1.87749410      -0.59385121
13
Frame=1 idx=002095 GeodesicLength=0.05529005371799471 rxn_smarts="[C:1]([c:2]1[c:3]([H:10])[c:4]([H:11])[c:5]([H:12])[n:6]1[H:13])([H:7])([H:8])[H:9]>>[C:1]([C+:2]1[C:3]([H:10])([H:11])[C-:4]=[C:5]([H:12])[N:6]1[H:13])([H:7])([H:8])[H:9]"
C        1.82268130       0.09098884      -0.06810192
C        0.33698346       0.06035168       0.02441512
C       -0.59266458       1.04974689       0.43361260
C       -1.98425566       0.47417525       0.48803413
C       -1.74217967      -0.79435441      -0.01076209
N       -0.39656752      -1.02024876      -0.23104972
H        2.28376795      -0.33351004       0.82754322
H        2.18943774      -0.46688914      -0.93212928
H        2.16926289       1.11925997      -0.16141858
H       -0.30165664       1.98331756       0.89688193
H       -1.33750101       1.31829184      -0.47602298
H       -2.43722387      -1.59714385      -0.20970758
H       -0.01008440      -1.88398582      -0.58129485
13
Frame=2 idx=002095 GeodesicLength=0.11056525695685382 rxn_smarts="[C:1]([c:2]1[c:3]([H:10])[c:4]([H:11])[c:5]([H:12])[n:6]1[H:13])([H:7])([H:8])[H:9]>>[C:1]([C+:2]1[C:3]([H:10])([H:11])[C-:4]=[C:5]([H:12])[N:6]1[H:13])([H:7])([H:8])[H:9]"
C        1.82333074       0.09057793      -0.07071903
C        0.33760131       0.06033760       0.01942042
C       -0.59179406       1.05027882       0.42982432
C       -1.97917877       0.47294785       0.48361180
C       -1.74157190      -0.79620813      -0.01017168
N       -0.39422979      -1.02256610      -0.23057179
H        2.28295971      -0.32433069       0.83011505
H        2.19241284      -0.47529780      -0.92853511
H        2.17018067       1.11794098      -0.17362526
H       -0.29877951       1.97255831       0.91425358
H       -1.35653237       1.33940839      -0.47667409
H       -2.43815156      -1.59511375      -0.21880947
H       -0.00624731      -1.89053341      -0.56811873
13
Frame=3 idx=002095 GeodesicLength=0.16584871456892833 rxn_smarts="[C:1]([c:2]1[c:3]([H:10])[c:4]([H:11])[c:5]([H:12])[n:6]1[H:13])([H:7])([H:8])[H:9]>>[C:1]([C+:2]1[C:3]([H:10])([H:11])[C-:4]=[C:5]([H:12])[N:6]1[H:13])([H:7])([H:8])[H:9]"
C        1.82402977       0.09013107      -0.07336542
C        0.33828711       0.06018783       0.01463593
C       -0.59085852       1.05084431       0.42589670
C       -1.97410530       0.47183617       0.47874387
C       -1.74094105      -0.79803345      -0.00973387
N       -0.39178971      -1.02506724      -0.22962523
H        2.28234178      -0.31500968       0.83253284
H        2.19534162      -0.48374022      -0.92488572
H        2.17109105       1.11650038      -0.18599183
H       -0.29596224       1.96134073       0.93135991
H       -1.37607859       1.36097298      -0.47664238
H       -2.43897193      -1.59296013      -0.22820578
H       -0.00238398      -1.89700275      -0.55471903
13
Frame=4 idx=002095 GeodesicLength=0.22117010286858269 rxn_smarts="[C:1]([c:2]1[c:3]([H:10])[c:4]([H:11])[c:5]([H:12])[n:6]1[H:13])([H:7])([H:8])[H:9]>>[C:1]([C+:2]1[C:3]([H:10])([H:11])[C-:4]=[C:5]([H:12])[N:6]1[H:13])([H:7])([H:8])[H:9]"
C        1.82478056       0.08964055      -0.07603950
C        0.33904116       0.05990619       0.01004560
C       -0.58985732       1.05144792       0.42182549
C       -1.96903475       0.47084135       0.47341011
C       -1.74028495      -0.79982366      -0.00948172
N       -0.38924903      -1.02774062      -0.22821072
H        2.28190563      -0.30555571       0.83479552
H        2.19823391      -0.49222631      -0.92117034
H        2.17199719       1.11491950      -0.19851327
H       -0.29322002       1.94967266       0.94817381
H       -1.39616619       1.38302776      -0.47587405
H       -2.43965011      -1.59070858      -0.23786530
H        0.00150392      -1.90340104      -0.54109563
13
Frame=5 idx=002095 GeodesicLength=0.27671723816335747 rxn_smarts="[C:1]([c:2]1[c:3]([H:10])[c:4]([H:11])[c:5]([H:12])[n:6]1[H:13])([H:7])([H:8])[H:9]>>[C:1]([C+:2]1[C:3]([H:10])([H:11])[C-:4]=[C:5]([H:12])[N:6]1[H:13])([H:7])([H:8])[H:9]"
C        1.82558325       0.08917282      -0.07897296
C        0.33985158       0.05951617       0.00541372
C       -0.58878558       1.05201344       0.41780305
C       -1.96394398       0.46987195       0.46761829
C       -1.73964618      -0.80143225      -0.00995996
N       -0.38663407      -1.03049416      -0.22679095
H        2.28165416      -0.29582186       0.83670922
H        2.20108668      -0.50080036      -0.91757363
H        2.17281963       1.11324876      -0.21150784
H       -0.29051757       1.93726597       0.96504351
H       -1.41691992       1.40598400      -0.47387451
H       -2.44020833      -1.58816950      -0.24854706
H        0.00566034      -1.91035497      -0.52536088
13
Frame=6 idx=002095 GeodesicLength=0.3317716571307715 rxn_smarts="[C:1]([c:2]1[c:3]([H:10])[c:4]([H:11])[c:5]([H:12])[n:6]1[H:13])([H:7])([H:8])[H:9]>>[C:1]([C+:2]1[C:3]([H:10])([H:11])[C-:4]=[C:5]([H:12])[N:6]1[H:13])([H:7])([H:8])[H:9]"
C        1.82642350       0.08861948      -0.08181273
C        0.34074272       0.05899499       0.00114070
C       -0.58762259       1.05266394       0.41342819
C       -1.95889066       0.46911859       0.46125149
C       -1.73897708      -0.80308362      -0.01029041
N       -0.38387101      -1.03357974      -0.22436800
H        2.28159742      -0.28584426       0.83865607
H        2.20390967      -0.50953875      -0.91370267
H        2.17369353       1.11146290      -0.22472611
H       -0.28790971       1.92444547       0.98146772
H       -1.43812599       1.42906988      -0.47119242
H       -2.44065179      -1.58553571      -0.25922650
H        0.00968198      -1.91679317      -0.51062532
13
Frame=7 idx=002095 GeodesicLength=0.3872115821444877 rxn_smarts="[C:1]([c:2]1[c:3]([H:10])[c:4]([H:11])[c:5]([H:12])[n:6]1[H:13])([H:7])([H:8])[H:9]>>[C:1]([C+:2]1[C:3]([H:10])([H:11])[C-:4]=[C:5]([H:12])[N:6]1[H:13])([H:7])([H:8])[H:9]"
C        1.82734813       0.08798392      -0.08462701
C        0.34172407       0.05828217      -0.00285648
C       -0.58639445       1.05333649       0.40896326
C       -1.95381856       0.46847215       0.45438122
C       -1.73826252      -0.80472364      -0.01075464
N       -0.38100721      -1.03682435      -0.22137013
H        2.28177578      -0.27581800       0.84043391
H        2.20670591      -0.51829898      -0.90974667
H        2.17455509       1.10942643      -0.23797301
H       -0.28544380       1.91142787       0.99723145
H       -1.46000477       1.45274049      -0.46759777
H       -2.44085253      -1.58289348      -0.27013175
H        0.01367487      -1.92311107      -0.49595238
13
Frame=8 idx=002095 GeodesicLength=0.4426944161893499 rxn_smarts="[C:1]([c:2]1[c:3]([H:10])[c:4]([H:11])[c:5]([H:12])[n:6]1[H:13])([H:7])([H:8])[H:9]>>[C:1]([C+:2]1[C:3]([H:10])([H:11])[C-:4]=[C:5]([H:12])[N:6]1[H:13])([H:7])([H:8])[H:9]"
C        1.82834155       0.08727058      -0.08745007
C        0.34279073       0.05741905      -0.00664963
C       -0.58508696       1.05405210       0.40431464
C       -1.94874428       0.46796886       0.44690611
C       -1.73751350      -0.80631338      -0.01146020
N       -0.37803615      -1.04025195      -0.21780147
H        2.28214403      -0.26565272       0.84207794
H        2.20949593      -0.52716283      -0.90567611
H        2.17542495       1.10719792      -0.25139274
H       -0.28310584       1.89806374       1.01249514
H       -1.48255850       1.47698004      -0.46291028
H       -2.44083070      -1.58020793      -0.28129238
H        0.01767873      -1.92936347      -0.48116095
13
Frame=9 idx=002095 GeodesicLength=0.497904836613074 rxn_smarts="[C:1]([c:2]1[c:3]([H:10])[c:4]([H:11])[c:5]([H:12])[n:6]1[H:13])([H:7])([H:8])[H:9]>>[C:1]([C+:2]1[C:3]([H:10])([H:11])[C-:4]=[C:5]([H:12])[N:6]1[H:13])([H:7])([H:8])[H:9]"
C        1.82941415       0.08647116      -0.09026739
C        0.34395132       0.05639792      -0.01023305
C       -0.58370012       1.05484235       0.39934164
C       -1.94364458       0.46760991       0.43877804
C       -1.73674160      -0.80783033      -0.01250674
N       -0.37494092      -1.04389646      -0.21353033
H        2.28270384      -0.25528242       0.84363989
H        2.21230165      -0.53619729      -0.90143008
H        2.17631512       1.10476185      -0.26504738
H       -0.28089304       1.88436546       1.02722082
H       -1.50584089       1.50176501      -0.45690658
H       -2.44059815      -1.57750131      -0.29267621
H        0.02167321      -1.93550584      -0.46638263
13
Frame=10 idx=002095 GeodesicLength=0.5531236978576322 rxn_smarts="[C:1]([c:2]1[c:3]([H:10])[c:4]([H:11])[c:5]([H:12])[n:6]1[H:13])([H:7])([H:8])[H:9]>>[C:1]([C+:2]1[C:3]([H:10])([H:11])[C-:4]=[C:5]([H:12])[N:6]1[H:13])([H:7])([H:8])[H:9]"
C        1.83056488       0.08557412      -0.09308725
C        0.34520314       0.05523651      -0.01365968
C       -0.58222428       1.05569278       0.39411988
C       -1.93853071       0.46741333       0.42995400
C       -1.73592049      -0.80929089      -0.01382200
N       -0.37174620      -1.04769240      -0.20869328
H        2.28342750      -0.24476885       0.84508417
H        2.21512947      -0.54537812      -0.89702113
H        2.17724052       1.10208640      -0.27888585
H       -0.27883545       1.87037678       1.04134683
H       -1.52989340       1.52713780      -0.44954187
H       -2.44009236      -1.57479227      -0.30431151
H        0.02567738      -1.94159519      -0.45148229
13
Frame=11 idx=002095 GeodesicLength=0.608388054935559 rxn_smarts="[C:1]([c:2]1[c:3]([H:10])[c:4]([H:11])[c:5]([H:12])[n:6]1[H:13])([H:7])([H:8])[H:9]>>[C:1]([C+:2]1[C:3]([H:10])([H:11])[C-:4]=[C:5]([H:12])[N:6]1[H:13])([H:7])([H:8])[H:9]"
C        1.83180278       0.08456802      -0.09588425
C        0.34655213       0.05393721      -0.01694582
C       -0.58065584       1.05661183       0.38860059
C       -1.93339294       0.46738403       0.42040077
C       -1.73505184      -0.81070062      -0.01537857
N       -0.36844813      -1.05163037      -0.20330538
H        2.28429563      -0.23412884       0.84644544
H        2.21800619      -0.55471602      -0.89241326
H        2.17822657       1.09915409      -0.29287217
H       -0.27693967       1.85615745       1.05478700
H       -1.55476227       1.55308438      -0.44072853
H       -2.43931272      -1.57211556      -0.31610957
H        0.02968011      -1.94760560      -0.43659625
13
Frame=12 idx=002095 GeodesicLength=0.663674836239047 rxn_smarts="[C:1]([c:2]1[c:3]([H:10])[c:4]([H:11])[c:5]([H:12])[n:6]1[H:13])([H:7])([H:8])[H:9]>>[C:1]([C+:2]1[C:3]([H:10])([H:11])[C-:4]=[C:5]([H:12])[N:6]1[H:13])([H:7])([H:8])[H:9]"
C        1.83313024       0.08344034      -0.09866611
C        0.34799986       0.05250678      -0.02012581
C       -0.57899057       1.05761146       0.38274079
C       -1.92822081       0.46752813       0.41005858
C       -1.73411859      -0.81206108      -0.01717791
N       -0.36505805      -1.05568614      -0.19738708
H        2.28529066      -0.22334696       0.84772367
H        2.22094367      -0.56424673      -0.88757878
H        2.17928472       1.09593418      -0.30703623
H       -0.27521889       1.84173387       1.06749998
H       -1.58051082       1.57961120      -0.43027653
H       -2.43821462      -1.56946825      -0.32813783
H        0.03368320      -1.95355681      -0.42163676
13
Frame=13 idx=002095 GeodesicLength=0.719015060000012 rxn_smarts="[C:1]([c:2]1[c:3]([H:10])[c:4]([H:11])[c:5]([H:12])[n:6]1[H:13])([H:7])([H:8])[H:9]>>[C:1]([C+:2]1[C:3]([H:10])([H:11])[C-:4]=[C:5]([H:12])[N:6]1[H:13])([H:7])([H:8])[H:9]"
C        1.83455632       0.08218443      -0.10142097
C        0.34955366       0.05094154      -0.02320322
C       -0.57722134       1.05869603       0.37649756
C       -1.92300758       0.46786663       0.39883989
C       -1.73312916      -0.81336445      -0.01925457
N       -0.36156947      -1.05986107      -0.19090642
H        2.28641166      -0.21242716       0.84893731
H        2.22395489      -0.57398030      -0.88250304
H        2.18043347       1.09241941      -0.32136885
H       -0.27368840       1.82714919       1.07943970
H       -1.60716290       1.60670466      -0.41806055
H       -2.43681565      -1.56688856      -0.34033280
H        0.03768449      -1.95944034      -0.40666404
13
Frame=14 idx=002095 GeodesicLength=0.7743681951041446 rxn_smarts="[C:1]([c:2]1[c:3]([H:10])[c:4]([H:11])[c:5]([H:12])[n:6]1[H:13])([H:7])([H:8])[H:9]>>[C:1]([C+:2]1[C:3]([H:10])([H:11])[C-:4]=[C:5]([H:12])[N:6]1[H:13])([H:7])([H:8])[H:9]"
C        1.83608632       0.08078771      -0.10415220
C        0.35121612       0.04925485      -0.02622906
C       -0.57534352       1.05988560       0.36980600
C       -1.91774268       0.46841401       0.38664859
C       -1.73206500      -0.81460800      -0.02160283
N       -0.35799728      -1.06411600      -0.18393012
H        2.28762954      -0.20135516       0.85008876
H        2.22706084      -0.58395363      -0.87714332
H        2.18169433       1.08856838      -0.33589388
H       -0.27236427       1.81242385       1.09055558
H       -1.63478829       1.63434897      -0.40383855
H       -2.43506959      -1.56437955      -0.35273414
H        0.04168348      -1.96527103      -0.39157482
13
Frame=15 idx=002095 GeodesicLength=0.82973071670834 rxn_smarts="[C:1]([c:2]1[c:3]([H:10])[c:4]([H:11])[c:5]([H:12])[n:6]1[H:13])([H:7])([H:8])[H:9]>>[C:1]([C+:2]1[C:3]([H:10])([H:11])[C-:4]=[C:5]([H:12])[N:6]1[H:13])([H:7])([H:8])[H:9]"
C        1.83772501       0.07924510      -0.10688040
C        0.35299139       0.04745050      -0.02923287
C       -0.57334766       1.06118902       0.36261946
C       -1.91241863       0.46919977       0.37334939
C       -1.73092836      -0.81578277      -0.02426280
N       -0.35434469      -1.06843727      -0.17644728
H        2.28894330      -0.19010132       0.85116241
H        2.23026485      -0.59419950      -0.87148708
H        2.18307748       1.08436017      -0.35066741
H       -0.27126606       1.79756087       1.10083491
H       -1.66342946       1.66252148      -0.38735490
H       -2.43295654      -1.56192977      -0.36544653
H        0.04568936      -1.97107629      -0.37618691
13
Frame=16 idx=002095 GeodesicLength=0.8850783675943881 rxn_smarts="[C:1]([c:2]1[c:3]([H:10])[c:4]([H:11])[c:5]([H:12])[n:6]1[H:13])([H:7])([H:8])[H:9]>>[C:1]([C+:2]1[C:3]([H:10])([H:11])[C-:4]=[C:5]([H:12])[N:6]1[H:13])([H:7])([H:8])[H:9]"
C        1.83948195       0.07754732      -0.10960089
C        0.35488678       0.04553836      -0.03224898
C       -0.57122206       1.06262956       0.35485804
C       -1.90702488       0.47027431       0.35875476
C       -1.72972184      -0.81686925      -0.02727035
N       -0.35061504      -1.07280648      -0.16845433
H        2.29033522      -0.17866979       0.85217126
H        2.23358359      -0.60473560      -0.86551167
H        2.18461372       1.07977473      -0.36568323
H       -0.27042276       1.78257970       1.11022591
H       -1.69312275       1.69116311      -0.36835256
H       -2.43046841      -1.55957626      -0.37840788
H        0.04969648      -1.97684970      -0.36048009
