14
Frame=0 idx=010984 GeodesicLength=0.0 rxn_smarts="[O:1]=[C:2]([C:3]12[C:4]([H:9])([H:10])[N:5]([C:6]1([H:11])[H:12])[C:7]2([H:13])[H:14])[H:8]>>[O:1]=[C:2]([C:3]12[C:4]([H:9])([H:10])[N+:5]([H:14])([C:6]1([H:11])[H:12])[C-:7]2[H:13])[H:8]"
O        2.73115532       0.32129059      -0.31866545
C        1.63615095       0.58737163      -0.73368361
C        0.38522624       0.02315448      -0.14919306
C       -0.80648152      -0.59781314      -0.88663089
N       -1.44095912      -0.48341205       0.47367600
C       -0.68684819       0.82596806       0.60428570
C        0.46734646      -1.09547507       0.90993368
H        1.50097559       1.29700658      -1.57705806
H       -1.33552938       0.03159423      -1.60297836
H       -0.68885163      -1.62015997      -1.24263794
H       -1.22269441       1.61564014       0.06533574
H       -0.45946539       1.13981374       1.62103676
H        0.72898622      -0.64771063       1.88197290
H       -0.80901111      -1.39726861       0.95460653
14
Frame=1 idx=010984 GeodesicLength=0.07983548763684103 rxn_smarts="[O:1]=[C:2]([C:3]12[C:4]([H:9])([H:10])[N:5]([C:6]1([H:11])[H:12])[C:7]2([H:13])[H:14])[H:8]>>[O:1]=[C:2]([C:3]12[C:4]([H:9])([H:10])[N+:5]([H:14])([C:6]1([H:11])[H:12])[C-:7]2[H:13])[H:8]"
O        2.73164608       0.36317849      -0.29257919
C        1.63926678       0.58721765      -0.73841605
C        0.38763835       0.02790364      -0.15244267
C       -0.80701085      -0.59234226      -0.88666595
N       -1.42361363      -0.48471353       0.48192808
C       -0.68108429       0.83001233       0.60701504
C        0.45293282      -1.09261903       0.90610136
H        1.50859535       1.26076751      -1.61153447
H       -1.34346210       0.03891835      -1.59598623
H       -0.68907112      -1.61270279      -1.24800271
H       -1.22247165       1.61755875       0.07077905
H       -0.44947514       1.14420140       1.62273610
H        0.71813015      -0.65496609       1.88137570
H       -0.82202076      -1.43241440       0.95569194
14
Frame=2 idx=010984 GeodesicLength=0.15975346992206033 rxn_smarts="[O:1]=[C:2]([C:3]12[C:4]([H:9])([H:10])[N:5]([C:6]1([H:11])[H:12])[C:7]2([H:13])[H:14])[H:8]>>[O:1]=[C:2]([C:3]12[C:4]([H:9])([H:10])[N+:5]([H:14])([C:6]1([H:11])[H:12])[C-:7]2[H:13])[H:8]"
O        2.73085458       0.40578471      -0.26832542
C        1.64251406       0.58719475      -0.74271602
C        0.39008084       0.03277830      -0.15552411
C       -0.80747980      -0.58675203      -0.88666535
N       -1.40621451      -0.48634945       0.49002652
C       -0.67557958       0.83398048       0.60974456
C        0.43852601      -1.08984899       0.90224251
H        1.51749542       1.22297061      -1.64443895
H       -1.35133951       0.04628580      -1.58886877
H       -0.68917070      -1.60509231      -1.25333782
H       -1.22264001       1.61930043       0.07630265
H       -0.43974894       1.14840715       1.62445675
H        0.70757308      -0.66227871       1.88055729
H       -0.83487095      -1.46638075       0.95654617
14
Frame=3 idx=010984 GeodesicLength=0.2397404454245503 rxn_smarts="[O:1]=[C:2]([C:3]12[C:4]([H:9])([H:10])[N:5]([C:6]1([H:11])[H:12])[C:7]2([H:13])[H:14])[H:8]>>[O:1]=[C:2]([C:3]12[C:4]([H:9])([H:10])[N+:5]([H:14])([C:6]1([H:11])[H:12])[C-:7]2[H:13])[H:8]"
O        2.72885489       0.44902538      -0.24599541
C        1.64584161       0.58734360      -0.74661186
C        0.39254411       0.03775274      -0.15842721
C       -0.80787466      -0.58105959      -0.88664800
N       -1.38886148      -0.48825189       0.49788098
C       -0.67033320       0.83783852       0.61249934
C        0.42419449      -1.08717232       0.89835142
H        1.52758672       1.18371045      -1.67569372
H       -1.35908781       0.05367997      -1.58168751
H       -0.68915062      -1.59735636      -1.25862528
H       -1.22312698       1.62088311       0.08193609
H       -0.43031882       1.15236227       1.62624171
H        0.69732283      -0.66965205       1.87952177
H       -0.84759108      -1.49910381       0.95725767
14
Frame=4 idx=010984 GeodesicLength=0.3197768315593012 rxn_smarts="[O:1]=[C:2]([C:3]12[C:4]([H:9])([H:10])[N:5]([C:6]1([H:11])[H:12])[C:7]2([H:13])[H:14])[H:8]>>[O:1]=[C:2]([C:3]12[C:4]([H:9])([H:10])[N+:5]([H:14])([C:6]1([H:11])[H:12])[C-:7]2[H:13])[H:8]"
O        2.72568991       0.49290449      -0.22562777
C        1.64920123       0.58770466      -0.75014096
C        0.39501787       0.04280983      -0.16115009
C       -0.80819105      -0.57527233      -0.88663124
N       -1.37163735      -0.49036161       0.50542114
C       -0.66533667       0.84155942       0.61530779
C        0.41000121      -1.08459593       0.89441342
H        1.53882348       1.14299101      -1.70525427
H       -1.36665550       0.06109909      -1.57449073
H       -0.68902128      -1.58951171      -1.26385749
H       -1.22386621       1.62232750       0.08771606
H       -0.42119769       1.15600593       1.62813515
H        0.68738428      -0.67710104       1.87826529
H       -0.86021223      -1.53055932       0.95789373
14
Frame=5 idx=010984 GeodesicLength=0.39985331260491713 rxn_smarts="[O:1]=[C:2]([C:3]12[C:4]([H:9])([H:10])[N:5]([C:6]1([H:11])[H:12])[C:7]2([H:13])[H:14])[H:8]>>[O:1]=[C:2]([C:3]12[C:4]([H:9])([H:10])[N+:5]([H:14])([C:6]1([H:11])[H:12])[C-:7]2[H:13])[H:8]"
O        2.72144086       0.53734324      -0.20732116
C        1.65255276       0.58831145      -0.75333663
C        0.39749603       0.04793315      -0.16368962
C       -0.80841749      -0.56940303      -0.88663176
N       -1.35461417      -0.49262658       0.51259774
C       -0.66058423       0.84512283       0.61818649
C        0.39598966      -1.08211855       0.89042022
H        1.55114277       1.10091929      -1.73302591
H       -1.37399312       0.06853438      -1.56732211
H       -0.68877978      -1.58158115      -1.26902809
H       -1.22480369       1.62364547       0.09365800
H       -0.41240317       1.15929887       1.63016381
H        0.67773897      -0.68462199       1.87679938
H       -0.87276541      -1.56075738       0.95852964
14
Frame=6 idx=010984 GeodesicLength=0.4799373764193395 rxn_smarts="[O:1]=[C:2]([C:3]12[C:4]([H:9])([H:10])[N:5]([C:6]1([H:11])[H:12])[C:7]2([H:13])[H:14])[H:8]>>[O:1]=[C:2]([C:3]12[C:4]([H:9])([H:10])[N+:5]([H:14])([C:6]1([H:11])[H:12])[C-:7]2[H:13])[H:8]"
O        2.71612675       0.58237684      -0.19112980
C        1.65585378       0.58918340      -0.75625632
C        0.39996779       0.05310933      -0.16605442
C       -0.80856041      -0.56345834      -0.88666221
N       -1.33784598      -0.49500470       0.51937578
C       -0.65606229       0.84851382       0.62115306
C        0.38220148      -1.07974388       0.88635500
H        1.56456391       1.05750479      -1.75890436
H       -1.38108599       0.07598804      -1.56021116
H       -0.68844470      -1.57357900      -1.27413663
H       -1.22588991       1.62485374       0.09978332
H       -0.40392760       1.16220784       1.63235396
H        0.66837773      -0.69222795       1.87511969
H       -0.88527454      -1.58972393       0.95921409
14
Frame=7 idx=010984 GeodesicLength=0.5600311614638923 rxn_smarts="[O:1]=[C:2]([C:3]12[C:4]([H:9])([H:10])[N:5]([C:6]1([H:11])[H:12])[C:7]2([H:13])[H:14])[H:8]>>[O:1]=[C:2]([C:3]12[C:4]([H:9])([H:10])[N+:5]([H:14])([C:6]1([H:11])[H:12])[C-:7]2[H:13])[H:8]"
O        2.70979076       0.62797886      -0.17712811
C        1.65906719       0.59032986      -0.75896094
C        0.40242484       0.05832472      -0.16825748
C       -0.80862239      -0.55744688      -0.88673344
N       -1.32137191      -0.49745648       0.52573498
C       -0.65175756       0.85172113       0.62421268
C        0.36866690      -1.07747003       0.88220359
H        1.57909239       1.01284085      -1.78274832
H       -1.38792505       0.08345627      -1.55318408
H       -0.68803068      -1.56552218      -1.27917725
H       -1.22708476       1.62596059       0.10609998
H       -0.39576319       1.16471252       1.63471102
H        0.65928548      -0.69991673       1.87322153
H       -0.89777201      -1.61751252       0.96000584
14
Frame=8 idx=010984 GeodesicLength=0.6401274176152617 rxn_smarts="[O:1]=[C:2]([C:3]12[C:4]([H:9])([H:10])[N:5]([C:6]1([H:11])[H:12])[C:7]2([H:13])[H:14])[H:8]>>[O:1]=[C:2]([C:3]12[C:4]([H:9])([H:10])[N+:5]([H:14])([C:6]1([H:11])[H:12])[C-:7]2[H:13])[H:8]"
O        2.70244209       0.67418849      -0.16541630
C        1.66216008       0.59176037      -0.76149814
C        0.40485921       0.06357116      -0.17030667
C       -0.80860921      -0.55136890      -0.88685513
N       -1.30522245      -0.49995569       0.53165982
C       -0.64765582       0.85473696       0.62737796
C        0.35541117      -1.07529463       0.87795532
H        1.59478013       0.96694318      -1.80442578
H       -1.39450884       0.09094705      -1.54625858
H       -0.68755218      -1.55741311      -1.28415643
H       -1.22835699       1.62697771       0.11262793
H       -0.38789576       1.16679331       1.63724801
H        0.65044370      -0.70769983       1.87110646
H       -0.91029514      -1.64418608       0.96094153
14
Frame=9 idx=010984 GeodesicLength=0.7201792763874739 rxn_smarts="[O:1]=[C:2]([C:3]12[C:4]([H:9])([H:10])[N:5]([C:6]1([H:11])[H:12])[C:7]2([H:13])[H:14])[H:8]>>[O:1]=[C:2]([C:3]12[C:4]([H:9])([H:10])[N+:5]([H:14])([C:6]1([H:11])[H:12])[C-:7]2[H:13])[H:8]"
O        2.69404770       0.72087162      -0.15584465
C        1.66514400       0.59359940      -0.76389949
C        0.40730663       0.06887167      -0.17220156
C       -0.80848238      -0.54520471      -0.88704491
N       -1.28940037      -0.50246465       0.53714912
C       -0.64372347       0.85757020       0.63065948
C        0.34244690      -1.07321881       0.87357258
H        1.61133085       0.91971676      -1.82398181
H       -1.40078666       0.09851240      -1.53944903
H       -0.68696379      -1.54924242      -1.28910492
H       -1.22965375       1.62792678       0.11935789
H       -0.38030796       1.16844534       1.63999809
H        0.64182930      -0.71556696       1.86878741
H       -0.92278699      -1.66981663       0.96200180
14
Frame=10 idx=010984 GeodesicLength=0.8002074819831774 rxn_smarts="[O:1]=[C:2]([C:3]12[C:4]([H:9])([H:10])[N:5]([C:6]1([H:11])[H:12])[C:7]2([H:13])[H:14])[H:8]>>[O:1]=[C:2]([C:3]12[C:4]([H:9])([H:10])[N+:5]([H:14])([C:6]1([H:11])[H:12])[C-:7]2[H:13])[H:8]"
O        2.68462069       0.76821607      -0.14860434
C        1.66796963       0.59573974      -0.76623586
C        0.40973187       0.07419458      -0.17396592
C       -0.80828723      -0.53896709      -0.88730335
N       -1.27392468      -0.50498000       0.54219769
C       -0.63994737       0.86021162       0.63406587
C        0.32979393      -1.07124901       0.86906661
H        1.62903102       0.87127124      -1.84119923
H       -1.40681849       0.10612981      -1.53275487
H       -0.68633335      -1.54101535      -1.29402124
H       -1.23095866       1.62881386       0.12632030
H       -0.37295931       1.16966143       1.64295152
H        0.63343635      -0.72355297       1.86625138
H       -0.93535441      -1.69447391       0.96323143
14
Frame=11 idx=010984 GeodesicLength=0.8802218206214854 rxn_smarts="[O:1]=[C:2]([C:3]12[C:4]([H:9])([H:10])[N:5]([C:6]1([H:11])[H:12])[C:7]2([H:13])[H:14])[H:8]>>[O:1]=[C:2]([C:3]12[C:4]([H:9])([H:10])[N+:5]([H:14])([C:6]1([H:11])[H:12])[C-:7]2[H:13])[H:8]"
O        2.67415708       0.81619495      -0.14372018
C        1.67064202       0.59813701      -0.76856353
C        0.41214547       0.07951643      -0.17561523
C       -0.80802160      -0.53266551      -0.88763731
N       -1.25879932      -0.50747641       0.54681680
C       -0.63629347       0.86265856       0.63758474
C        0.31744793      -1.06939349       0.86442406
H        1.64781859       0.82178000      -1.85594854
H       -1.41259812       0.11379866      -1.52618282
H       -0.68568079      -1.53274941      -1.29890555
H       -1.23221778       1.62964344       0.13349333
H       -0.36580773       1.17044449       1.64608953
H        0.62524155      -0.73166268       1.86349621
H       -0.94803382      -1.71822606       0.96466849
14
Frame=12 idx=010984 GeodesicLength=0.9602258028182564 rxn_smarts="[O:1]=[C:2]([C:3]12[C:4]([H:9])([H:10])[N:5]([C:6]1([H:11])[H:12])[C:7]2([H:13])[H:14])[H:8]>>[O:1]=[C:2]([C:3]12[C:4]([H:9])([H:10])[N+:5]([H:14])([C:6]1([H:11])[H:12])[C-:7]2[H:13])[H:8]"
O        2.66261764       0.86481277      -0.14129377
C        1.67316037       0.60075738      -0.77092638
C        0.41455351       0.08482295      -0.17715764
C       -0.80768762      -0.52630213      -0.88805157
N       -1.24402474      -0.50994379       0.55101432
C       -0.63273282       0.86491571       0.64121550
C        0.30540256      -1.06765788       0.85964455
H        1.66770939       0.77134802      -1.86807538
H       -1.41813227       0.12152663      -1.51973255
H       -0.68501970      -1.52444825      -1.30376829
H       -1.23339551       1.63042810       0.14086985
H       -0.35881501       1.17080158       1.64940974
H        0.61721655      -0.73991149       1.86053131
H       -0.96085237      -1.74114959       0.96632031
14
Frame=13 idx=010984 GeodesicLength=1.0402356519277904 rxn_smarts="[O:1]=[C:2]([C:3]12[C:4]([H:9])([H:10])[N:5]([C:6]1([H:11])[H:12])[C:7]2([H:13])[H:14])[H:8]>>[O:1]=[C:2]([C:3]12[C:4]([H:9])([H:10])[N+:5]([H:14])([C:6]1([H:11])[H:12])[C-:7]2[H:13])[H:8]"
O        2.64998290       0.91397001      -0.14129793
C        1.67555383       0.60357124      -0.77336562
C        0.41698255       0.09009320      -0.17860141
C       -0.80726795      -0.51988515      -0.88855010
N       -1.22959146      -0.51235568       0.55480614
C       -0.62922325       0.86698606       0.64493915
C        0.29364145      -1.06605146       0.85471892
H        1.68852519       0.72017956      -1.87750420
H       -1.42339050       0.12931742      -1.51341309
H       -0.68435106      -1.51612786      -1.30860751
H       -1.23442783       1.63117539       0.14840574
H       -0.35193879       1.17074191       1.65289574
H        0.60932819      -0.74830023       1.85736585
H       -0.97382327      -1.76331441       0.96820831
14
Frame=14 idx=010984 GeodesicLength=1.1202728162345088 rxn_smarts="[O:1]=[C:2]([C:3]12[C:4]([H:9])([H:10])[N:5]([C:6]1([H:11])[H:12])[C:7]2([H:13])[H:14])[H:8]>>[O:1]=[C:2]([C:3]12[C:4]([H:9])([H:10])[N+:5]([H:14])([C:6]1([H:11])[H:12])[C-:7]2[H:13])[H:8]"
O        2.63620007       0.96376671      -0.14396189
C        1.67779959       0.60653834      -0.77590740
C        0.41942212       0.09531788      -0.17995189
C       -0.80677949      -0.51340751      -0.88913651
N       -1.21549238      -0.51472818       0.55819731
C       -0.62575021       0.86886950       0.64877432
C        0.28216252      -1.06458407       0.84965481
H        1.71047692       0.66830866      -1.88404178
H       -1.42841562       0.13718613      -1.50720692
H       -0.68370075      -1.50777573      -1.31344533
H       -1.23531202       1.63189334       0.15613593
H       -0.34514866       1.17026350       1.65655803
H        0.60156425      -0.75686073       1.85400592
H       -0.98702636      -1.78478786       0.97032538
14
Frame=15 idx=010984 GeodesicLength=1.2003650405716846 rxn_smarts="[O:1]=[C:2]([C:3]12[C:4]([H:9])([H:10])[N:5]([C:6]1([H:11])[H:12])[C:7]2([H:13])[H:14])[H:8]>>[O:1]=[C:2]([C:3]12[C:4]([H:9])([H:10])[N+:5]([H:14])([C:6]1([H:11])[H:12])[C-:7]2[H:13])[H:8]"
O        2.62123376       1.01416055      -0.14935506
C        1.67993336       0.60957760      -0.77857068
C        0.42189468       0.10046235      -0.18121051
C       -0.80621185      -0.50688104      -0.88981164
N       -1.20172076      -0.51704962       0.56120564
C       -0.62227111       0.87056618       0.65270619
C        0.27093619      -1.06327216       0.84445689
H        1.73347943       0.61599063      -1.88759050
H       -1.43318549       0.14513286      -1.50111560
H       -0.68308243      -1.49940914      -1.31827918
H       -1.23598435       1.63258925       0.16402448
H       -0.33839766       1.16937350       1.66038043
H        0.59388396      -0.76561182       1.85046743
H       -1.00050773      -1.80562914       0.97269211
14
Frame=16 idx=010984 GeodesicLength=1.280539726537057 rxn_smarts="[O:1]=[C:2]([C:3]12[C:4]([H:9])([H:10])[N:5]([C:6]1([H:11])[H:12])[C:7]2([H:13])[H:14])[H:8]>>[O:1]=[C:2]([C:3]12[C:4]([H:9])([H:10])[N+:5]([H:14])([C:6]1([H:11])[H:12])[C-:7]2[H:13])[H:8]"
O        2.60500046       1.06516234      -0.15759663
C        1.68198151       0.61263048      -0.78136714
C        0.42441852       0.10550184      -0.18237692
C       -0.80555814      -0.50030598      -0.89057763
N       -1.18826357      -0.51931787       0.56384020
C       -0.61874888       0.87207608       0.65673457
C        0.25994556      -1.06213215       0.83913073
H        1.75752830       0.56337314      -1.88803206
H       -1.43769082       0.15317232      -1.49513690
H       -0.68250900      -1.49102916      -1.32311784
H       -1.23639650       1.63327670       0.17206336
H       -0.33164205       1.16806931       1.66436305
H        0.58626275      -0.77458275       1.84676319
H       -1.01432813      -1.82589429       0.97531001
