11
Frame=0 idx=006985 GeodesicLength=0.0 rxn_smarts="[N:1]([c:2]1[c:3]([H:10])[n:4][c:5]([H:11])[n:6][n:7]1)([H:8])[H:9]>>[N:1]([C@:2]12[C@:3]3([H:10])[N:4]=[C:5]([H:11])[N:6]1[N:7]23)([H:8])[H:9]"
N        1.77378461      -0.58667577      -0.35582849
C        0.55720783      -0.07703731      -0.27407674
C       -0.11439451       1.09214877       0.29964545
N       -1.24855185       0.92507167       0.99668574
C       -1.71365499      -0.22570879       0.57228955
N       -1.15824817      -0.78773864      -0.51049681
N       -0.32111240       0.15573632      -1.25855580
H        2.31045220      -0.76449383       0.47405900
H        2.05430653      -1.02853776      -1.21714975
H        0.38666052       2.04799335       0.21445463
H       -2.52644975      -0.75075798       1.05897319
11
Frame=1 idx=006985 GeodesicLength=0.021868830688309977 rxn_smarts="[N:1]([c:2]1[c:3]([H:10])[n:4][c:5]([H:11])[n:6][n:7]1)([H:8])[H:9]>>[N:1]([C@:2]12[C@:3]3([H:10])[N:4]=[C:5]([H:11])[N:6]1[N:7]23)([H:8])[H:9]"
N        1.78132715      -0.57426440      -0.36177745
C        0.55489763      -0.08280532      -0.26977129
C       -0.11205226       1.08955444       0.29924245
N       -1.24818424       0.92325526       0.99659084
C       -1.71938393      -0.22373519       0.57018095
N       -1.15644340      -0.79416346      -0.50672048
N       -0.32320603       0.14633862      -1.25654975
H        2.31925895      -0.75080106       0.46761480
H        2.04870153      -1.03519447      -1.21719384
H        0.39421109       2.04366001       0.22596750
H       -2.53912649      -0.74184443       1.05241625
11
Frame=2 idx=006985 GeodesicLength=0.043712537770009996 rxn_smarts="[N:1]([c:2]1[c:3]([H:10])[n:4][c:5]([H:11])[n:6][n:7]1)([H:8])[H:9]>>[N:1]([C@:2]12[C@:3]3([H:10])[N:4]=[C:5]([H:11])[N:6]1[N:7]23)([H:8])[H:9]"
N        1.78837229      -0.56241585      -0.36787055
C        0.55258769      -0.08885730      -0.26544225
C       -0.10962892       1.08678166       0.29872667
N       -1.24762635       0.92135323       0.99660697
C       -1.72499664      -0.22182845       0.56833559
N       -1.15477343      -0.80081135      -0.50259202
N       -0.32542688       0.13652101      -1.25443460
H        2.32819444      -0.73654269       0.46085591
H        2.04378624      -1.04091687      -1.21720520
H        0.40196625       2.03892307       0.23761128
H       -2.55245467      -0.73220647       1.04540819
11
Frame=3 idx=006985 GeodesicLength=0.0655641841470715 rxn_smarts="[N:1]([c:2]1[c:3]([H:10])[n:4][c:5]([H:11])[n:6][n:7]1)([H:8])[H:9]>>[N:1]([C@:2]12[C@:3]3([H:10])[N:4]=[C:5]([H:11])[N:6]1[N:7]23)([H:8])[H:9]"
N        1.79506331      -0.55093201      -0.37421768
C        0.55036040      -0.09514786      -0.26106737
C       -0.10712271       1.08380643       0.29816098
N       -1.24678970       0.91921961       0.99691021
C       -1.73033412      -0.22017782       0.56696789
N       -1.15309507      -0.80783155      -0.49792623
N       -0.32780715       0.12621782      -1.25211138
H        2.33746387      -0.72147057       0.45362716
H        2.03938755      -1.04601795      -1.21722288
H        0.40983037       2.03379834       0.24942674
H       -2.56695674      -0.72146443       1.03745257
11
Frame=4 idx=006985 GeodesicLength=0.0874503815502908 rxn_smarts="[N:1]([c:2]1[c:3]([H:10])[n:4][c:5]([H:11])[n:6][n:7]1)([H:8])[H:9]>>[N:1]([C@:2]12[C@:3]3([H:10])[N:4]=[C:5]([H:11])[N:6]1[N:7]23)([H:8])[H:9]"
N        1.80149064      -0.53967410      -0.38091366
C        0.54827390      -0.10164638      -0.25662503
C       -0.10453634       1.08061035       0.29759806
N       -1.24561288       0.91674601       0.99763763
C       -1.73528686      -0.21892384       0.56624391
N       -1.15130416      -0.81533102      -0.49258083
N       -0.33037197       0.11538117      -1.24949878
H        2.34721370      -0.70536146       0.44578746
H        2.03536641      -1.05076037      -1.21724865
H        0.41773863       2.02829187       0.26146032
H       -2.58297108      -0.70933222       1.02813957
11
Frame=5 idx=006985 GeodesicLength=0.10939819736595599 rxn_smarts="[N:1]([c:2]1[c:3]([H:10])[n:4][c:5]([H:11])[n:6][n:7]1)([H:8])[H:9]>>[N:1]([C@:2]12[C@:3]3([H:10])[N:4]=[C:5]([H:11])[N:6]1[N:7]23)([H:8])[H:9]"
N        1.80771504      -0.52853334      -0.38804539
C        0.54637104      -0.10833653      -0.25209347
C       -0.10188031       1.07717242       0.29707889
N       -1.24404524       0.91383155       0.99891533
C       -1.73976972      -0.21820092       0.56632752
N       -1.14932167      -0.82341232      -0.48641858
N       -0.33315492       0.10395249      -1.24652163
H        2.35754570      -0.68803016       0.43720585
H        2.03162795      -1.05532807      -1.21727505
H        0.42563915       2.02239852       0.27375387
H       -2.60072701      -0.69551362       1.01707265
11
Frame=6 idx=006985 GeodesicLength=0.13143588132619738 rxn_smarts="[N:1]([c:2]1[c:3]([H:10])[n:4][c:5]([H:11])[n:6][n:7]1)([H:8])[H:9]>>[N:1]([C@:2]12[C@:3]3([H:10])[N:4]=[C:5]([H:11])[N:6]1[N:7]23)([H:8])[H:9]"
N        1.81376283      -0.51742945      -0.39568557
C        0.54467682      -0.11521479      -0.24745472
C       -0.09916888       1.07347237       0.29663275
N       -1.24206271       0.91039947       1.00082467
C       -1.74372997      -0.21812664       0.56734146
N       -1.14709520      -0.83215928      -0.47934547
N       -0.33618095       0.09187806      -1.24312682
H        2.36850750      -0.66930936       0.42777371
H        2.02810038      -1.05985589      -1.21728015
H        0.43351293       2.01609721       0.28637139
H       -2.62032274      -0.67975169       1.00394875
11
Frame=7 idx=006985 GeodesicLength=0.15356733620050148 rxn_smarts="[N:1]([c:2]1[c:3]([H:10])[n:4][c:5]([H:11])[n:6][n:7]1)([H:8])[H:9]>>[N:1]([C@:2]12[C@:3]3([H:10])[N:4]=[C:5]([H:11])[N:6]1[N:7]23)([H:8])[H:9]"
N        1.81957320      -0.50635728      -0.40383241
C        0.54315115      -0.12226392      -0.24268104
C       -0.09645565       1.06952876       0.29626921
N       -1.23973498       0.90647282       1.00333513
C       -1.74724303      -0.21867771       0.56927622
N       -1.14465002      -0.84151551      -0.47137017
N       -0.33946491       0.07919901      -1.23928976
H        2.38001042      -0.64914640       0.41744380
H        2.02468056      -1.06452965      -1.21716965
H        0.44133696       2.00937053       0.29939537
H       -2.64120369      -0.66208065       0.98862329
11
Frame=8 idx=006985 GeodesicLength=0.1755630970871588 rxn_smarts="[N:1]([c:2]1[c:3]([H:10])[n:4][c:5]([H:11])[n:6][n:7]1)([H:8])[H:9]>>[N:1]([C@:2]12[C@:3]3([H:10])[N:4]=[C:5]([H:11])[N:6]1[N:7]23)([H:8])[H:9]"
N        1.82481174      -0.49563000      -0.41177331
C        0.54154049      -0.12919229      -0.23798092
C       -0.09381694       1.06580624       0.29555833
N       -1.23758330       0.90288928       1.00537855
C       -1.75092894      -0.21885556       0.57077682
N       -1.14237682      -0.85058679      -0.46362922
N       -0.34268181       0.06658055      -1.23564244
H        2.39037968      -0.62990396       0.40746864
H        2.02167537      -1.06844554      -1.21685549
H        0.44921927       2.00255788       0.31245660
H       -2.66023875      -0.64521979       0.97424243
11
Frame=9 idx=006985 GeodesicLength=0.197488655275055 rxn_smarts="[N:1]([c:2]1[c:3]([H:10])[n:4][c:5]([H:11])[n:6][n:7]1)([H:8])[H:9]>>[N:1]([C@:2]12[C@:3]3([H:10])[N:4]=[C:5]([H:11])[N:6]1[N:7]23)([H:8])[H:9]"
N        1.82957028      -0.48518865      -0.41961174
C        0.53988938      -0.13602666      -0.23331893
C       -0.09123986       1.06226087       0.29458433
N       -1.23555085       0.89954298       1.00712639
C       -1.75472154      -0.21879246       0.57202567
N       -1.14020905      -0.85949785      -0.45596967
N       -0.34585465       0.05395314      -1.23209925
H        2.39992568      -0.61118098       0.39767742
H        2.01898364      -1.07187966      -1.21639718
H        0.45712728       1.99563690       0.32563387
H       -2.67792029      -0.62882763       0.96034909
11
Frame=10 idx=006985 GeodesicLength=0.2193840307204746 rxn_smarts="[N:1]([c:2]1[c:3]([H:10])[n:4][c:5]([H:11])[n:6][n:7]1)([H:8])[H:9]>>[N:1]([C@:2]12[C@:3]3([H:10])[N:4]=[C:5]([H:11])[N:6]1[N:7]23)([H:8])[H:9]"
N        1.83393064      -0.47494934      -0.42747863
C        0.53825247      -0.14280291      -0.22865539
C       -0.08870596       1.05880811       0.29342553
N       -1.23353267       0.89627437       1.00876466
C       -1.75848281      -0.21867854       0.57326760
N       -1.13805464      -0.86840614      -0.44817766
N       -0.34904241       0.04120265      -1.22853276
H        2.40896986      -0.59254292       0.38783109
H        2.01650264      -1.07502140      -1.21580477
H        0.46502776       1.98852604       0.33899810
H       -2.69486488      -0.61240992       0.94636223
11
Frame=11 idx=006985 GeodesicLength=0.24128037711394215 rxn_smarts="[N:1]([c:2]1[c:3]([H:10])[n:4][c:5]([H:11])[n:6][n:7]1)([H:8])[H:9]>>[N:1]([C@:2]12[C@:3]3([H:10])[N:4]=[C:5]([H:11])[N:6]1[N:7]23)([H:8])[H:9]"
N        1.83793101      -0.46487030      -0.43544648
C        0.53665343      -0.14954157      -0.22396534
C       -0.08620966       1.05540783       0.29212635
N       -1.23148691       0.89300667       1.01038921
C       -1.76217153      -0.21859400       0.57460660
N       -1.13587231      -0.87738476      -0.44015276
N       -0.35226678       0.02827511      -1.22487996
H        2.41767634      -0.57373676       0.37779320
H        2.01416941      -1.07800511      -1.21506938
H        0.47290951       1.98117363       0.35260788
H       -2.71133251      -0.59573075       0.93199067
11
Frame=12 idx=006985 GeodesicLength=0.2632094504334468 rxn_smarts="[N:1]([c:2]1[c:3]([H:10])[n:4][c:5]([H:11])[n:6][n:7]1)([H:8])[H:9]>>[N:1]([C@:2]12[C@:3]3([H:10])[N:4]=[C:5]([H:11])[N:6]1[N:7]23)([H:8])[H:9]"
N        1.84159910      -0.45491439      -0.44359444
C        0.53511314      -0.15626642      -0.21922091
C       -0.08374614       1.05201914       0.29073730
N       -1.22937484       0.88966379       1.01209805
C       -1.76575221      -0.21862337       0.57615248
N       -1.13362680      -0.88650815      -0.43179187
N       -0.35555536       0.01511741      -1.22107438
H        2.42619374      -0.55450020       0.36741168
H        2.01192831      -1.08096926      -1.21416578
H        0.48076293       1.97352728       0.36652690
H       -2.72754188      -0.57854583       0.91692096
11
Frame=13 idx=006985 GeodesicLength=0.2851945707119142 rxn_smarts="[N:1]([c:2]1[c:3]([H:10])[n:4][c:5]([H:11])[n:6][n:7]1)([H:8])[H:9]>>[N:1]([C@:2]12[C@:3]3([H:10])[N:4]=[C:5]([H:11])[N:6]1[N:7]23)([H:8])[H:9]"
N        1.84493871      -0.44506641      -0.45197141
C        0.53363696      -0.16298513      -0.21440605
C       -0.08131410       1.04862355       0.28929456
N       -1.22718247       0.88620733       1.01394131
C       -1.76923204      -0.21878369       0.57792667
N       -1.13130688      -0.89578788      -0.42306408
N       -0.35891577       0.00172691      -1.21708291
H        2.43458720      -0.53466252       0.35658742
H        2.00972794      -1.08404752      -1.21303727
H        0.48857928       1.96554967       0.38080428
H       -2.74351882      -0.56077433       0.90100749
11
Frame=14 idx=006985 GeodesicLength=0.3072630755667821 rxn_smarts="[N:1]([c:2]1[c:3]([H:10])[n:4][c:5]([H:11])[n:6][n:7]1)([H:8])[H:9]>>[N:1]([C@:2]12[C@:3]3([H:10])[N:4]=[C:5]([H:11])[N:6]1[N:7]23)([H:8])[H:9]"
N        1.84794966      -0.43531011      -0.46060924
C        0.53222903      -0.16972466      -0.20949217
C       -0.07891667       1.04519250       0.28781854
N       -1.22489567       0.88260003       1.01596443
C       -1.77261806      -0.21910476       0.57997658
N       -1.12889824      -0.90527257      -0.41389423
N       -0.36236175      -0.01195198      -1.21286139
H        2.44289617      -0.51411442       0.34523517
H        2.00756768      -1.08724004      -1.21168700
H        0.49635622       1.95718623       0.39546957
H       -2.75930839      -0.54226023       0.88407976
11
Frame=15 idx=006985 GeodesicLength=0.32933803666590805 rxn_smarts="[N:1]([c:2]1[c:3]([H:10])[n:4][c:5]([H:11])[n:6][n:7]1)([H:8])[H:9]>>[N:1]([C@:2]12[C@:3]3([H:10])[N:4]=[C:5]([H:11])[N:6]1[N:7]23)([H:8])[H:9]"
N        1.85059164      -0.42572265      -0.46929905
C        0.53083919      -0.17638368      -0.20454435
C       -0.07655166       1.04185717       0.28621871
N       -1.22263367       0.87906919       1.01789745
C       -1.77599847      -0.21935513       0.58200038
N       -1.12647900      -0.91471141      -0.40457699
N       -0.36580499      -0.02570517      -1.20856875
H        2.45072224      -0.49356644       0.33373919
H        2.00551302      -1.09031178      -1.21015118
H        0.50405336       1.94857912       0.41032688
H       -2.77425168      -0.52374923       0.86695771
11
Frame=16 idx=006985 GeodesicLength=0.35135148312378683 rxn_smarts="[N:1]([c:2]1[c:3]([H:10])[n:4][c:5]([H:11])[n:6][n:7]1)([H:8])[H:9]>>[N:1]([C@:2]12[C@:3]3([H:10])[N:4]=[C:5]([H:11])[N:6]1[N:7]23)([H:8])[H:9]"
N        1.85287292      -0.41637098      -0.47781015
C        0.52943313      -0.18286863      -0.19962506
C       -0.07420691       1.03874195       0.28439984
N       -1.22053036       0.87585672       1.01945630
C       -1.77942785      -0.21935017       0.58375489
N       -1.12411866      -0.92389421      -0.39537996
N       -0.36915157      -0.03935844      -1.20435952
H        2.45772749      -0.47380562       0.32253625
H        2.00366369      -1.09291703      -1.20857897
H        0.51163411       1.93988821       0.42513592
H       -2.78789600      -0.50592180       0.85047046
