12
Frame=0 idx=004512 GeodesicLength=0.0 rxn_smarts="[O:1]([C@@:2]1([H:8])[C@@:3]2([H:9])[C:4]([H:10])([H:11])[O:5][C@@:6]12[H:12])[H:7]>>[O:1]([C:2][C@@:6]1([H:12])[C:3]([H:8])([H:9])[C:4]([H:10])([H:11])[O:5]1)[H:7]"
O       -0.37904840       1.02470731      -1.67313411
C        0.16839904       1.39145938      -0.50255735
C       -0.27286941       0.19512301       0.90936324
C       -0.44276327      -1.14563900       0.23300188
O        0.79205156      -0.97303074      -0.49562730
C        0.99790950       0.30951262       0.14020644
H       -0.02860535       0.14962307      -1.92315444
H       -0.73847999       1.39054850       0.39069651
H       -0.42603529       0.43369440       1.95443746
H       -0.37179448      -2.00102761       0.90741254
H       -1.30775591      -1.26239129      -0.42734537
H        2.00899202       0.48742035       0.48670054
12
Frame=1 idx=004512 GeodesicLength=0.04410514023007472 rxn_smarts="[O:1]([C@@:2]1([H:8])[C@@:3]2([H:9])[C:4]([H:10])([H:11])[O:5][C@@:6]12[H:12])[H:7]>>[O:1]([C:2][C@@:6]1([H:12])[C:3]([H:8])([H:9])[C:4]([H:10])([H:11])[O:5]1)[H:7]"
O       -0.37003711       1.02965346      -1.68273238
C        0.16728958       1.38896603      -0.50578105
C       -0.27694867       0.19674080       0.90805448
C       -0.44419176      -1.14743975       0.23599390
O        0.78850915      -0.97426397      -0.49648774
C        0.99567391       0.30832234       0.13732593
H       -0.02256497       0.15273216      -1.93099357
H       -0.74412780       1.40085136       0.40048835
H       -0.41946257       0.42540284       1.95688782
H       -0.36924833      -2.00104727       0.91219306
H       -1.31000263      -1.26879388      -0.42224945
H        2.00511120       0.48887589       0.48730064
12
Frame=2 idx=004512 GeodesicLength=0.08820310695058664 rxn_smarts="[O:1]([C@@:2]1([H:8])[C@@:3]2([H:9])[C:4]([H:10])([H:11])[O:5][C@@:6]12[H:12])[H:7]>>[O:1]([C:2][C@@:6]1([H:12])[C:3]([H:8])([H:9])[C:4]([H:10])([H:11])[O:5]1)[H:7]"
O       -0.36079465       1.03463845      -1.69241055
C        0.16602487       1.38641761      -0.50904707
C       -0.28107702       0.19835414       0.90674949
C       -0.44563238      -1.14925847       0.23902648
O        0.78489180      -0.97549970      -0.49738127
C        0.99337433       0.30713027       0.13440550
H       -0.01639365       0.15585401      -1.93889762
H       -0.74967454       1.41124161       0.41062657
H       -0.41294634       0.41707646       1.95914682
H       -0.36664080      -2.00106035       0.91700403
H       -1.31228939      -1.27526866      -0.41702497
H        2.00115776       0.49037464       0.48780258
12
Frame=3 idx=004512 GeodesicLength=0.13228993405537198 rxn_smarts="[O:1]([C@@:2]1([H:8])[C@@:3]2([H:9])[C:4]([H:10])([H:11])[O:5][C@@:6]12[H:12])[H:7]>>[O:1]([C:2][C@@:6]1([H:12])[C:3]([H:8])([H:9])[C:4]([H:10])([H:11])[O:5]1)[H:7]"
O       -0.35131402       1.03966323      -1.70216631
C        0.16460052       1.38381077      -0.51235859
C       -0.28525295       0.19996072       0.90544916
C       -0.44708340      -1.15109616       0.24209898
O        0.78120005      -0.97673803      -0.49830889
C        0.99101027       0.30593678       0.13144376
H       -0.01009659       0.15898590      -1.94686420
H       -0.75511356       1.42171404       0.42112298
H       -0.40649845       0.40872881       1.96121140
H       -0.36397072      -2.00106914       0.92184162
H       -1.31461325      -1.28181459      -0.41167261
H        1.99713211       0.49191767       0.48820270
12
Frame=4 idx=004512 GeodesicLength=0.1763650368934835 rxn_smarts="[O:1]([C@@:2]1([H:8])[C@@:3]2([H:9])[C:4]([H:10])([H:11])[O:5][C@@:6]12[H:12])[H:7]>>[O:1]([C:2][C@@:6]1([H:12])[C:3]([H:8])([H:9])[C:4]([H:10])([H:11])[O:5]1)[H:7]"
O       -0.34158846       1.04472899      -1.71199639
C        0.16301336       1.38114232      -0.51571929
C       -0.28947486       0.20155835       0.90415399
C       -0.44854302      -1.15295379       0.24521061
O        0.77743482      -0.97797916      -0.49927162
C        0.98858174       0.30474215       0.12843934
H       -0.00367999       0.16212512      -1.95489058
H       -0.76044010       1.43226252       0.43198852
H       -0.40013028       0.40037418       1.96307899
H       -0.36123719      -2.00107583       0.92670213
H       -1.31697114      -1.28843049      -0.40619364
H        1.99303511       0.49350565       0.48849792
12
Frame=5 idx=004512 GeodesicLength=0.2204397766448285 rxn_smarts="[O:1]([C@@:2]1([H:8])[C@@:3]2([H:9])[C:4]([H:10])([H:11])[O:5][C@@:6]12[H:12])[H:7]>>[O:1]([C:2][C@@:6]1([H:12])[C:3]([H:8])([H:9])[C:4]([H:10])([H:11])[O:5]1)[H:7]"
O       -0.33161075       1.04983639      -1.72189493
C        0.16126302       1.37841105      -0.51913532
C       -0.29374122       0.20314489       0.90286404
C       -0.45001039      -1.15483261       0.24836023
O        0.77359752      -0.97922271      -0.50027128
C        0.98609006       0.30354714       0.12539057
H        0.00285000       0.16526903      -1.96297385
H       -0.76565514       1.44287692       0.44323434
H       -0.39385024       0.39202911       1.96474816
H       -0.35844083      -2.00108321       0.93158292
H       -1.31936206      -1.29511570      -0.40059096
H        1.98887004       0.49513968       0.48868608
12
Frame=6 idx=004512 GeodesicLength=0.26444365852770624 rxn_smarts="[O:1]([C@@:2]1([H:8])[C@@:3]2([H:9])[C:4]([H:10])([H:11])[O:5][C@@:6]12[H:12])[H:7]>>[O:1]([C:2][C@@:6]1([H:12])[C:3]([H:8])([H:9])[C:4]([H:10])([H:11])[O:5]1)[H:7]"
O       -0.32135606       1.05498271      -1.73187795
C        0.15931878       1.37560248      -0.52261104
C       -0.29805779       0.20472267       0.90157995
C       -0.45148421      -1.15672958       0.25154748
O        0.76968641      -0.98046781      -0.50129996
C        0.98352305       0.30235789       0.12229681
H        0.00948559       0.16840793      -1.97111633
H       -0.77071589       1.45356517       0.45487567
H       -0.38766038       0.38367673       1.96623163
H       -0.35558371      -2.00108795       0.93647674
H       -1.32177544      -1.30186469      -0.39486488
H        1.98461966       0.49683444       0.48876188
12
Frame=7 idx=004512 GeodesicLength=0.3084415966334152 rxn_smarts="[O:1]([C@@:2]1([H:8])[C@@:3]2([H:9])[C:4]([H:10])([H:11])[O:5][C@@:6]12[H:12])[H:7]>>[O:1]([C:2][C@@:6]1([H:12])[C:3]([H:8])([H:9])[C:4]([H:10])([H:11])[O:5]1)[H:7]"
O       -0.31082590       1.06017425      -1.74193002
C        0.15719511       1.37272287      -0.52615210
C       -0.30242185       0.20628748       0.90030044
C       -0.45296609      -1.15864933       0.25477264
O        0.76569999      -0.98171587      -0.50236685
C        0.98088662       0.30117023       0.11915397
H        0.01623391       0.17154918      -1.97931724
H       -0.77565043       1.46431078       0.46692018
H       -0.38156625       0.37534732       1.96752008
H       -0.35266102      -2.00109337       0.94138978
H       -1.32421881      -1.30868501      -0.38901526
H        1.98029474       0.49858145       0.48872438
12
Frame=8 idx=004512 GeodesicLength=0.3524329911940163 rxn_smarts="[O:1]([C@@:2]1([H:8])[C@@:3]2([H:9])[C:4]([H:10])([H:11])[O:5][C@@:6]12[H:12])[H:7]>>[O:1]([C:2][C@@:6]1([H:12])[C:3]([H:8])([H:9])[C:4]([H:10])([H:11])[O:5]1)[H:7]"
O       -0.30000600       1.06541516      -1.75205478
C        0.15488249       1.36976651      -0.52976173
C       -0.30683645       0.20783908       0.89902425
C       -0.45445546      -1.16059261       0.25803639
O        0.76163462      -0.98296848      -0.50347261
C        0.97817561       0.29998376       0.11595949
H        0.02309698       0.17469420      -1.98758068
H       -0.78044897       1.47511357       0.47938259
H       -0.37557168       0.36704361       1.96860978
H       -0.34966869      -2.00109680       0.94632258
H       -1.32669093      -1.31558159      -0.38303619
H        1.97588848       0.50038359       0.48857090
12
Frame=9 idx=004512 GeodesicLength=0.39641468249053863 rxn_smarts="[O:1]([C@@:2]1([H:8])[C@@:3]2([H:9])[C:4]([H:10])([H:11])[O:5][C@@:6]12[H:12])[H:7]>>[O:1]([C:2][C@@:6]1([H:12])[C:3]([H:8])([H:9])[C:4]([H:10])([H:11])[O:5]1)[H:7]"
O       -0.28887661       1.07069657      -1.76225046
C        0.15237339       1.36673272      -0.53344870
C       -0.31130567       0.20937673       0.89774829
C       -0.45595228      -1.16256002       0.26133531
O        0.75749144      -0.98422176      -0.50461805
C        0.97538654       0.29880273       0.11271217
H        0.03006332       0.17783525      -1.99590614
H       -0.78510060       1.48596347       0.49228255
H       -0.36967873       0.35877815       1.96950936
H       -0.34660909      -2.00110112       0.95126966
H       -1.32918871      -1.32255092      -0.37693352
H        1.97139700       0.50224820       0.48829952
12
Frame=10 idx=004512 GeodesicLength=0.44033198009945584 rxn_smarts="[O:1]([C@@:2]1([H:8])[C@@:3]2([H:9])[C:4]([H:10])([H:11])[O:5][C@@:6]12[H:12])[H:7]>>[O:1]([C:2][C@@:6]1([H:12])[C:3]([H:8])([H:9])[C:4]([H:10])([H:11])[O:5]1)[H:7]"
O       -0.27741448       1.07603660      -1.77251484
C        0.14964759       1.36360320      -0.53722071
C       -0.31583144       0.21090147       0.89647707
C       -0.45745662      -1.16454882       0.26467309
O        0.75326712      -0.98547804      -0.50579743
C        0.97251248       0.29762892       0.10941199
H        0.03712691       0.18097320      -2.00428696
H       -0.78958786       1.49685451       0.50560411
H       -0.36388803       0.35053722       1.97022555
H       -0.34348078      -2.00110065       0.95623105
H       -1.33170840      -1.32959234      -0.37070416
H        1.96681351       0.50418474       0.48790124
12
Frame=11 idx=004512 GeodesicLength=0.48424213631380497 rxn_smarts="[O:1]([C@@:2]1([H:8])[C@@:3]2([H:9])[C:4]([H:10])([H:11])[O:5][C@@:6]12[H:12])[H:7]>>[O:1]([C:2][C@@:6]1([H:12])[C:3]([H:8])([H:9])[C:4]([H:10])([H:11])[O:5]1)[H:7]"
O       -0.26560883       1.08142535      -1.78284450
C        0.14670915       1.36038559      -0.54108250
C       -0.32041797       0.21241214       0.89520467
C       -0.45896872      -1.16656308       0.26804674
O        0.74896095      -0.98673652      -0.50701799
C        0.96955308       0.29646194       0.10605546
H        0.04428860       0.18410705      -2.01273083
H       -0.79391872       1.50778144       0.51938166
H       -0.35820532       0.34234606       1.97075040
H       -0.34027782      -2.00109900       0.96120693
H       -1.33425326      -1.33671036      -0.36434692
H        1.96213887       0.50618939       0.48737687
12
Frame=12 idx=004512 GeodesicLength=0.52813876230917 rxn_smarts="[O:1]([C@@:2]1([H:8])[C@@:3]2([H:9])[C:4]([H:10])([H:11])[O:5][C@@:6]12[H:12])[H:7]>>[O:1]([C:2][C@@:6]1([H:12])[C:3]([H:8])([H:9])[C:4]([H:10])([H:11])[O:5]1)[H:7]"
O       -0.25344108       1.08687037      -1.79324185
C        0.14354655       1.35707162      -0.54504391
C       -0.32507071       0.21390884       0.89392799
C       -0.46048902      -1.16860397       0.27145748
O        0.74456818      -0.98799740      -0.50828061
C        0.96650160       0.29530282       0.10263927
H        0.05154969       0.18723888      -2.02124206
H       -0.79807710       1.51873901       0.53362677
H       -0.35263095       0.33420381       1.97108782
H       -0.33699746      -2.00109258       0.96620024
H       -1.33682285      -1.34391106      -0.35785660
H        1.95736315       0.50826967       0.48672545
12
Frame=13 idx=004512 GeodesicLength=0.572021361871412 rxn_smarts="[O:1]([C@@:2]1([H:8])[C@@:3]2([H:9])[C:4]([H:10])([H:11])[O:5][C@@:6]12[H:12])[H:7]>>[O:1]([C:2][C@@:6]1([H:12])[C:3]([H:8])([H:9])[C:4]([H:10])([H:11])[O:5]1)[H:7]"
O       -0.24088759       1.09237514      -1.80370151
C        0.14014770       1.35365510      -0.54911371
C       -0.32979628       0.21539158       0.89264371
C       -0.46201842      -1.17067339       0.27490645
O        0.74008356      -0.98926078      -0.50958835
C        0.96335128       0.29415230       0.09915946
H        0.05891011       0.19037216      -2.02982467
H       -0.80205180       1.52972475       0.54835111
H       -0.34716377       0.32611249       1.97123641
H       -0.33363522      -2.00107849       0.97121529
H       -1.33941712      -1.35120187      -0.35122892
H        1.95247755       0.51043101       0.48594473
12
Frame=14 idx=004512 GeodesicLength=0.615897742863736 rxn_smarts="[O:1]([C@@:2]1([H:8])[C@@:3]2([H:9])[C:4]([H:10])([H:11])[O:5][C@@:6]12[H:12])[H:7]>>[O:1]([C:2][C@@:6]1([H:12])[C:3]([H:8])([H:9])[C:4]([H:10])([H:11])[O:5]1)[H:7]"
O       -0.22792169       1.09794526      -1.81422355
C        0.13649971       1.35013105      -0.55330189
C       -0.33460183       0.21686180       0.89134970
C       -0.46355955      -1.17277399       0.27839551
O        0.73550144      -0.99052827      -0.51094403
C        0.96009598       0.29301181       0.09561220
H        0.06637182       0.19350968      -2.03848489
H       -0.80583247       1.54073264       0.56357032
H       -0.34180174       0.31807650       1.97119834
H       -0.33018731      -2.00105739       0.97625396
H       -1.34203947      -1.35859166      -0.34445750
H        1.94747510       0.51268257       0.48503181
12
Frame=15 idx=004512 GeodesicLength=0.6597744510342421 rxn_smarts="[O:1]([C@@:2]1([H:8])[C@@:3]2([H:9])[C:4]([H:10])([H:11])[O:5][C@@:6]12[H:12])[H:7]>>[O:1]([C:2][C@@:6]1([H:12])[C:3]([H:8])([H:9])[C:4]([H:10])([H:11])[O:5]1)[H:7]"
O       -0.21451260       1.10358468      -1.82480468
C        0.13258891       1.34648943      -0.55761943
C       -0.33949383       0.21831877       0.89004338
C       -0.46511363      -1.17490476       0.28192699
O        0.73081343      -0.99179770      -0.51234961
C        0.95672552       0.29188186       0.09199307
H        0.07393665       0.19665660      -2.04722813
H       -0.80941096       1.55175400       0.57929830
H       -0.33654003       0.31009503       1.97097423
H       -0.32664853      -2.00102141       0.98132184
H       -1.34468704      -1.36608505      -0.33753680
H        1.94234210       0.51502854       0.48398084
12
Frame=16 idx=004512 GeodesicLength=0.7036303404469282 rxn_smarts="[O:1]([C@@:2]1([H:8])[C@@:3]2([H:9])[C:4]([H:10])([H:11])[O:5][C@@:6]12[H:12])[H:7]>>[O:1]([C:2][C@@:6]1([H:12])[C:3]([H:8])([H:9])[C:4]([H:10])([H:11])[O:5]1)[H:7]"
O       -0.20065268       1.10929217      -1.83542905
C        0.12841307       1.34272252      -0.56207646
C       -0.34447267       0.21976320       0.88872031
C       -0.46667692      -1.17706314       0.28549974
O        0.72601771      -0.99306659      -0.51380616
C        0.95323756       0.29076237       0.08830212
H        0.08159355       0.19981684      -2.05605427
H       -0.81277408       1.56277051       0.59553801
H       -0.33139202       0.30218083       1.97056080
H       -0.32301390      -2.00096455       0.98641734
H       -1.34735479      -1.37368097      -0.33046557
H        1.93707517       0.51746682       0.48279321
