16
Frame=0 idx=006620 GeodesicLength=0.0 rxn_smarts="[C:1]([C@@:2]([O:3][H:12])([C:4]([N:5]([C:6](=[O:7])[H:16])[H:15])([H:13])[H:14])[H:11])([H:8])([H:9])[H:10]>>[C-:6]#[O+:7].[C:1]([C@@:2]([O:3][H:12])([C:4]([N:5]([H:15])[H:16])([H:13])[H:14])[H:11])([H:8])([H:9])[H:10]"
C       -2.03017741      -0.79760122      -0.26159796
C       -0.62416122      -0.29887262      -0.53571167
O       -0.73952702       0.94288321      -1.18515971
C        0.18043419      -0.18994466       0.76107254
N        1.62002790      -0.04452112       0.54155330
C        2.41465490       1.27806874       0.05481858
O        1.79482231       2.13495352      -0.47775808
H       -2.01918845      -1.80786831       0.15161059
H       -2.60099448      -0.80746862      -1.18970183
H       -2.53893920      -0.13296597       0.43991281
H       -0.11223134      -1.02270520      -1.19108505
H        0.09749061       1.42480063      -1.12977323
H       -0.16192161       0.69327356       1.30711224
H        0.00876341      -1.06473676       1.39244439
H        2.10377821      -0.87328261       0.20757770
H        2.60716924       0.56598739       1.11468539
16
Frame=1 idx=006620 GeodesicLength=0.08524036251096545 rxn_smarts="[C:1]([C@@:2]([O:3][H:12])([C:4]([N:5]([C:6](=[O:7])[H:16])[H:15])([H:13])[H:14])[H:11])([H:8])([H:9])[H:10]>>[C-:6]#[O+:7].[C:1]([C@@:2]([O:3][H:12])([C:4]([N:5]([H:15])[H:16])([H:13])[H:14])[H:11])([H:8])([H:9])[H:10]"
C       -2.03513595      -0.79264141      -0.25732264
C       -0.62599623      -0.30603931      -0.53694858
O       -0.73345242       0.93412478      -1.19107794
C        0.18315111      -0.19674908       0.75660513
N        1.62123925      -0.04726292       0.53278451
C        2.40662208       1.31531841       0.07418450
O        1.79131013       2.17338718      -0.45929393
H       -2.03096222      -1.80069107       0.16142910
H       -2.60839469      -0.80317336      -1.18393341
H       -2.53733364      -0.12052850       0.44181568
H       -0.12159975      -1.03704197      -1.19020688
H        0.11688645       1.39413902      -1.15934606
H       -0.16010495       0.68448957       1.30530054
H        0.01427042      -1.07296565       1.38700174
H        2.10573224      -0.87571394       0.20094178
H        2.61376818       0.55134825       1.11806645
16
Frame=2 idx=006620 GeodesicLength=0.17028069113561362 rxn_smarts="[C:1]([C@@:2]([O:3][H:12])([C:4]([N:5]([C:6](=[O:7])[H:16])[H:15])([H:13])[H:14])[H:11])([H:8])([H:9])[H:10]>>[C-:6]#[O+:7].[C:1]([C@@:2]([O:3][H:12])([C:4]([N:5]([H:15])[H:16])([H:13])[H:14])[H:11])([H:8])([H:9])[H:10]"
C       -2.03986248      -0.78725557      -0.25329721
C       -0.62755178      -0.31316665      -0.53811229
O       -0.72652429       0.92543467      -1.19685225
C        0.18604595      -0.20397562       0.75231624
N        1.62260576      -0.05008681       0.52412302
C        2.39689399       1.35286812       0.09415536
O        1.78700803       2.21083050      -0.44328192
H       -2.04278281      -1.79304097       0.17091182
H       -2.61541643      -0.79813908      -1.17850017
H       -2.53535442      -0.10765276       0.44340734
H       -0.13077613      -1.05128623      -1.18921281
H        0.13576665       1.36352726      -1.18692897
H       -0.15825800       0.67493968       1.30409914
H        0.01994540      -1.08190685       1.38130585
H        2.10781784      -0.87876462       0.19567718
H        2.62044274       0.53767494       1.12018966
16
Frame=3 idx=006620 GeodesicLength=0.25516906330993505 rxn_smarts="[C:1]([C@@:2]([O:3][H:12])([C:4]([N:5]([C:6](=[O:7])[H:16])[H:15])([H:13])[H:14])[H:11])([H:8])([H:9])[H:10]>>[C-:6]#[O+:7].[C:1]([C@@:2]([O:3][H:12])([C:4]([N:5]([H:15])[H:16])([H:13])[H:14])[H:11])([H:8])([H:9])[H:10]"
C       -2.04435387      -0.78150289      -0.24950705
C       -0.62885654      -0.32024940      -0.53921799
O       -0.71886194       0.91678980      -1.20250891
C        0.18910023      -0.21157494       0.74818029
N        1.62411424      -0.05304773       0.51553125
C        2.38542802       1.39064346       0.11472965
O        1.78219179       2.24746516      -0.42958101
H       -2.05459283      -1.78497032       0.18007990
H       -2.62207210      -0.79246844      -1.17337911
H       -2.53301365      -0.09441988       0.44470818
H       -0.13978115      -1.06541017      -1.18813574
H        0.15410490       1.33312667      -1.21255822
H       -0.15636852       0.66470367       1.30343977
H        0.02573818      -1.09146127       1.37538960
H        2.10996834      -0.88252619       0.19179518
H        2.62725488       0.52490248       1.12103424
16
Frame=4 idx=006620 GeodesicLength=0.3399412596478637 rxn_smarts="[C:1]([C@@:2]([O:3][H:12])([C:4]([N:5]([C:6](=[O:7])[H:16])[H:15])([H:13])[H:14])[H:11])([H:8])([H:9])[H:10]>>[C-:6]#[O+:7].[C:1]([C@@:2]([O:3][H:12])([C:4]([N:5]([H:15])[H:16])([H:13])[H:14])[H:11])([H:8])([H:9])[H:10]"
C       -2.04861163      -0.77542866      -0.24593475
C       -0.62993800      -0.32728159      -0.54027580
O       -0.71056829       0.90818502      -1.20804591
C        0.19229959      -0.21951316       0.74417606
N        1.62575514      -0.05619515       0.50697890
C        2.37216341       1.42858181       0.13589200
O        1.77708980       2.28345608      -0.41801460
H       -2.06634927      -1.77652313       0.18894657
H       -2.62837975      -0.78623127      -1.16854363
H       -2.53032157      -0.08089945       0.44575026
H       -0.14863839      -1.07938605      -1.18700743
H        0.17192940       1.30301836      -1.23635080
H       -0.15442496       0.65383678       1.30327072
H        0.03160886      -1.10155652       1.36927601
H        2.11213416      -0.88706845       0.18931350
H        2.63425149       0.51300537       1.12056890
16
Frame=5 idx=006620 GeodesicLength=0.42462804867493753 rxn_smarts="[C:1]([C@@:2]([O:3][H:12])([C:4]([N:5]([C:6](=[O:7])[H:16])[H:15])([H:13])[H:14])[H:11])([H:8])([H:9])[H:10]>>[C-:6]#[O+:7].[C:1]([C@@:2]([O:3][H:12])([C:4]([N:5]([H:15])[H:16])([H:13])[H:14])[H:11])([H:8])([H:9])[H:10]"
C       -2.05263859      -0.76906511      -0.24256309
C       -0.63081957      -0.33425841      -0.54129308
O       -0.70172292       0.89962372      -1.21344757
C        0.19563420      -0.22777019       0.74028487
N        1.62752366      -0.05957686       0.49844091
C        2.35702758       1.46661943       0.15758784
O        1.77188448       2.31895190      -0.40837331
H       -2.07802287      -1.76773265       0.19752091
H       -2.63435768      -0.77947266      -1.16396678
H       -2.52728265      -0.06714531       0.44656754
H       -0.15737275      -1.09319096      -1.18585605
H        0.18929519       1.27323323      -1.25844940
H       -0.15241255       0.64237557       1.30354922
H        0.03752475      -1.11214223       1.36298044
H        2.11428101      -0.89244619       0.18826386
H        2.64145872       0.50199673       1.11875371
16
Frame=6 idx=006620 GeodesicLength=0.509249598038813 rxn_smarts="[C:1]([C@@:2]([O:3][H:12])([C:4]([N:5]([C:6](=[O:7])[H:16])[H:15])([H:13])[H:14])[H:11])([H:8])([H:9])[H:10]>>[C-:6]#[O+:7].[C:1]([C@@:2]([O:3][H:12])([C:4]([N:5]([H:15])[H:16])([H:13])[H:14])[H:11])([H:8])([H:9])[H:10]"
C       -2.05643833      -0.76243627      -0.23937801
C       -0.63152089      -0.34117298      -0.54227423
O       -0.69239189       0.89112206      -1.21868389
C        0.19909556      -0.23633588       0.73649461
N        1.62941660      -0.06323981       0.48990440
C        2.33994859       1.50468843       0.17973169
O        1.76673118       2.35406750      -0.40045709
H       -2.08959054      -1.75862911       0.20580065
H       -2.64002243      -0.77221635      -1.15962747
H       -2.52390205      -0.05320570       0.44719699
H       -0.16600332      -1.10679862      -1.18471013
H        0.20625633       1.24378088      -1.27900347
H       -0.15031812       0.63034091       1.30424815
H        0.04345582      -1.12318543       1.35651479
H        2.11638912      -0.89869966       0.18869793
H        2.64889435       0.49192003       1.11554510
16
Frame=7 idx=006620 GeodesicLength=0.5938218558856923 rxn_smarts="[C:1]([C@@:2]([O:3][H:12])([C:4]([N:5]([C:6](=[O:7])[H:16])[H:15])([H:13])[H:14])[H:11])([H:8])([H:9])[H:10]>>[C-:6]#[O+:7].[C:1]([C@@:2]([O:3][H:12])([C:4]([N:5]([H:15])[H:16])([H:13])[H:14])[H:11])([H:8])([H:9])[H:10]"
C       -2.06001312      -0.75555776      -0.23636702
C       -0.63205655      -0.34802107      -0.54322363
O       -0.68262207       0.88269452      -1.22372731
C        0.20267790      -0.24520671       0.73279403
N        1.63143405      -0.06723455       0.48135994
C        2.32086454       1.54270724       0.20218061
O        1.76173931       2.38890967      -0.39402305
H       -2.10103751      -1.74923393       0.21378391
H       -2.64538707      -0.76447458      -1.15550653
H       -2.52017926      -0.03911487       0.44767128
H       -0.17454751      -1.12019076      -1.18359400
H        0.22286759       1.21465475      -1.29815334
H       -0.14812236       0.61774989       1.30533852
H        0.04937271      -1.13466083       1.34989029
H        2.11844938      -0.90585902       0.19068027
H        2.65655997       0.48283799       1.11089602
16
Frame=8 idx=006620 GeodesicLength=0.6783537481989707 rxn_smarts="[C:1]([C@@:2]([O:3][H:12])([C:4]([N:5]([C:6](=[O:7])[H:16])[H:15])([H:13])[H:14])[H:11])([H:8])([H:9])[H:10]>>[C-:6]#[O+:7].[C:1]([C@@:2]([O:3][H:12])([C:4]([N:5]([H:15])[H:16])([H:13])[H:14])[H:11])([H:8])([H:9])[H:10]"
C       -2.06336427      -0.74843928      -0.23351925
C       -0.63243691      -0.35480038      -0.54414596
O       -0.67244724       0.87435317      -1.22855541
C        0.20637690      -0.25438165       0.72917337
N        1.63357872      -0.07161632       0.47280213
C        2.29973758       1.58058031       0.22474013
O        1.75696937       2.42357836      -0.38878926
H       -2.11235386      -1.73956230       0.22146919
H       -2.65046163      -0.75625213      -1.15158770
H       -2.51611148      -0.02489707       0.44801943
H       -0.18301918      -1.13335534      -1.18252859
H        0.23917821       1.18583939      -1.31603199
H       -0.14580039       0.60462243       1.30678772
H        0.05524434      -1.14654398       1.34312150
H        2.12046241      -0.91394292       0.19428306
H        2.66444744       0.47481770       1.10476160
16
Frame=9 idx=006620 GeodesicLength=0.7628520649016721 rxn_smarts="[C:1]([C@@:2]([O:3][H:12])([C:4]([N:5]([C:6](=[O:7])[H:16])[H:15])([H:13])[H:14])[H:11])([H:8])([H:9])[H:10]>>[C-:6]#[O+:7].[C:1]([C@@:2]([O:3][H:12])([C:4]([N:5]([H:15])[H:16])([H:13])[H:14])[H:11])([H:8])([H:9])[H:10]"
C       -2.06649038      -0.74108129      -0.23082346
C       -0.63266632      -0.36151570      -0.54504812
O       -0.66188260       0.86609393      -1.23316571
C        0.21019149      -0.26385902       0.72562011
N        1.63585613      -0.07644745       0.46422331
C        2.27658251       1.61819783       0.24716606
O        1.75238018       2.45819182      -0.38439818
H       -2.12353719      -1.72961439       0.22886716
H       -2.65525165      -0.74755059      -1.14785445
H       -2.51168740      -0.01055460       0.44826064
H       -0.19143167      -1.14629926      -1.18152546
H        0.25523824       1.15730224      -1.33277227
H       -0.14331487       0.59099199       1.30854840
H        0.06103696      -1.15880335       1.33622776
H        2.12243324      -0.92295879       0.19957069
H        2.67254333       0.46790663       1.09710351
16
Frame=10 idx=006620 GeodesicLength=0.8473280074166363 rxn_smarts="[C:1]([C@@:2]([O:3][H:12])([C:4]([N:5]([C:6](=[O:7])[H:16])[H:15])([H:13])[H:14])[H:11])([H:8])([H:9])[H:10]>>[C-:6]#[O+:7].[C:1]([C@@:2]([O:3][H:12])([C:4]([N:5]([H:15])[H:16])([H:13])[H:14])[H:11])([H:8])([H:9])[H:10]"
C       -2.06939098      -0.73347622      -0.22826789
C       -0.63274648      -0.36817712      -0.54593818
O       -0.65093050       0.85790060      -1.23757020
C        0.21412311      -0.27363987       0.72212197
N        1.63827640      -0.08179331       0.45561573
C        2.25142114       1.65546161       0.26920590
O        1.74789043       2.49286188      -0.38047380
H       -2.13459369      -1.71937824       0.23599682
H       -2.65976354      -0.73836495      -1.14429034
H       -2.50689218       0.00392665       0.44840878
H       -0.19979976      -1.15904299      -1.18059023
H        0.27110122       1.12899556      -1.34849983
H       -0.14062700       0.57689338       1.31056821
H        0.06672067      -1.17140996       1.32923170
H        2.12437964      -0.93289283       0.20658798
H        2.68083152       0.46213581       1.08789338
16
Frame=11 idx=006620 GeodesicLength=0.9317870036065873 rxn_smarts="[C:1]([C@@:2]([O:3][H:12])([C:4]([N:5]([C:6](=[O:7])[H:16])[H:15])([H:13])[H:14])[H:11])([H:8])([H:9])[H:10]>>[C-:6]#[O+:7].[C:1]([C@@:2]([O:3][H:12])([C:4]([N:5]([H:15])[H:16])([H:13])[H:14])[H:11])([H:8])([H:9])[H:10]"
C       -2.07206202      -0.72560742      -0.22583964
C       -0.63267378      -0.37480228      -0.54682592
O       -0.63957710       0.84973579      -1.24180539
C        0.21817623      -0.28372100       0.71866397
N        1.64085195      -0.08772366       0.44696782
C        2.22433012       1.69227190       0.29060578
O        1.74331062       2.52772510      -0.37659757
H       -2.14553489      -1.70882417       0.24289355
H       -2.66399865      -0.72869102      -1.14087790
H       -2.50170145       0.01858389       0.44846559
H       -0.20813940      -1.17162747      -1.17971636
H        0.28682492       1.10085333      -1.36334036
H       -0.13768836       0.56237893       1.31278015
H        0.07226402      -1.18432406       1.32216215
H        2.12631917      -0.94371575       0.21535272
H        2.68929862       0.45748788       1.07711142
16
Frame=12 idx=006620 GeodesicLength=1.0162361745693163 rxn_smarts="[C:1]([C@@:2]([O:3][H:12])([C:4]([N:5]([C:6](=[O:7])[H:16])[H:15])([H:13])[H:14])[H:11])([H:8])([H:9])[H:10]>>[C-:6]#[O+:7].[C:1]([C@@:2]([O:3][H:12])([C:4]([N:5]([H:15])[H:16])([H:13])[H:14])[H:11])([H:8])([H:9])[H:10]"
C       -2.07449777      -0.71745168      -0.22352545
C       -0.63244189      -0.38141297      -0.54772130
O       -0.62779886       0.84154805      -1.24592381
C        0.22235702      -0.29409664       0.71523174
N        1.64359794      -0.09430842       0.43826726
C        2.19540481       1.72854400       0.31114282
O        1.73839661       2.56292188      -0.37236034
H       -2.15637556      -1.69790969       0.24960339
H       -2.66795539      -0.71852441      -1.13760025
H       -2.49608637       0.03346921       0.44842394
H       -0.21646723      -1.18410547      -1.17888835
H        0.30247084       1.07279678      -1.37741159
H       -0.13445064       0.54750955       1.31511223
H        0.07763784      -1.19750201       1.31505332
H        2.12827155      -0.95537936       0.22585259
H        2.69793711       0.45390119       1.06474379
16
Frame=13 idx=006620 GeodesicLength=1.1006787734292498 rxn_smarts="[C:1]([C@@:2]([O:3][H:12])([C:4]([N:5]([C:6](=[O:7])[H:16])[H:15])([H:13])[H:14])[H:11])([H:8])([H:9])[H:10]>>[C-:6]#[O+:7].[C:1]([C@@:2]([O:3][H:12])([C:4]([N:5]([H:15])[H:16])([H:13])[H:14])[H:11])([H:8])([H:9])[H:10]"
C       -2.07669018      -0.70898018      -0.22131262
C       -0.63204244      -0.38803331      -0.54863266
O       -0.61556355       0.83327676      -1.24998458
C        0.22667234      -0.30476081       0.71181274
N        1.64652917      -0.10161480       0.42950425
C        2.16474819       1.76421334       0.33064782
O        1.73286806       2.59858850      -0.36739921
H       -2.16713282      -1.68658172       0.25617718
H       -2.67162854      -0.70785754      -1.13444159
H       -2.49001229       0.04864485       0.44826994
H       -0.22480153      -1.19653590      -1.17808324
H        0.31810351       1.04473707      -1.39082080
H       -0.13086800       0.53234624       1.31749585
H        0.08281530      -1.21090219       1.30793915
H        2.13025609      -0.96781759       0.23805026
H        2.70674671       0.45127731       1.05077751
16
Frame=14 idx=006620 GeodesicLength=1.1851256050592316 rxn_smarts="[C:1]([C@@:2]([O:3][H:12])([C:4]([N:5]([C:6](=[O:7])[H:16])[H:15])([H:13])[H:14])[H:11])([H:8])([H:9])[H:10]>>[C-:6]#[O+:7].[C:1]([C@@:2]([O:3][H:12])([C:4]([N:5]([H:15])[H:16])([H:13])[H:14])[H:11])([H:8])([H:9])[H:10]"
C       -2.07862994      -0.70016239      -0.21919043
C       -0.63146718      -0.39468498      -0.54956507
O       -0.60283791       0.82486402      -1.25404107
C        0.23112751      -0.31570950       0.70839995
N        1.64965904      -0.10970402       0.42067607
C        2.13243904       1.79924393       0.34901554
O        1.72646568       2.63483620      -0.36143518
H       -2.17782170      -1.67478524       0.26266135
H       -2.67500975      -0.69667831      -1.13138979
H       -2.48344493       0.06417160       0.44798794
H       -0.23315926      -1.20897208      -1.17727573
H        0.33378513       1.01658502      -1.40365769
H       -0.12690600       0.51694092       1.31987642
H        0.08777362      -1.22449246       1.30085201
H        2.13229162      -0.98094801       0.25189407
H        2.71573503       0.44949530       1.03519161
16
Frame=15 idx=006620 GeodesicLength=1.2695868768929834 rxn_smarts="[C:1]([C@@:2]([O:3][H:12])([C:4]([N:5]([C:6](=[O:7])[H:16])[H:15])([H:13])[H:14])[H:11])([H:8])([H:9])[H:10]>>[C-:6]#[O+:7].[C:1]([C@@:2]([O:3][H:12])([C:4]([N:5]([H:15])[H:16])([H:13])[H:14])[H:11])([H:8])([H:9])[H:10]"
C       -2.08030590      -0.69096538      -0.21715053
C       -0.63070764      -0.40138729      -0.55052017
O       -0.58958539       0.81625613      -1.25813593
C        0.23572663      -0.32694359       0.70499111
N        1.65299811      -0.11863181       0.41178775
C        2.09852625       1.83362188       0.36619614
O        1.71895392       2.67175289      -0.35426720
H       -2.18845668      -1.66246276       0.26909549
H       -2.67808710      -0.68496697      -1.12843604
H       -2.47634723       0.08010865       0.44756156
H       -0.24155759      -1.22146049      -1.17643960
H        0.34957641       0.98825168      -1.41599564
H       -0.12253873       0.50133076       1.32221545
H        0.09249328      -1.23825360       1.29381797
H        2.13439711      -0.99467758       0.26733190
H        2.72491454       0.44842748       1.01794774
16
Frame=16 idx=006620 GeodesicLength=1.354075919575523 rxn_smarts="[C:1]([C@@:2]([O:3][H:12])([C:4]([N:5]([C:6](=[O:7])[H:16])[H:15])([H:13])[H:14])[H:11])([H:8])([H:9])[H:10]>>[C-:6]#[O+:7].[C:1]([C@@:2]([O:3][H:12])([C:4]([N:5]([H:15])[H:16])([H:13])[H:14])[H:11])([H:8])([H:9])[H:10]"
C       -2.08170483      -0.68135499      -0.21518731
C       -0.62975530      -0.40815584      -0.55149673
O       -0.57576853       0.80740683      -1.26229906
C        0.24047252      -0.33846887       0.70158852
N        1.65655494      -0.12845060       0.40285073
C        2.06302357       1.86734914       0.38217644
O        1.71012935       2.70940268      -0.34575699
H       -2.19904959      -1.64955704       0.27550952
H       -2.68084513      -0.67269576      -1.12557516
H       -2.46868050       0.09651009       0.44697569
H       -0.25001256      -1.23403758      -1.17555037
H        0.36553444       0.95965288      -1.42789135
H       -0.11774806       0.48553876       1.32448926
H        0.09695719      -1.25217837       1.28685782
H        2.13659192      -1.00890967       0.28432686
H        2.73430057       0.44794833       0.99898215
