11
Frame=0 idx=003051 GeodesicLength=0.0 rxn_smarts="[O:1]([C@@:2]1([H:8])[C:3]([H:9])([H:10])[C@:4]1([C:5]#[N:6])[H:11])[H:7]>>[O:1]([C@@:2]1([H:8])[C:3]([H:9])([H:10])[N:6]=[C:5]=[C:4]1[H:11])[H:7]"
O       -0.71304816       1.45434272      -0.82265378
C       -0.73386401       0.28279645      -0.06915637
C       -0.00219701      -0.83715970      -0.69147449
C        0.31702084       0.08546663       0.97109685
C        1.76759934       0.42250684       0.83027908
N        1.62917750      -0.55898083       0.03754426
H       -0.59732146       2.20430473      -0.23515035
H       -1.72301175       0.02743115       0.31426147
H       -0.34545743      -1.83453673      -0.44948212
H        0.35188782      -0.70753926      -1.70425205
H        0.04921435      -0.53863198       1.81898745
11
Frame=1 idx=003051 GeodesicLength=0.08956690261534454 rxn_smarts="[O:1]([C@@:2]1([H:8])[C:3]([H:9])([H:10])[C@:4]1([C:5]#[N:6])[H:11])[H:7]>>[O:1]([C@@:2]1([H:8])[C:3]([H:9])([H:10])[N:6]=[C:5]=[C:4]1[H:11])[H:7]"
O       -0.73296578       1.45111619      -0.81792690
C       -0.73765394       0.28022105      -0.06554187
C        0.00371316      -0.83534982      -0.68994770
C        0.31483247       0.08422212       0.97474907
C        1.75549258       0.41583708       0.81570342
N        1.65571489      -0.57700014       0.04018345
H       -0.58149337       2.20215340      -0.24022147
H       -1.72540740       0.01566279       0.31523437
H       -0.35139507      -1.83441828      -0.47150990
H        0.35518308      -0.69180155      -1.70227588
H        0.04397937      -0.51064284       1.84155341
11
Frame=2 idx=003051 GeodesicLength=0.17909955570662692 rxn_smarts="[O:1]([C@@:2]1([H:8])[C:3]([H:9])([H:10])[C@:4]1([C:5]#[N:6])[H:11])[H:7]>>[O:1]([C@@:2]1([H:8])[C:3]([H:9])([H:10])[N:6]=[C:5]=[C:4]1[H:11])[H:7]"
O       -0.75313024       1.44789248      -0.81244163
C       -0.74166229       0.27749921      -0.06172533
C        0.00960279      -0.83341838      -0.68838444
C        0.31245579       0.08290897       0.97863729
C        1.74356116       0.40712428       0.80150177
N        1.68269940      -0.59467676       0.04235088
H       -0.56588099       2.19947275      -0.24625355
H       -1.72786586       0.00346673       0.31636407
H       -0.35689627      -1.83380550      -0.49424743
H        0.35846519      -0.67561398      -1.70002424
H        0.03865132      -0.48084981       1.86422260
11
Frame=3 idx=003051 GeodesicLength=0.26859544422330645 rxn_smarts="[O:1]([C@@:2]1([H:8])[C:3]([H:9])([H:10])[C@:4]1([C:5]#[N:6])[H:11])[H:7]>>[O:1]([C@@:2]1([H:8])[C:3]([H:9])([H:10])[N:6]=[C:5]=[C:4]1[H:11])[H:7]"
O       -0.77344566       1.44467692      -0.80616806
C       -0.74587086       0.27461539      -0.05771160
C        0.01544626      -0.83139952      -0.68679148
C        0.30987213       0.08145589       0.98278075
C        1.73177122       0.39633675       0.78783398
N        1.71017871      -0.61188894       0.04390315
H       -0.55050278       2.19622525      -0.25322370
H       -1.73038054      -0.00913405       0.31762040
H       -0.36196111      -1.83269801      -0.51766504
H        0.36166420      -0.65902161      -1.69750681
H        0.03322842      -0.44916806       1.88692841
11
Frame=4 idx=003051 GeodesicLength=0.3580574684422718 rxn_smarts="[O:1]([C@@:2]1([H:8])[C:3]([H:9])([H:10])[C@:4]1([C:5]#[N:6])[H:11])[H:7]>>[O:1]([C@@:2]1([H:8])[C:3]([H:9])([H:10])[N:6]=[C:5]=[C:4]1[H:11])[H:7]"
O       -0.79381472       1.44147754      -0.79907472
C       -0.75026196       0.27155093      -0.05350700
C        0.02121774      -0.82933230      -0.68517767
C        0.30705731       0.07977925       0.98720211
C        1.72008096       0.38343727       0.77486209
N        1.73820893      -0.62849624       0.04468648
H       -0.53536145       2.19236938      -0.26109257
H       -1.73294885      -0.02211765       0.31896667
H       -0.36659131      -1.83110211      -0.54172674
H        0.36471032      -0.64207313      -1.69473569
H        0.02770305      -0.41549295       1.90959703
11
Frame=5 idx=003051 GeodesicLength=0.44748575837866966 rxn_smarts="[O:1]([C@@:2]1([H:8])[C:3]([H:9])([H:10])[C@:4]1([C:5]#[N:6])[H:11])[H:7]>>[O:1]([C@@:2]1([H:8])[C:3]([H:9])([H:10])[N:6]=[C:5]=[C:4]1[H:11])[H:7]"
O       -0.81412976       1.43830293      -0.79113225
C       -0.75481532       0.26828581      -0.04911869
C        0.02689354      -0.82725899      -0.68355044
C        0.30398355       0.07778577       0.99192893
C        1.70844575       0.36837510       0.76274420
N        1.76685238      -0.64435139       0.04454384
H       -0.52047273       2.18786461      -0.26980239
H       -1.73557039      -0.03545908       0.32035949
H       -0.37079729      -1.82902501      -0.56639450
H        0.36754189      -0.62482025      -1.69171864
H        0.02206839      -0.37969950       1.93214046
11
Frame=6 idx=003051 GeodesicLength=0.5368794422048454 rxn_smarts="[O:1]([C@@:2]1([H:8])[C:3]([H:9])([H:10])[C@:4]1([C:5]#[N:6])[H:11])[H:7]>>[O:1]([C@@:2]1([H:8])[C:3]([H:9])([H:10])[N:6]=[C:5]=[C:4]1[H:11])[H:7]"
O       -0.83427697       1.43516371      -0.78231250
C       -0.75951054       0.26479803      -0.04455507
C        0.03245158      -0.82522610      -0.68191672
C        0.30061695       0.07537019       0.99699392
C        1.69681506       0.35107911       0.75163428
N        1.79617566      -0.65929239       0.04331465
H       -0.50585564       2.18267219      -0.27927256
H       -1.73824969      -0.04913158       0.32174818
H       -0.37459269      -1.82647847      -0.59162671
H        0.37010567      -0.60731851      -1.68845987
H        0.01632061      -0.34163616       1.95445239
11
Frame=7 idx=003051 GeodesicLength=0.6262393914876156 rxn_smarts="[O:1]([C@@:2]1([H:8])[C:3]([H:9])([H:10])[C@:4]1([C:5]#[N:6])[H:11])[H:7]>>[O:1]([C@@:2]1([H:8])[C:3]([H:9])([H:10])[N:6]=[C:5]=[C:4]1[H:11])[H:7]"
O       -0.85413953       1.43207091      -0.77258733
C       -0.76432817       0.26106224      -0.03982576
C        0.03786984      -0.82328419      -0.68028340
C        0.29691520       0.07241391       1.00243636
C        1.68513147       0.33145034       0.74168377
N        1.82625010      -0.67313357       0.04083678
H       -0.49152472       2.17675291      -0.28939805
H       -1.74099643      -0.06310919       0.32307405
H       -0.37799452      -1.82347953      -0.61737722
H        0.37235534      -0.58962448      -1.68496051
H        0.01046142      -0.30111934       1.97640130
11
Frame=8 idx=003051 GeodesicLength=0.7155653961496724 rxn_smarts="[O:1]([C@@:2]1([H:8])[C:3]([H:9])([H:10])[C@:4]1([C:5]#[N:6])[H:11])[H:7]>>[O:1]([C@@:2]1([H:8])[C:3]([H:9])([H:10])[N:6]=[C:5]=[C:4]1[H:11])[H:7]"
O       -0.87358707       1.42903949      -0.76193859
C       -0.76924834       0.25705437      -0.03494251
C        0.04313179      -0.82149015      -0.67865256
C        0.29282905       0.06878746       1.00830174
C        1.67333146       0.30934483       0.73303369
N        1.85714644      -0.68567586       0.03695302
H       -0.47752882       2.17008383      -0.30003547
H       -1.74382885      -0.07735602       0.32427114
H       -0.38102280      -1.82005079      -0.64359831
H        0.37426524      -0.57180440      -1.68121038
H        0.00451191      -0.25793276       1.99781824
11
Frame=9 idx=003051 GeodesicLength=0.8048568870391083 rxn_smarts="[O:1]([C@@:2]1([H:8])[C:3]([H:9])([H:10])[C@:4]1([C:5]#[N:6])[H:11])[H:7]>>[O:1]([C@@:2]1([H:8])[C:3]([H:9])([H:10])[N:6]=[C:5]=[C:4]1[H:11])[H:7]"
O       -0.89250433       1.42606918      -0.75032939
C       -0.77425561       0.25274078      -0.02991234
C        0.04820368      -0.81989898      -0.67702777
C        0.28829188       0.06435655       1.01465067
C        1.66133049       0.28460032       0.72583620
N        1.88893929      -0.69664290       0.03151538
H       -0.46383023       2.16261430      -0.31104030
H       -1.74676587      -0.09185340       0.32526523
H       -0.38370637      -1.81621920      -0.67022849
H        0.37579458      -0.55391366      -1.67720239
H       -0.00149752      -0.21185298       2.01847321
11
Frame=10 idx=003051 GeodesicLength=0.8941135343787814 rxn_smarts="[O:1]([C@@:2]1([H:8])[C:3]([H:9])([H:10])[C@:4]1([C:5]#[N:6])[H:11])[H:7]>>[O:1]([C@@:2]1([H:8])[C:3]([H:9])([H:10])[N:6]=[C:5]=[C:4]1[H:11])[H:7]"
O       -0.91074175       1.42318238      -0.73776891
C       -0.77933593       0.24810150      -0.02475216
C        0.05306831      -0.81858146      -0.67540081
C        0.28322828       0.05897652       1.02155031
C        1.64904605       0.25695020       0.72023460
N        1.92169359      -0.70573681       0.02438461
H       -0.45050651       2.15435593      -0.32220007
H       -1.74984903      -0.10654436       0.32597475
H       -0.38606733      -1.81203040      -0.69719540
H        0.37694380      -0.53603868      -1.67291050
H       -0.00747946      -0.16263480       2.03808357
11
Frame=11 idx=003051 GeodesicLength=0.9833304641002303 rxn_smarts="[O:1]([C@@:2]1([H:8])[C:3]([H:9])([H:10])[C@:4]1([C:5]#[N:6])[H:11])[H:7]>>[O:1]([C@@:2]1([H:8])[C:3]([H:9])([H:10])[N:6]=[C:5]=[C:4]1[H:11])[H:7]"
O       -0.92815236       1.42039136      -0.72427307
C       -0.78447677       0.24312169      -0.01947717
C        0.05769800      -0.81761033      -0.67375064
C        0.27754170       0.05252057       1.02907876
C        1.63636141       0.22606720       0.71637352
N        1.95545821      -0.71256266       0.01544838
H       -0.43759759       2.14532373      -0.33328537
H       -1.75311842      -0.12135922       0.32631108
H       -0.38812908      -1.80753656      -0.72439932
H        0.37771288      -0.51827643      -1.66829184
H       -0.01329799      -0.11007936       2.05626567
11
Frame=12 idx=003051 GeodesicLength=1.072599929255632 rxn_smarts="[O:1]([C@@:2]1([H:8])[C:3]([H:9])([H:10])[C@:4]1([C:5]#[N:6])[H:11])[H:7]>>[O:1]([C@@:2]1([H:8])[C:3]([H:9])([H:10])[N:6]=[C:5]=[C:4]1[H:11])[H:7]"
O       -0.94460873       1.41774421      -0.70995311
C       -0.78969391       0.23781831      -0.01411190
C        0.06207871      -0.81707325      -0.67204887
C        0.27113075       0.04487609       1.03734569
C        1.62319696       0.19146846       0.71439757
N        1.99034773      -0.71667837       0.00463260
H       -0.42525815       2.13561949      -0.34403125
H       -1.75668673      -0.13616389       0.32620368
H       -0.38991299      -1.80280852      -0.75170455
H        0.37815412      -0.50075179      -1.66333497
H       -0.01874776      -0.05405076       2.07260510
11
Frame=13 idx=003051 GeodesicLength=1.16166029617409 rxn_smarts="[O:1]([C@@:2]1([H:8])[C:3]([H:9])([H:10])[C@:4]1([C:5]#[N:6])[H:11])[H:7]>>[O:1]([C@@:2]1([H:8])[C:3]([H:9])([H:10])[N:6]=[C:5]=[C:4]1[H:11])[H:7]"
O       -0.95993253       1.41513079      -0.69476997
C       -0.79493098       0.23220185      -0.00866168
C        0.06606196      -0.81697716      -0.67016516
C        0.26387783       0.03620834       1.04637573
C        1.60926727       0.15286692       0.71443568
N        2.02617948      -0.71713831      -0.00797723
H       -0.41311294       2.12512420      -0.35443787
H       -1.76046312      -0.15088157       0.32552871
H       -0.39154026      -1.79785543      -0.77884189
H        0.37812585      -0.48358167      -1.65780365
H       -0.02353256       0.00490204       2.08631732
11
Frame=14 idx=003051 GeodesicLength=1.25075208578328 rxn_smarts="[O:1]([C@@:2]1([H:8])[C:3]([H:9])([H:10])[C@:4]1([C:5]#[N:6])[H:11])[H:7]>>[O:1]([C@@:2]1([H:8])[C:3]([H:9])([H:10])[N:6]=[C:5]=[C:4]1[H:11])[H:7]"
O       -0.97401196       1.41271411      -0.67912581
C       -0.80024870       0.22642466      -0.00318986
C        0.06964600      -0.81744955      -0.66803890
C        0.25569891       0.02661312       1.05627802
C        1.59452570       0.10937051       0.71663911
N        2.06313012      -0.71316557      -0.02236435
H       -0.40154567       2.11419481      -0.36429603
H       -1.76467747      -0.16514462       0.32428400
H       -0.39300805      -1.79285242      -0.80548919
H        0.37776287      -0.46703468      -1.65175469
H       -0.02727175       0.06632964       2.09705771
11
Frame=15 idx=003051 GeodesicLength=1.3398042995123232 rxn_smarts="[O:1]([C@@:2]1([H:8])[C:3]([H:9])([H:10])[C@:4]1([C:5]#[N:6])[H:11])[H:7]>>[O:1]([C@@:2]1([H:8])[C:3]([H:9])([H:10])[N:6]=[C:5]=[C:4]1[H:11])[H:7]"
O       -0.98671758       1.41050707      -0.66331974
C       -0.80564107       0.22065499       0.00225097
C        0.07269241      -0.81852976      -0.66553851
C        0.24654963       0.01654019       1.06701617
C        1.57872496       0.06008947       0.72110098
N        2.10107787      -0.70334003      -0.03830190
H       -0.39041336       2.10296272      -0.37378234
H       -1.76936464      -0.17860995       0.32247589
H       -0.39442550      -1.78790992      -0.83119722
H        0.37703582      -0.45136755      -1.64507769
H       -0.02951854       0.12900277       2.10437339
11
Frame=16 idx=003051 GeodesicLength=1.428613578927371 rxn_smarts="[O:1]([C@@:2]1([H:8])[C:3]([H:9])([H:10])[C@:4]1([C:5]#[N:6])[H:11])[H:7]>>[O:1]([C@@:2]1([H:8])[C:3]([H:9])([H:10])[N:6]=[C:5]=[C:4]1[H:11])[H:7]"
O       -0.99795771       1.40856972      -0.64758180
C       -0.81106810       0.21510527       0.00763584
C        0.07497093      -0.82017316      -0.66247992
C        0.23648134       0.00668421       1.07834855
C        1.56141931       0.00385012       0.72776085
N        2.13959898      -0.68548845      -0.05532628
H       -0.37909409       2.09142491      -0.38378172
H       -1.77442563      -0.19095467       0.32026882
H       -0.39594812      -1.78313419      -0.85532820
H        0.37584554      -0.43672816      -1.63754994
H       -0.02982244       0.19084441       2.10803379
