12
Frame=0 idx=002638 GeodesicLength=0.0 rxn_smarts="[C:1]([C:2]([C:3]#[C:4][C:5]#[C:6][H:12])([H:10])[H:11])([H:7])([H:8])[H:9]>>[C:1]([C:2]([C:4](=[C:3])[C:5]#[C:6][H:12])([H:10])[H:11])([H:7])([H:8])[H:9]"
C       -1.50240955       0.75712161      -0.51567373
C       -0.87461513      -0.40561931       0.21656431
C       -0.12333635      -1.47824475      -1.01839981
C        0.77536865      -0.91618556      -0.34002972
C        1.92898103      -0.39635714       0.22445719
C        2.92456255       0.05877855       0.71451849
H       -2.20734872       1.27257235       0.14159149
H       -0.74249434       1.47522193      -0.82606498
H       -2.03130745       0.41511230      -1.40404827
H       -1.58127716      -1.16843260       0.53013663
H       -0.38017824      -0.07142688       1.13420548
H        3.81405466       0.45745955       1.14274291
12
Frame=1 idx=002638 GeodesicLength=0.05429799116670566 rxn_smarts="[C:1]([C:2]([C:3]#[C:4][C:5]#[C:6][H:12])([H:10])[H:11])([H:7])([H:8])[H:9]>>[C:1]([C:2]([C:4](=[C:3])[C:5]#[C:6][H:12])([H:10])[H:11])([H:7])([H:8])[H:9]"
C       -1.50000770       0.76026477      -0.51695110
C       -0.89783295      -0.41504487       0.21875437
C       -0.10413506      -1.48519982      -0.99142322
C        0.77773299      -0.91825405      -0.29768251
C        1.92617904      -0.37217949       0.25279568
C        2.94738360       0.06809969       0.70213453
H       -2.23513551       1.25999177       0.11889159
H       -0.73152199       1.48784572      -0.78050719
H       -1.98994774       0.43501599      -1.43360276
H       -1.62105331      -1.17711104       0.49632421
H       -0.44138036      -0.09561440       1.16100790
H        3.86971898       0.45218574       1.07025851
12
Frame=2 idx=002638 GeodesicLength=0.10669251193658666 rxn_smarts="[C:1]([C:2]([C:3]#[C:4][C:5]#[C:6][H:12])([H:10])[H:11])([H:7])([H:8])[H:9]>>[C:1]([C:2]([C:4](=[C:3])[C:5]#[C:6][H:12])([H:10])[H:11])([H:7])([H:8])[H:9]"
C       -1.49768401       0.76383723      -0.51767480
C       -0.91922425      -0.42317233       0.22031904
C       -0.08486068      -1.49135381      -0.96381908
C        0.78058707      -0.91828332      -0.25692668
C        1.92593961      -0.35511643       0.28337970
C        2.97013860       0.07041956       0.69256323
H       -2.26248790       1.24724581       0.09521547
H       -0.72376307       1.50097869      -0.73446059
H       -1.94747666       0.45508906      -1.46033531
H       -1.65680584      -1.18445393       0.46229297
H       -0.50130785      -0.11808502       1.18493811
H        3.91694500       0.45289449       0.99450793
12
Frame=3 idx=002638 GeodesicLength=0.15697932661608516 rxn_smarts="[C:1]([C:2]([C:3]#[C:4][C:5]#[C:6][H:12])([H:10])[H:11])([H:7])([H:8])[H:9]>>[C:1]([C:2]([C:4](=[C:3])[C:5]#[C:6][H:12])([H:10])[H:11])([H:7])([H:8])[H:9]"
C       -1.49509051       0.76672323      -0.51776452
C       -0.93854080      -0.43077342       0.22220111
C       -0.06670320      -1.49897433      -0.93444363
C        0.78380243      -0.91812356      -0.21807320
C        1.92754882      -0.33380808       0.30381210
C        2.98862451       0.08108811       0.67943763
H       -2.28715856       1.23506853       0.07158237
H       -0.71832434       1.51243076      -0.69041249
H       -1.90576346       0.47331398      -1.48299671
H       -1.68858514      -1.19068082       0.43052941
H       -0.55815216      -0.13886214       1.20623237
H        3.95834242       0.44259773       0.92989557
12
Frame=4 idx=002638 GeodesicLength=0.2056547248810413 rxn_smarts="[C:1]([C:2]([C:3]#[C:4][C:5]#[C:6][H:12])([H:10])[H:11])([H:7])([H:8])[H:9]>>[C:1]([C:2]([C:4](=[C:3])[C:5]#[C:6][H:12])([H:10])[H:11])([H:7])([H:8])[H:9]"
C       -1.49187019       0.76979641      -0.51707210
C       -0.95584671      -0.43754743       0.22413698
C       -0.05122289      -1.50812703      -0.90463614
C        0.78679749      -0.91878529      -0.18267288
C        1.93196525      -0.31718597       0.31698995
C        3.00623308       0.08977998       0.66294446
H       -2.30861754       1.22438103       0.04872791
H       -0.71415886       1.52288431      -0.64822991
H       -1.86505210       0.49107446      -1.50177069
H       -1.71715249      -1.19506269       0.40114929
H       -0.61121767      -0.15808574       1.22481624
H        3.99014264       0.43687796       0.87561690
12
Frame=5 idx=002638 GeodesicLength=0.2535344972224502 rxn_smarts="[C:1]([C:2]([C:3]#[C:4][C:5]#[C:6][H:12])([H:10])[H:11])([H:7])([H:8])[H:9]>>[C:1]([C:2]([C:4](=[C:3])[C:5]#[C:6][H:12])([H:10])[H:11])([H:7])([H:8])[H:9]"
C       -1.49008516       0.77244190      -0.51625125
C       -0.97174037      -0.44316646       0.22614492
C       -0.03625438      -1.51696754      -0.87388628
C        0.79032150      -0.91692725      -0.14963723
C        1.93849519      -0.29925960       0.32398773
C        3.02465767       0.09617278       0.64566163
H       -2.33008805       1.21329251       0.02569069
H       -0.71415454       1.53308353      -0.60824833
H       -1.82650464       0.50697236      -1.51779885
H       -1.74219781      -1.19862332       0.37371595
H       -0.66215624      -0.17474762       1.24120012
H        4.01970684       0.42772871       0.82942091
12
Frame=6 idx=002638 GeodesicLength=0.3008693632562403 rxn_smarts="[C:1]([C:2]([C:3]#[C:4][C:5]#[C:6][H:12])([H:10])[H:11])([H:7])([H:8])[H:9]>>[C:1]([C:2]([C:4](=[C:3])[C:5]#[C:6][H:12])([H:10])[H:11])([H:7])([H:8])[H:9]"
C       -1.48823170       0.77508977      -0.51507059
C       -0.98717889      -0.44853393       0.22818177
C       -0.02159589      -1.52592028      -0.84175519
C        0.79382084      -0.91443313      -0.11644931
C        1.94608612      -0.28270675       0.32916135
C        3.04230522       0.10419576       0.62648887
H       -2.35072461       1.20226205       0.00173064
H       -0.71583314       1.54296786      -0.56800695
H       -1.78707929       0.52287641      -1.53192721
H       -1.76572829      -1.20182908       0.34597738
H       -0.71344669      -0.19118572       1.25632228
H        4.04760632       0.41721705       0.78534696
12
Frame=7 idx=002638 GeodesicLength=0.3475421970569941 rxn_smarts="[C:1]([C:2]([C:3]#[C:4][C:5]#[C:6][H:12])([H:10])[H:11])([H:7])([H:8])[H:9]>>[C:1]([C:2]([C:4](=[C:3])[C:5]#[C:6][H:12])([H:10])[H:11])([H:7])([H:8])[H:9]"
C       -1.48593076       0.77791442      -0.51347718
C       -1.00212568      -0.45370158       0.23018447
C       -0.00783115      -1.53529538      -0.80858009
C        0.79710715      -0.91207628      -0.08350794
C        1.95486563      -0.26928460       0.33245541
C        3.05921279       0.11226407       0.60588440
H       -2.36955376       1.19202522      -0.02258493
H       -0.71841237       1.55230245      -0.52797085
H       -1.74719511       0.53902105      -1.54389358
H       -1.78794462      -1.20446351       0.31798722
H       -0.76478514      -0.20761955       1.27006360
H        4.07259301       0.40891368       0.74343947
12
Frame=8 idx=002638 GeodesicLength=0.3939071379352856 rxn_smarts="[C:1]([C:2]([C:3]#[C:4][C:5]#[C:6][H:12])([H:10])[H:11])([H:7])([H:8])[H:9]>>[C:1]([C:2]([C:4](=[C:3])[C:5]#[C:6][H:12])([H:10])[H:11])([H:7])([H:8])[H:9]"
C       -1.48420978       0.78069666      -0.51168327
C       -1.01667456      -0.45841119       0.23215794
C        0.00603079      -1.54412256      -0.77402743
C        0.80055402      -0.90801055      -0.05055497
C        1.96481384      -0.25677890       0.33457982
C        3.07645046       0.11969325       0.58470504
H       -2.38826547       1.18145304      -0.04786737
H       -0.72362346       1.56163025      -0.48808351
H       -1.70717924       0.55491842      -1.55406812
H       -1.80832133      -1.20692758       0.28966043
H       -0.81667539      -0.22349998       1.28242474
H        4.09710011       0.39935914       0.70275670
12
Frame=9 idx=002638 GeodesicLength=0.44011069025462674 rxn_smarts="[C:1]([C:2]([C:3]#[C:4][C:5]#[C:6][H:12])([H:10])[H:11])([H:7])([H:8])[H:9]>>[C:1]([C:2]([C:4](=[C:3])[C:5]#[C:6][H:12])([H:10])[H:11])([H:7])([H:8])[H:9]"
C       -1.48217611       0.78372828      -0.50954751
C       -1.03126150      -0.46301526       0.23405174
C        0.01987511      -1.55277962      -0.73764933
C        0.80375743      -0.90326257      -0.01630299
C        1.97548456      -0.24673801       0.33778026
C        3.09376833       0.12565351       0.56333279
H       -2.40624031       1.17091262      -0.07476987
H       -0.73031808       1.57089701      -0.44696943
H       -1.66510719       0.57160158      -1.56262304
H       -1.82768041      -1.20920019       0.25983512
H       -0.87037021      -0.23986763       1.29356775
H        4.12026837       0.39207029       0.65929452
12
Frame=10 idx=002638 GeodesicLength=0.48586994063470046 rxn_smarts="[C:1]([C:2]([C:3]#[C:4][C:5]#[C:6][H:12])([H:10])[H:11])([H:7])([H:8])[H:9]>>[C:1]([C:2]([C:4](=[C:3])[C:5]#[C:6][H:12])([H:10])[H:11])([H:7])([H:8])[H:9]"
C       -1.48086995       0.78670192      -0.50724308
C       -1.04523554      -0.46711702       0.23586495
C        0.03347075      -1.56083906      -0.70030027
C        0.80719015      -0.89684486       0.01706210
C        1.98751961      -0.23800649       0.33885739
C        3.11134329       0.13062878       0.54195973
H       -2.42331554       1.16063895      -0.10154089
H       -0.73941844       1.57984550      -0.40748998
H       -1.62468049       0.58768880      -1.56899455
H       -1.84487399      -1.21127053       0.23012229
H       -0.92384423      -0.25559088       1.30300846
H        4.14271440       0.38416489       0.61869387
12
Frame=11 idx=002638 GeodesicLength=0.5313460362673331 rxn_smarts="[C:1]([C:2]([C:3]#[C:4][C:5]#[C:6][H:12])([H:10])[H:11])([H:7])([H:8])[H:9]>>[C:1]([C:2]([C:4](=[C:3])[C:5]#[C:6][H:12])([H:10])[H:11])([H:7])([H:8])[H:9]"
C       -1.48038961       0.78961306      -0.50474712
C       -1.05859488      -0.47064291       0.23779717
C        0.04646499      -1.56850152      -0.66183883
C        0.81081672      -0.88873843       0.04905410
C        2.00095935      -0.23052117       0.33648465
C        3.12953433       0.13398508       0.51954072
H       -2.43988513       1.15030976      -0.12834465
H       -0.75107579       1.58866989      -0.36937255
H       -1.58566977       0.60322325      -1.57336946
H       -1.86000117      -1.21302306       0.20110787
H       -0.97670812      -0.27046237       1.31088854
H        4.16454908       0.37608842       0.58279957
12
Frame=12 idx=002638 GeodesicLength=0.5768318940281255 rxn_smarts="[C:1]([C:2]([C:3]#[C:4][C:5]#[C:6][H:12])([H:10])[H:11])([H:7])([H:8])[H:9]>>[C:1]([C:2]([C:4](=[C:3])[C:5]#[C:6][H:12])([H:10])[H:11])([H:7])([H:8])[H:9]"
C       -1.48118028       0.79245672      -0.50217195
C       -1.07142391      -0.47346651       0.23986147
C        0.05933440      -1.57518544      -0.62208347
C        0.81478116      -0.87804300       0.07976714
C        2.01585427      -0.22400612       0.33184974
C        3.14891591       0.13504419       0.49674888
H       -2.45689543       1.13914916      -0.15579199
H       -0.76623069       1.59781131      -0.33214675
H       -1.54778560       0.61838913      -1.57605175
H       -1.87290665      -1.21466661       0.17267379
H       -1.02926851      -0.28440652       1.31727522
H        4.18680533       0.36692369       0.55006969
12
Frame=13 idx=002638 GeodesicLength=0.622422198107569 rxn_smarts="[C:1]([C:2]([C:3]#[C:4][C:5]#[C:6][H:12])([H:10])[H:11])([H:7])([H:8])[H:9]>>[C:1]([C:2]([C:4](=[C:3])[C:5]#[C:6][H:12])([H:10])[H:11])([H:7])([H:8])[H:9]"
C       -1.48437268       0.79489870      -0.49960547
C       -1.08331278      -0.47531660       0.24228563
C        0.07232300      -1.58024773      -0.58143960
C        0.81963291      -0.86337979       0.10749573
C        2.03255274      -0.21654840       0.32196222
C        3.16980764       0.13627375       0.47007468
H       -2.47509274       1.12662557      -0.18274385
H       -0.78599621       1.60731971      -0.29750750
H       -1.51367150       0.63220667      -1.57701139
H       -1.88287428      -1.21647879       0.14626243
H       -1.08003820      -0.29666930       1.32231586
H        4.21104210       0.35131620       0.52791126
12
Frame=14 idx=002638 GeodesicLength=0.6683949566722546 rxn_smarts="[C:1]([C:2]([C:3]#[C:4][C:5]#[C:6][H:12])([H:10])[H:11])([H:7])([H:8])[H:9]>>[C:1]([C:2]([C:4](=[C:3])[C:5]#[C:6][H:12])([H:10])[H:11])([H:7])([H:8])[H:9]"
C       -1.48978629       0.79714754      -0.49716047
C       -1.09444764      -0.47618746       0.24494797
C        0.08570356      -1.58333707      -0.53983583
C        0.82528062      -0.84471938       0.13266153
C        2.05106189      -0.20941489       0.30929705
C        3.19272043       0.13483175       0.44235341
H       -2.49453131       1.11267793      -0.20963533
H       -0.81021138       1.61738419      -0.26491899
H       -1.48268494       0.64532822      -1.57660836
H       -1.89015878      -1.21847200       0.12121286
H       -1.12962420      -0.30766375       1.32606626
H        4.23667804       0.33242493       0.51161991
12
Frame=15 idx=002638 GeodesicLength=0.7147767627313059 rxn_smarts="[C:1]([C:2]([C:3]#[C:4][C:5]#[C:6][H:12])([H:10])[H:11])([H:7])([H:8])[H:9]>>[C:1]([C:2]([C:4](=[C:3])[C:5]#[C:6][H:12])([H:10])[H:11])([H:7])([H:8])[H:9]"
C       -1.49596858       0.79953958      -0.49461759
C       -1.10540458      -0.47656913       0.24780723
C        0.09924856      -1.58524011      -0.49621412
C        0.83110642      -0.82365136       0.15725499
C        2.07063071      -0.20468679       0.29770136
C        3.21670057       0.13104939       0.41264392
H       -2.51406944       1.09789863      -0.23779235
H       -0.83731012       1.62771118      -0.23233006
H       -1.45151974       0.65905994      -1.57479113
H       -1.89573288      -1.22046789       0.09582281
H       -1.17993848      -0.31872172       1.32857588
H        4.26225755       0.31407829       0.49593904
12
Frame=16 idx=002638 GeodesicLength=0.7616525606332978 rxn_smarts="[C:1]([C:2]([C:3]#[C:4][C:5]#[C:6][H:12])([H:10])[H:11])([H:7])([H:8])[H:9]>>[C:1]([C:2]([C:4](=[C:3])[C:5]#[C:6][H:12])([H:10])[H:11])([H:7])([H:8])[H:9]"
C       -1.50339221       0.80200476      -0.49203514
C       -1.11592823      -0.47623887       0.25095584
C        0.11279244      -1.58568859      -0.45097807
C        0.83733331      -0.79974332       0.17985551
C        2.09154972      -0.20217133       0.28552681
C        3.24220738       0.12351036       0.38110089
H       -2.53385837       1.08223142      -0.26648301
H       -0.86762016       1.63829384      -0.20072832
H       -1.42162778       0.67305130      -1.57154869
H       -1.89928448      -1.22240013       0.07098407
H       -1.22991921      -0.32939008       1.32987538
H        4.28774759       0.29654063       0.48347474
