15
Frame=0 idx=011501 GeodesicLength=0.0 rxn_smarts="[O:1]([C@@:2]1([H:9])[C:3]([H:10])([H:11])[C@:4]2([C:5]([H:12])([H:13])[O:6]2)[C:7]1([H:14])[H:15])[H:8]>>[C-:4]1=[O+:6][C:5]1([H:12])[H:13].[O:1]([C:2]([C:3]([H:9])([H:10])[H:11])=[C:7]([H:14])[H:15])[H:8]"
O       -1.21859091       1.11714345      -0.06320247
C       -0.84802931       0.06614643       0.71460760
C       -0.13090982      -1.05954480      -0.05843518
C        1.42945974      -0.35278177      -0.47009998
C        1.39732097       0.42194333      -1.73692789
O        1.43248844       1.02743908      -0.43633812
C       -0.87623291       0.09935508       2.05996952
H       -0.38486645       1.54756122      -0.32508217
H       -1.42028173      -1.01187209       0.22532668
H       -0.45839092      -1.28126678      -1.07505551
H        0.10341523      -1.92027245       0.55372112
H        2.30835940       0.52408246      -2.31657823
H        0.46954279       0.58810750      -2.27916370
H       -1.19643342       1.00073647       2.56058014
H       -0.60685109      -0.76677713       2.64667815
15
Frame=1 idx=011501 GeodesicLength=0.12650191868513208 rxn_smarts="[O:1]([C@@:2]1([H:9])[C:3]([H:10])([H:11])[C@:4]2([C:5]([H:12])([H:13])[O:6]2)[C:7]1([H:14])[H:15])[H:8]>>[C-:4]1=[O+:6][C:5]1([H:12])[H:13].[O:1]([C:2]([C:3]([H:9])([H:10])[H:11])=[C:7]([H:14])[H:15])[H:8]"
O       -1.27546910       1.10670186      -0.05140720
C       -0.87930076       0.05623574       0.71574846
C       -0.16120774      -1.06284687      -0.05962002
C        1.41822420      -0.32833056      -0.45498827
C        1.43183504       0.42441254      -1.73460509
O        1.41304460       1.04976066      -0.44288900
C       -0.81089199       0.11016467       2.06307426
H       -0.45514065       1.53725983      -0.34894834
H       -1.45708968      -1.02996194       0.23478680
H       -0.46625651      -1.27591554      -1.08419751
H        0.06832522      -1.93992786       0.53169597
H        2.36433953       0.52694076      -2.27889048
H        0.52313609       0.58012493      -2.31109871
H       -1.12448878       1.01237034       2.56767722
H       -0.58905947      -0.76698856       2.65366191
15
Frame=2 idx=011501 GeodesicLength=0.25298201309459084 rxn_smarts="[O:1]([C@@:2]1([H:9])[C:3]([H:10])([H:11])[C@:4]2([C:5]([H:12])([H:13])[O:6]2)[C:7]1([H:14])[H:15])[H:8]>>[C-:4]1=[O+:6][C:5]1([H:12])[H:13].[O:1]([C:2]([C:3]([H:9])([H:10])[H:11])=[C:7]([H:14])[H:15])[H:8]"
O       -1.33304160       1.09545688      -0.03633131
C       -0.91111557       0.04499414       0.71860159
C       -0.19297103      -1.06673329      -0.06133533
C        1.40555968      -0.30383596      -0.44051028
C        1.46706578       0.42742393      -1.73038492
O        1.39272797       1.07175929      -0.44985017
C       -0.74921988       0.11852595       2.06148032
H       -0.52770009       1.52410004      -0.37175226
H       -1.49515979      -1.04839177       0.24401127
H       -0.47523510      -1.26961665      -1.09367376
H        0.03209041      -1.95966322       0.50856745
H        2.42023058       0.53136652      -2.23725037
H        0.57960090       0.57176236      -2.34176949
H       -1.04661032       1.02503999       2.56957474
H       -0.56622193      -0.76218820       2.66062253
15
Frame=3 idx=011501 GeodesicLength=0.37928227322600205 rxn_smarts="[O:1]([C@@:2]1([H:9])[C:3]([H:10])([H:11])[C@:4]2([C:5]([H:12])([H:13])[O:6]2)[C:7]1([H:14])[H:15])[H:8]>>[C-:4]1=[O+:6][C:5]1([H:12])[H:13].[O:1]([C:2]([C:3]([H:9])([H:10])[H:11])=[C:7]([H:14])[H:15])[H:8]"
O       -1.39048749       1.08395501      -0.01778585
C       -0.94285401       0.03291555       0.72329589
C       -0.22605700      -1.07092659      -0.06340947
C        1.39168019      -0.27939093      -0.42710003
C        1.50299676       0.43067395      -1.72468656
O        1.37207901       1.09334454      -0.45792899
C       -0.69101707       0.12495750       2.05593295
H       -0.60194180       1.50857867      -0.39292434
H       -1.53428070      -1.06661964       0.25347199
H       -0.48549708      -1.26217734      -1.10315575
H       -0.00521757      -1.97920156       0.48450147
H        2.47573385       0.53675285      -2.19232430
H        0.63894670       0.56279373      -2.37124562
H       -0.96687865       1.03784259       2.56619751
H       -0.53720512      -0.75349834       2.66716109
15
Frame=4 idx=011501 GeodesicLength=0.5053008840351794 rxn_smarts="[O:1]([C@@:2]1([H:9])[C:3]([H:10])([H:11])[C@:4]2([C:5]([H:12])([H:13])[O:6]2)[C:7]1([H:14])[H:15])[H:8]>>[C-:4]1=[O+:6][C:5]1([H:12])[H:13].[O:1]([C:2]([C:3]([H:9])([H:10])[H:11])=[C:7]([H:14])[H:15])[H:8]"
O       -1.44722892       1.07256227       0.00427006
C       -0.97401900       0.02039778       0.72987990
C       -0.26022677      -1.07519474      -0.06565120
C        1.37685925      -0.25491501      -0.41514454
C        1.53964145       0.43391995      -1.71794946
O        1.35148441       1.11459739      -0.46787444
C       -0.63588576       0.12996508       2.04706749
H       -0.67753582       1.49124282      -0.41190642
H       -1.57417403      -1.08430760       0.26360263
H       -0.49703576      -1.25356482      -1.11232913
H       -0.04337753      -1.99828188       0.45972892
H        2.53064056       0.54270153      -2.14475385
H        0.70118017       0.55283600      -2.39968193
H       -0.88796828       1.05014461       2.55797603
H       -0.50235398      -0.74210338       2.67276595
15
Frame=5 idx=011501 GeodesicLength=0.630962741894512 rxn_smarts="[O:1]([C@@:2]1([H:9])[C:3]([H:10])([H:11])[C@:4]2([C:5]([H:12])([H:13])[O:6]2)[C:7]1([H:14])[H:15])[H:8]>>[C-:4]1=[O+:6][C:5]1([H:12])[H:13].[O:1]([C:2]([C:3]([H:9])([H:10])[H:11])=[C:7]([H:14])[H:15])[H:8]"
O       -1.50295440       1.06144298       0.02985631
C       -1.00428489       0.00768851       0.73834601
C       -0.29526093      -1.07935105      -0.06791093
C        1.36130774      -0.23018949      -0.40494935
C        1.57708057       0.43698706      -1.71052834
O        1.33108167       1.13568577      -0.48042623
C       -0.58344684       0.13386033       2.03537902
H       -0.75446190       1.47254228      -0.42822766
H       -1.61458053      -1.10129595       0.27474899
H       -0.50976853      -1.24378674      -1.12095337
H       -0.08216661      -2.01667349       0.43443872
H        2.58487680       0.54906489      -2.09496127
H        0.76645846       0.54140183      -2.42726431
H       -0.81110432       1.06161566       2.54546943
H       -0.46277630      -0.72899259       2.67698299
15
Frame=6 idx=011501 GeodesicLength=0.7561802443455902 rxn_smarts="[O:1]([C@@:2]1([H:9])[C:3]([H:10])([H:11])[C@:4]2([C:5]([H:12])([H:13])[O:6]2)[C:7]1([H:14])[H:15])[H:8]>>[C-:4]1=[O+:6][C:5]1([H:12])[H:13].[O:1]([C:2]([C:3]([H:9])([H:10])[H:11])=[C:7]([H:14])[H:15])[H:8]"
O       -1.55751280       1.05065594       0.05890250
C       -1.03346035      -0.00506381       0.74860698
C       -0.33100090      -1.08327371      -0.07010909
C        1.34516868      -0.20498714      -0.39673854
C        1.61541093       0.43974356      -1.70265565
O        1.31091348       1.15677029      -0.49623896
C       -0.53345307       0.13685510       2.02123785
H       -0.83278558       1.45293072      -0.44134477
H       -1.65530138      -1.11754233       0.28712023
H       -0.52361225      -1.23287914      -1.12891393
H       -0.12144747      -2.03425148       0.40872178
H        2.63840750       0.55578226      -2.04316432
H        0.83499896       0.52799761      -2.45410843
H       -0.73702085       1.07210143       2.52923950
H       -0.41930490      -0.71483931       2.67944486
15
Frame=7 idx=011501 GeodesicLength=0.8809152214262101 rxn_smarts="[O:1]([C@@:2]1([H:9])[C:3]([H:10])([H:11])[C@:4]2([C:5]([H:12])([H:13])[O:6]2)[C:7]1([H:14])[H:15])[H:8]>>[C-:4]1=[O+:6][C:5]1([H:12])[H:13].[O:1]([C:2]([C:3]([H:9])([H:10])[H:11])=[C:7]([H:14])[H:15])[H:8]"
O       -1.61089553       1.04016971       0.09139239
C       -1.06144867      -0.01778806       0.76056416
C       -0.36736999      -1.08686864      -0.07221917
C        1.32850058      -0.17905732      -0.39071511
C        1.65478884       0.44208547      -1.69445403
O        1.29087602       1.17798278      -0.51599498
C       -0.48567036       0.13907282       2.00490422
H       -0.91270117       1.43278954      -0.45077938
H       -1.69620193      -1.13307716       0.30089962
H       -0.53854559      -1.22084750      -1.13615887
H       -0.16116276      -2.05092365       0.38258758
H        2.69126039       0.56301144      -1.98935538
H        0.90719013       0.51203438      -2.48026682
H       -0.66589782       1.08154991       2.50973944
H       -0.37272213      -0.70013373       2.67985634
15
Frame=8 idx=011501 GeodesicLength=1.0051772499633695 rxn_smarts="[O:1]([C@@:2]1([H:9])[C:3]([H:10])([H:11])[C@:4]2([C:5]([H:12])([H:13])[O:6]2)[C:7]1([H:14])[H:15])[H:8]>>[C-:4]1=[O+:6][C:5]1([H:12])[H:13].[O:1]([C:2]([C:3]([H:9])([H:10])[H:11])=[C:7]([H:14])[H:15])[H:8]"
O       -1.66316212       1.02992357       0.12733960
C       -1.08820338      -0.03045827       0.77410454
C       -0.40435751      -1.09007882      -0.07426168
C        1.31130279      -0.15216392      -0.38707303
C        1.69538478       0.44394519      -1.68593752
O        1.27080454       1.19941326      -0.54039849
C       -0.43987828       0.14059938       1.98655007
H       -0.99444199       1.41243543      -0.45609504
H       -1.73719898      -1.14797923       0.31623366
H       -0.55460948      -1.20768879      -1.14270572
H       -0.20133432      -2.06666095       0.35597275
H        2.74345222       0.57102546      -1.93335146
H        0.98351500       0.49291222      -2.50567301
H       -0.59770264       1.08998466       2.48732604
H       -0.32357062      -0.68520920       2.67796931
15
Frame=9 idx=011501 GeodesicLength=1.1288262828060784 rxn_smarts="[O:1]([C@@:2]1([H:9])[C:3]([H:10])([H:11])[C@:4]2([C:5]([H:12])([H:13])[O:6]2)[C:7]1([H:14])[H:15])[H:8]>>[C-:4]1=[O+:6][C:5]1([H:12])[H:13].[O:1]([C:2]([C:3]([H:9])([H:10])[H:11])=[C:7]([H:14])[H:15])[H:8]"
O       -1.71432767       1.01986266       0.16698229
C       -1.11367426      -0.04305259       0.78916752
C       -0.44201262      -1.09275207      -0.07629424
C        1.29340650      -0.12398391      -0.38605414
C        1.73738927       0.44525016      -1.67703225
O        1.25029194       1.22105251      -0.57040540
C       -0.39583084       0.14146008       1.96625894
H       -1.07836994       1.39189085      -0.45701579
H       -1.77818948      -1.16222975       0.33331422
H       -0.57188318      -1.19323752      -1.14858781
H       -0.24206599      -2.08129318       0.32872752
H        2.79495232       0.58010971      -1.87472287
H        1.06480872       0.46993682      -2.53018008
H       -0.53238398       1.09730439       2.46236274
H       -0.27211079      -0.67031817       2.67347935
15
Frame=10 idx=011501 GeodesicLength=1.2520885517888536 rxn_smarts="[O:1]([C@@:2]1([H:9])[C:3]([H:10])([H:11])[C@:4]2([C:5]([H:12])([H:13])[O:6]2)[C:7]1([H:14])[H:15])[H:8]>>[C-:4]1=[O+:6][C:5]1([H:12])[H:13].[O:1]([C:2]([C:3]([H:9])([H:10])[H:11])=[C:7]([H:14])[H:15])[H:8]"
O       -1.76445916       1.00994129       0.21031192
C       -1.13786784      -0.05558915       0.80559462
C       -0.48046386      -1.09494984      -0.07840627
C        1.27476329      -0.09442339      -0.38790650
C        1.78095092       0.44602914      -1.66749391
O        1.22916008       1.24278221      -0.60679257
C       -0.35328332       0.14175416       1.94400432
H       -1.16466744       1.37144612      -0.45311233
H       -1.81922208      -1.17598653       0.35223822
H       -0.59059154      -1.17758837      -1.15391658
H       -0.28354312      -2.09495377       0.30072032
H        2.84559017       0.59101195      -1.81299851
H        1.15166385       0.44244419      -2.55327585
H       -0.46956534       1.10369541       2.43491588
H       -0.21846461      -0.65561341       2.66611725
15
Frame=11 idx=011501 GeodesicLength=1.3747936646481949 rxn_smarts="[O:1]([C@@:2]1([H:9])[C:3]([H:10])([H:11])[C@:4]2([C:5]([H:12])([H:13])[O:6]2)[C:7]1([H:14])[H:15])[H:8]>>[C-:4]1=[O+:6][C:5]1([H:12])[H:13].[O:1]([C:2]([C:3]([H:9])([H:10])[H:11])=[C:7]([H:14])[H:15])[H:8]"
O       -1.81337684       1.00003914       0.25740467
C       -1.16071002      -0.06809147       0.82324470
C       -0.51985359      -1.09664504      -0.08067907
C        1.25520016      -0.06346290      -0.39297122
C        1.82610339       0.44635808      -1.65698448
O        1.20717685       1.26417611      -0.65041080
C       -0.31200941       0.14153645       1.91962702
H       -1.25334856       1.35110389      -0.44405153
H       -1.86023350      -1.18926265       0.37317638
H       -0.61091356      -1.16073391      -1.15876851
H       -0.32604950      -2.10758107       0.27183336
H        2.89488356       0.60460367      -1.74769901
H        1.24478577       0.40989159      -2.57413607
H       -0.40891140       1.10920726       2.40490276
H       -0.16274334      -0.64113914       2.65551181
15
Frame=12 idx=011501 GeodesicLength=1.496918559100895 rxn_smarts="[O:1]([C@@:2]1([H:9])[C:3]([H:10])([H:11])[C@:4]2([C:5]([H:12])([H:13])[O:6]2)[C:7]1([H:14])[H:15])[H:8]>>[C-:4]1=[O+:6][C:5]1([H:12])[H:13].[O:1]([C:2]([C:3]([H:9])([H:10])[H:11])=[C:7]([H:14])[H:15])[H:8]"
O       -1.86081774       0.99006020       0.30833728
C       -1.18214642      -0.08059730       0.84198575
C       -0.56037870      -1.09787653      -0.08317376
C        1.23456862      -0.03124048      -0.40166683
C        1.87283856       0.44642163      -1.64507510
O        1.18423993       1.28458773      -0.70208006
C       -0.27181762       0.14082698       1.89285175
H       -1.34430323       1.33080290      -0.42951571
H       -1.90122072      -1.20207135       0.39636776
H       -0.63305485      -1.14276343      -1.16319781
H       -0.36997833      -2.11918621       0.24199017
H        2.94217357       0.62197944      -1.67843336
H        1.34488301       0.37199116      -2.59158810
H       -0.34987540       1.11395881       2.37193129
H       -0.10511069      -0.62689354       2.64126674
15
Frame=13 idx=011501 GeodesicLength=1.6190255304063266 rxn_smarts="[O:1]([C@@:2]1([H:9])[C:3]([H:10])([H:11])[C@:4]2([C:5]([H:12])([H:13])[O:6]2)[C:7]1([H:14])[H:15])[H:8]>>[C-:4]1=[O+:6][C:5]1([H:12])[H:13].[O:1]([C:2]([C:3]([H:9])([H:10])[H:11])=[C:7]([H:14])[H:15])[H:8]"
O       -1.90645542       0.98034154       0.36315295
C       -1.20202187      -0.09299396       0.86156552
C       -0.60234110      -1.09873333      -0.08601137
C        1.21266807       0.00227081      -0.41436961
C        1.92103367       0.44648770      -1.63110707
O        1.16010414       1.30340868      -0.76305544
C       -0.23213166       0.13973367       1.86332472
H       -1.43778895       1.31032485      -0.40954389
H       -1.94234438      -1.21435645       0.42184796
H       -0.65753272      -1.12392654      -1.16731642
H       -0.41584020      -2.12995775       0.21108438
H        2.98669111       0.64408666      -1.60418163
H        1.45281690       0.32834275      -2.60416654
H       -0.29215728       1.11798605       2.33613876
H       -0.04470031      -0.61301467       2.62263770
15
Frame=14 idx=011501 GeodesicLength=1.7409588077440943 rxn_smarts="[O:1]([C@@:2]1([H:9])[C:3]([H:10])([H:11])[C@:4]2([C:5]([H:12])([H:13])[O:6]2)[C:7]1([H:14])[H:15])[H:8]>>[C-:4]1=[O+:6][C:5]1([H:12])[H:13].[O:1]([C:2]([C:3]([H:9])([H:10])[H:11])=[C:7]([H:14])[H:15])[H:8]"
O       -1.94959119       0.97074647       0.42136425
C       -1.22024647      -0.10533903       0.88172763
C       -0.64596454      -1.09950750      -0.08910931
C        1.18966130       0.03603859      -0.43159397
C        1.97030292       0.44706891      -1.61455434
O        1.13563451       1.31917704      -0.83303043
C       -0.19292762       0.13831734       1.83047503
H       -1.53285637       1.28967874      -0.38395657
H       -1.98361445      -1.22609172       0.44996130
H       -0.68439787      -1.10477743      -1.17107193
H       -0.46428353      -2.14010175       0.17948146
H        3.02708898       0.67231885      -1.52553357
H        1.56840600       0.28017354      -2.60980154
H       -0.23516536       1.12155754       2.29646982
H        0.01795370      -0.59925959       2.59917218
15
Frame=15 idx=011501 GeodesicLength=1.8621764689753924 rxn_smarts="[O:1]([C@@:2]1([H:9])[C:3]([H:10])([H:11])[C@:4]2([C:5]([H:12])([H:13])[O:6]2)[C:7]1([H:14])[H:15])[H:8]>>[C-:4]1=[O+:6][C:5]1([H:12])[H:13].[O:1]([C:2]([C:3]([H:9])([H:10])[H:11])=[C:7]([H:14])[H:15])[H:8]"
O       -1.98930341       0.96122009       0.48254465
C       -1.23654433      -0.11758132       0.90215174
C       -0.69136235      -1.10027167      -0.09241423
C        1.16561248       0.06913047      -0.45371104
C        2.01996449       0.44860356      -1.59480440
O        1.11162317       1.33034141      -0.91166074
C       -0.15412529       0.13659984       1.79365264
H       -1.62855003       1.26851396      -0.35271864
H       -2.02479138      -1.23697161       0.48092960
H       -0.71359746      -1.08568818      -1.17440642
H       -0.51589527      -2.14951234       0.14742483
H        3.06165278       0.70753558      -1.44279292
H        1.69126776       0.22878990      -2.60636025
H       -0.17857779       1.12467217       2.25203064
H        0.08262661      -0.58538184       2.57013453
15
Frame=16 idx=011501 GeodesicLength=1.9829777880319353 rxn_smarts="[O:1]([C@@:2]1([H:9])[C:3]([H:10])([H:11])[C@:4]2([C:5]([H:12])([H:13])[O:6]2)[C:7]1([H:14])[H:15])[H:8]>>[C-:4]1=[O+:6][C:5]1([H:12])[H:13].[O:1]([C:2]([C:3]([H:9])([H:10])[H:11])=[C:7]([H:14])[H:15])[H:8]"
O       -2.02489667       0.95195244       0.54628956
C       -1.25073503      -0.12968887       0.92257500
C       -0.73881900      -1.10124221      -0.09589221
C        1.14065334       0.10055462      -0.48106239
C        2.06949949       0.45158666      -1.57117188
O        1.08881194       1.33538288      -0.99890148
C       -0.11554658       0.13447584       1.75229716
H       -1.72406276       1.24686161      -0.31571116
H       -2.06587103      -1.24683874       0.51496537
H       -0.74535844      -1.06715366      -1.17735245
H       -0.57145171      -2.15844579       0.11510140
H        3.08878204       0.75095545      -1.35614900
H        1.82130183       0.17545445      -2.59168413
H       -0.12158386       1.12749055       2.20171394
H        0.14927644      -0.57134523       2.53498226
