13
Frame=0 idx=000474 GeodesicLength=0.0 rxn_smarts="[O:1]([C@@:2]1([H:8])[C:3]([H:9])([H:10])[C@@:4]2([H:11])[N:5]([H:12])[C@@:6]12[H:13])[H:7]>>[O:1]([C@@:2]1([H:8])[C:3]([H:9])([H:10])[C-:4]2[N+:5]([H:11])([H:12])[C@@:6]12[H:13])[H:7]"
O        1.84584573       0.70951930       0.42843874
C        0.91222494       0.23045041      -0.49083928
C        0.31885897      -1.19179261      -0.32641627
C       -1.11938031      -0.64122567      -0.47332484
N       -0.98134175       0.49201973       0.97603611
C       -0.51665401       0.74904735      -0.39400823
H        1.42169587       0.69340052       1.29190426
H        1.33223191       0.38172697      -1.48529316
H        0.54523817      -1.69937265       0.61153281
H        0.53810315      -1.87355685      -1.14968125
H       -1.55294495      -0.53507297       0.81100725
H       -1.84237920       1.03381647       1.05964173
H       -0.90149855       1.65103996      -0.85899781
13
Frame=1 idx=000474 GeodesicLength=0.06540058413357969 rxn_smarts="[O:1]([C@@:2]1([H:8])[C:3]([H:9])([H:10])[C@@:4]2([H:11])[N:5]([H:12])[C@@:6]12[H:13])[H:7]>>[O:1]([C@@:2]1([H:8])[C:3]([H:9])([H:10])[C-:4]2[N+:5]([H:11])([H:12])[C@@:6]12[H:13])[H:7]"
O        1.83933144       0.72307521       0.42970405
C        0.91184872       0.23306156      -0.49019916
C        0.31784590      -1.18912927      -0.32630501
C       -1.11931026      -0.63500059      -0.45797363
N       -0.98769960       0.49678138       0.96333396
C       -0.51591151       0.75440954      -0.40231884
H        1.43603490       0.66679782       1.30108372
H        1.33560221       0.38096708      -1.48386070
H        0.55060955      -1.69929930       0.60875752
H        0.53199175      -1.86795326      -1.15315163
H       -1.55008345      -0.55141340       0.83470718
H       -1.84997671       1.03468672       1.05015119
H       -0.90028295       1.65301651      -0.87392866
13
Frame=2 idx=000474 GeodesicLength=0.13079983312877005 rxn_smarts="[O:1]([C@@:2]1([H:8])[C:3]([H:9])([H:10])[C@@:4]2([H:11])[N:5]([H:12])[C@@:6]12[H:13])[H:7]>>[O:1]([C@@:2]1([H:8])[C:3]([H:9])([H:10])[C-:4]2[N+:5]([H:11])([H:12])[C@@:6]12[H:13])[H:7]"
O        1.83214804       0.73638712       0.43180040
C        0.91137535       0.23566038      -0.48931649
C        0.31670436      -1.18651879      -0.32627381
C       -1.11922076      -0.62881306      -0.44263570
N       -0.99423697       0.50141374       0.95066736
C       -0.51531745       0.75956407      -0.41070995
H        1.45097491       0.64050265       1.30932974
H        1.33924544       0.38038542      -1.48195808
H        0.55576704      -1.69945806       0.60576661
H        0.52576032      -1.86222798      -1.15678582
H       -1.54634095      -0.56712479       0.85851339
H       -1.85764251       1.03556606       1.04064183
H       -0.89921681       1.65466324      -0.88903948
13
Frame=3 idx=000474 GeodesicLength=0.19619427398519151 rxn_smarts="[O:1]([C@@:2]1([H:8])[C:3]([H:9])([H:10])[C@@:4]2([H:11])[N:5]([H:12])[C@@:6]12[H:13])[H:7]>>[O:1]([C@@:2]1([H:8])[C:3]([H:9])([H:10])[C-:4]2[N+:5]([H:11])([H:12])[C@@:6]12[H:13])[H:7]"
O        1.82433224       0.74943392       0.43469440
C        0.91079674       0.23825415      -0.48819148
C        0.31544103      -1.18396491      -0.32630434
C       -1.11910138      -0.62267599      -0.42737542
N       -1.00094809       0.50589803       0.93805697
C       -0.51488098       0.76449952      -0.41915625
H        1.46656105       0.61453988       1.31662629
H        1.34312807       0.37999224      -1.47959429
H        0.56069320      -1.69983559       0.60259490
H        0.51945230      -1.85640098      -1.16054207
H       -1.54182013      -0.58218634       0.88233370
H       -1.86536244       1.03645566       1.03113915
H       -0.89829162       1.65599041      -0.90428157
13
Frame=4 idx=000474 GeodesicLength=0.2615902200386616 rxn_smarts="[O:1]([C@@:2]1([H:8])[C:3]([H:9])([H:10])[C@@:4]2([H:11])[N:5]([H:12])[C@@:6]12[H:13])[H:7]>>[O:1]([C@@:2]1([H:8])[C:3]([H:9])([H:10])[C-:4]2[N+:5]([H:11])([H:12])[C@@:6]12[H:13])[H:7]"
O        1.81591219       0.76218369       0.43834751
C        0.91010185       0.24084541      -0.48681946
C        0.31406022      -1.18145808      -0.32637806
C       -1.11894473      -0.61658204      -0.41224320
N       -1.00783249       0.51021937       0.92551270
C       -0.51461358       0.76920648      -0.42762832
H        1.48288014       0.58891634       1.32297268
H        1.34721852       0.37978662      -1.47676433
H        0.56537937      -1.70040323       0.59926847
H        0.51310382      -1.85046728      -1.16438100
H       -1.53661560      -0.59658095       0.90608907
H       -1.87313811       1.03734629       1.02164454
H       -0.89751160       1.65698736      -0.91962062
13
Frame=5 idx=000474 GeodesicLength=0.3269772185298937 rxn_smarts="[O:1]([C@@:2]1([H:8])[C:3]([H:9])([H:10])[C@@:4]2([H:11])[N:5]([H:12])[C@@:6]12[H:13])[H:7]>>[O:1]([C@@:2]1([H:8])[C:3]([H:9])([H:10])[C-:4]2[N+:5]([H:11])([H:12])[C@@:6]12[H:13])[H:7]"
O        1.80692420       0.77461813       0.44273259
C        0.90928892       0.24344201      -0.48520476
C        0.31256343      -1.17900137      -0.32647790
C       -1.11875128      -0.61054093      -0.39729406
N       -1.01489317       0.51436398       0.91305456
C       -0.51451447       0.77368351      -0.43610199
H        1.49999667       0.56366970       1.32834673
H        1.35149639       0.37977539      -1.47348580
H        0.56980381      -1.70114329       0.59582720
H        0.50674866      -1.84445032      -1.16826953
H       -1.53083590      -0.61031913       0.92970694
H       -1.88097393       1.03822776       1.01217549
H       -0.89685334       1.65767455      -0.93500946
13
Frame=6 idx=000474 GeodesicLength=0.3923618407177737 rxn_smarts="[O:1]([C@@:2]1([H:8])[C:3]([H:9])([H:10])[C@@:4]2([H:11])[N:5]([H:12])[C@@:6]12[H:13])[H:7]>>[O:1]([C@@:2]1([H:8])[C:3]([H:9])([H:10])[C-:4]2[N+:5]([H:11])([H:12])[C@@:6]12[H:13])[H:7]"
O        1.79740296       0.78672335       0.44781951
C        0.90835673       0.24604602      -0.48335431
C        0.31095202      -1.17660539      -0.32658915
C       -1.11852208      -0.60455406      -0.38258449
N       -1.02213119       0.51831247       0.90069869
C       -0.51458022       0.77793795      -0.44455372
H        1.51798365       0.53886428       1.33273127
H        1.35594378       0.37995634      -1.46977846
H        0.57394165      -1.70204986       0.59231128
H        0.50042529      -1.83838487      -1.17217766
H       -1.52460586      -0.62342842       0.95312004
H       -1.88887369       1.03909085       1.00275251
H       -0.89629304       1.65809133      -0.95039552
13
Frame=7 idx=000474 GeodesicLength=0.4577196162785809 rxn_smarts="[O:1]([C@@:2]1([H:8])[C:3]([H:9])([H:10])[C@@:4]2([H:11])[N:5]([H:12])[C@@:6]12[H:13])[H:7]>>[O:1]([C@@:2]1([H:8])[C:3]([H:9])([H:10])[C-:4]2[N+:5]([H:11])([H:12])[C@@:6]12[H:13])[H:7]"
O        1.78735977       0.79847142       0.45360298
C        0.90729072       0.24866634      -0.48125172
C        0.30923463      -1.17422308      -0.32667636
C       -1.11825530      -0.59861056      -0.36813096
N       -1.02953611       0.52207596       0.88842842
C       -0.51481694       0.78196596      -0.45296914
H        1.53687823       0.51436820       1.33604222
H        1.36050401       0.38032891      -1.46561195
H        0.57781207      -1.70304124       0.58875386
H        0.49414916      -1.83222096      -1.17603048
H       -1.51795009      -0.63591831       0.97627590
H       -1.89683656       1.03991205       0.99332468
H       -0.89583358       1.65822531      -0.96575745
13
Frame=8 idx=000474 GeodesicLength=0.5230757699853003 rxn_smarts="[O:1]([C@@:2]1([H:8])[C:3]([H:9])([H:10])[C@@:4]2([H:11])[N:5]([H:12])[C@@:6]12[H:13])[H:7]>>[O:1]([C@@:2]1([H:8])[C:3]([H:9])([H:10])[C-:4]2[N+:5]([H:11])([H:12])[C@@:6]12[H:13])[H:7]"
O        1.77683537       0.80982449       0.46005368
C        0.90611213       0.25129910      -0.47892363
C        0.30740630      -1.17189386      -0.32673254
C       -1.11797867      -0.59270206      -0.35399649
N       -1.03716540       0.52561788       0.87627861
C       -0.51522890       0.78579338      -0.46132449
H        1.55692751       0.49036172       1.33830812
H        1.36522533       0.38089413      -1.46104950
H        0.58137282      -1.70415536       0.58521240
H        0.48796495      -1.82602991      -1.17983126
H       -1.51107089      -0.64783373       0.99911307
H       -1.90494660       1.04067350       0.98394025
H       -0.89545395       1.65815072      -0.98104822
13
Frame=9 idx=000474 GeodesicLength=0.5883741022001285 rxn_smarts="[O:1]([C@@:2]1([H:8])[C:3]([H:9])([H:10])[C@@:4]2([H:11])[N:5]([H:12])[C@@:6]12[H:13])[H:7]>>[O:1]([C@@:2]1([H:8])[C:3]([H:9])([H:10])[C-:4]2[N+:5]([H:11])([H:12])[C@@:6]12[H:13])[H:7]"
O        1.76580556       0.82079513       0.46717337
C        0.90477368       0.25395315      -0.47632503
C        0.30546574      -1.16959710      -0.32675511
C       -1.11764315      -0.58685206      -0.34016846
N       -1.04492279       0.52899033       0.86422065
C       -0.51575928       0.78940716      -0.46958615
H        1.57784262       0.46680656       1.33938312
H        1.36999808       0.38163580      -1.45599857
H        0.58461560      -1.70533801       0.58164881
H        0.48186245      -1.81980202      -1.18355868
H       -1.50389031      -0.65920904       1.02163890
H       -1.91308487       1.04137437       0.97454059
H       -0.89506332       1.65783573      -0.99621345
13
Frame=10 idx=000474 GeodesicLength=0.6536741099399417 rxn_smarts="[O:1]([C@@:2]1([H:8])[C:3]([H:9])([H:10])[C@@:4]2([H:11])[N:5]([H:12])[C@@:6]12[H:13])[H:7]>>[O:1]([C@@:2]1([H:8])[C:3]([H:9])([H:10])[C-:4]2[N+:5]([H:11])([H:12])[C@@:6]12[H:13])[H:7]"
O        1.75435351       0.83127303       0.47495247
C        0.90331885       0.25661648      -0.47348753
C        0.30341040      -1.16732126      -0.32670044
C       -1.11732739      -0.58100638      -0.32670602
N       -1.05291581       0.53212554       0.85226736
C       -0.51646074       0.79283367      -0.47774762
H        1.60011246       0.44378454       1.33928892
H        1.37489107       0.38256645      -1.45052943
H        0.58753369      -1.70657103       0.57817104
H        0.47587818      -1.81352064      -1.18715088
H       -1.49665468      -0.67008249       1.04374851
H       -1.92141333       1.04195955       0.96513070
H       -0.89472622       1.65734255      -1.01123708
13
Frame=11 idx=000474 GeodesicLength=0.7189471537405699 rxn_smarts="[O:1]([C@@:2]1([H:8])[C:3]([H:9])([H:10])[C@@:4]2([H:11])[N:5]([H:12])[C@@:6]12[H:13])[H:7]>>[O:1]([C@@:2]1([H:8])[C:3]([H:9])([H:10])[C-:4]2[N+:5]([H:11])([H:12])[C@@:6]12[H:13])[H:7]"
O        1.74246201       0.84129428       0.48340185
C        0.90172555       0.25930937      -0.47038772
C        0.30124826      -1.16507487      -0.32657057
C       -1.11700187      -0.57519804      -0.31359130
N       -1.06109620       0.53508616       0.84041559
C       -0.51728397       0.79608906      -0.48579748
H        1.62350256       0.42124540       1.33790139
H        1.37985559       0.38368565      -1.44460617
H        0.59012633      -1.70785219       0.57476925
H        0.47002339      -1.80722073      -1.19061680
H       -1.48931672      -0.68050811       1.06550613
H       -1.92988526       1.04244610       0.95568402
H       -0.89435967       1.65669792      -1.02610819
13
Frame=12 idx=000474 GeodesicLength=0.7842094125300305 rxn_smarts="[O:1]([C@@:2]1([H:8])[C:3]([H:9])([H:10])[C@@:4]2([H:11])[N:5]([H:12])[C@@:6]12[H:13])[H:7]>>[O:1]([C@@:2]1([H:8])[C:3]([H:9])([H:10])[C-:4]2[N+:5]([H:11])([H:12])[C@@:6]12[H:13])[H:7]"
O        1.73013067       0.85078708       0.49258362
C        0.89999749       0.26202867      -0.46702022
C        0.29896773      -1.16284408      -0.32633815
C       -1.11670216      -0.56941069      -0.30085465
N       -1.06951132       0.53785633       0.82866090
C       -0.51824821       0.79918720      -0.49372658
H        1.64833202       0.39923879       1.33513365
H        1.38491091       0.38499874      -1.43822171
H        0.59237327      -1.70914886       0.57149542
H        0.46430564      -1.80089022      -1.19391583
H       -1.48200216      -0.69052770       1.08684882
H       -1.93857561       1.04280200       0.94617335
H       -0.89397827       1.65592276      -1.04081862
13
Frame=13 idx=000474 GeodesicLength=0.8495018604110945 rxn_smarts="[O:1]([C@@:2]1([H:8])[C:3]([H:9])([H:10])[C@@:4]2([H:11])[N:5]([H:12])[C@@:6]12[H:13])[H:7]>>[O:1]([C@@:2]1([H:8])[C:3]([H:9])([H:10])[C-:4]2[N+:5]([H:11])([H:12])[C@@:6]12[H:13])[H:7]"
O        1.71733646       0.85971953       0.50252437
C        0.89814111       0.26478459      -0.46338335
C        0.29658853      -1.16065026      -0.32598787
C       -1.11644326      -0.56363913      -0.28848571
N       -1.07821089       0.54046640       0.81701633
C       -0.51934998       0.80216960      -0.50153410
H        1.67470074       0.37774126       1.33086979
H        1.39009491       0.38652645      -1.43138627
H        0.59428474      -1.71050027       0.56839360
H        0.45878281      -1.79456001      -1.19705139
H       -1.47479251      -0.70019076       1.10782628
H       -1.94757160       1.04304701       0.93659247
H       -0.89356105       1.65508559      -1.05539416
13
Frame=14 idx=000474 GeodesicLength=0.9147459866258604 rxn_smarts="[O:1]([C@@:2]1([H:8])[C:3]([H:9])([H:10])[C@@:4]2([H:11])[N:5]([H:12])[C@@:6]12[H:13])[H:7]>>[O:1]([C@@:2]1([H:8])[C:3]([H:9])([H:10])[C-:4]2[N+:5]([H:11])([H:12])[C@@:6]12[H:13])[H:7]"
O        1.70416463       0.86797376       0.51321945
C        0.89611916       0.26754758      -0.45942109
C        0.29403466      -1.15842474      -0.32550504
C       -1.11622438      -0.55786763      -0.27653074
N       -1.08707016       0.54284613       0.80540792
C       -0.52052399       0.80496345      -0.50914601
H        1.70249847       0.35706505       1.32499836
H        1.39527423       0.38821101      -1.42396769
H        0.59578485      -1.71175227       0.56542825
H        0.45331700      -1.78814944      -1.19995026
H       -1.46769082      -0.70953339       1.12826466
H       -1.95669153       1.04304564       0.92685660
H       -0.89299212       1.65407486      -1.06965440
13
Frame=15 idx=000474 GeodesicLength=0.9800627825541933 rxn_smarts="[O:1]([C@@:2]1([H:8])[C:3]([H:9])([H:10])[C@@:4]2([H:11])[N:5]([H:12])[C@@:6]12[H:13])[H:7]>>[O:1]([C@@:2]1([H:8])[C:3]([H:9])([H:10])[C-:4]2[N+:5]([H:11])([H:12])[C@@:6]12[H:13])[H:7]"
O        1.69059958       0.87551127       0.52475492
C        0.89399411       0.27034554      -0.45517610
C        0.29138361      -1.15624504      -0.32485836
C       -1.11610590      -0.55209709      -0.26496896
N       -1.09627361       0.54506577       0.79390837
C       -0.52182474       0.80769894      -0.51661451
H        1.73207187       0.33704795       1.31736766
H        1.40061549       0.39012288      -1.41609204
H        0.59693700      -1.71305806       0.56273420
H        0.44808477      -1.78176474      -1.20263071
H       -1.46090109      -0.71865302       1.14830851
H       -1.96623104       1.04290670       0.91701650
H       -0.89235005       1.65311888      -1.08374946
13
Frame=16 idx=000474 GeodesicLength=1.0452795389629024 rxn_smarts="[O:1]([C@@:2]1([H:8])[C:3]([H:9])([H:10])[C@@:4]2([H:11])[N:5]([H:12])[C@@:6]12[H:13])[H:7]>>[O:1]([C@@:2]1([H:8])[C:3]([H:9])([H:10])[C-:4]2[N+:5]([H:11])([H:12])[C@@:6]12[H:13])[H:7]"
O        1.67658845       0.88221045       0.53717513
C        0.89168782       0.27313852      -0.45058535
C        0.28857648      -1.15406411      -0.32406165
C       -1.11601211      -0.54632566      -0.25383032
N       -1.10567584       0.54710349       0.78245928
C       -0.52316380       0.81029585      -0.52385487
H        1.76315133       0.31801890       1.30781622
H        1.40595544       0.39217210      -1.40761549
H        0.59766423      -1.71427910       0.56022620
H        0.44299002      -1.77537043      -1.20506871
H       -1.45433243      -0.72754184       1.16781470
H       -1.97595563       1.04255410       0.90701097
H       -0.89147396       1.65208773      -1.09748611
