18
Frame=0 idx=008111 GeodesicLength=0.0 rxn_smarts="[C:1]([N:2]([C:3](=[O:4])[C:5]([C:6]([H:13])([H:14])[H:15])([C:7]([H:16])([H:17])[H:18])[H:12])[H:11])([H:8])([H:9])[H:10]>>[C:1](=[N:2][H:11])([H:9])[H:10].[C:3](=[O:4])([C:5]([C:6]([H:13])([H:14])[H:15])([C:7]([H:16])([H:17])[H:18])[H:12])[H:8]"
C        2.36740245       0.27243850      -0.37385254
N        1.75372350      -0.91261335      -0.47880800
C        0.65002059      -0.01773140       0.65292582
O        0.76669304      -0.31981807       1.81039672
C       -0.63965787       0.06146485      -0.17127894
C       -1.33319887      -1.29622118      -0.17098178
C       -1.52440704       1.14102782       0.44722533
H        1.24266773       1.06436301       0.29698814
H        2.55872585       0.92508252      -1.22897546
H        3.01843292       0.41638154       0.48579479
H        1.31671617      -1.01096991      -1.38849729
H       -0.38612672       0.35498360      -1.19327767
H       -1.57201357      -1.59455132       0.85050087
H       -0.70469857      -2.07357454      -0.60600371
H       -2.26300757      -1.24174832      -0.74017944
H       -2.46258794       1.21797480      -0.10495820
H       -1.75307527       0.89648089       1.48546224
H       -1.03560877       2.11703055       0.42751906
18
Frame=1 idx=008111 GeodesicLength=0.10012039537296764 rxn_smarts="[C:1]([N:2]([C:3](=[O:4])[C:5]([C:6]([H:13])([H:14])[H:15])([C:7]([H:16])([H:17])[H:18])[H:12])[H:11])([H:8])([H:9])[H:10]>>[C:1](=[N:2][H:11])([H:9])[H:10].[C:3](=[O:4])([C:5]([C:6]([H:13])([H:14])[H:15])([C:7]([H:16])([H:17])[H:18])[H:12])[H:8]"
C        2.39461488       0.27532949      -0.37332495
N        1.75409708      -0.89485798      -0.49684021
C        0.64119202      -0.01042030       0.64419404
O        0.76368963      -0.32367606       1.79885300
C       -0.65443468       0.06004006      -0.16932575
C       -1.34340740      -1.29994823      -0.16043552
C       -1.54037628       1.13961339       0.44773226
H        1.26196911       1.08112309       0.29348534
H        2.63224493       0.91427948      -1.22685877
H        3.03069169       0.39009319       0.50203121
H        1.33511015      -0.98459106      -1.41560132
H       -0.40730877       0.34992797      -1.19410371
H       -1.57600062      -1.59594586       0.86318477
H       -0.71457761      -2.07664515      -0.59630724
H       -2.27609880      -1.25181603      -0.72547543
H       -2.48117669       1.21116211      -0.10077055
H       -1.76463268       0.89886322       1.48786615
H       -1.05559597       2.11746867       0.42169667
18
Frame=2 idx=008111 GeodesicLength=0.20012123866748882 rxn_smarts="[C:1]([N:2]([C:3](=[O:4])[C:5]([C:6]([H:13])([H:14])[H:15])([C:7]([H:16])([H:17])[H:18])[H:12])[H:11])([H:8])([H:9])[H:10]>>[C:1](=[N:2][H:11])([H:9])[H:10].[C:3](=[O:4])([C:5]([C:6]([H:13])([H:14])[H:15])([C:7]([H:16])([H:17])[H:18])[H:12])[H:8]"
C        2.42244387       0.27816933      -0.37264089
N        1.75429222      -0.87546433      -0.51603062
C        0.63209401      -0.00256384       0.63493989
O        0.76079570      -0.32729970       1.78653807
C       -0.66966565       0.05857114      -0.16743499
C       -1.35369440      -1.30382600      -0.14950780
C       -1.55684724       1.13809138       0.44821082
H        1.28203692       1.09833999       0.29013666
H        2.70832560       0.90096655      -1.22302082
H        3.04231476       0.36261755       0.51793522
H        1.35377315      -0.95587748      -1.44360426
H       -0.42937425       0.34460684      -1.19509495
H       -1.57984674      -1.59723935       0.87632247
H       -0.72429723      -2.07978839      -0.58602851
H       -2.28930453      -1.26238491      -0.71023407
H       -2.50041189       1.20392038      -0.09630830
H       -1.77633399       0.90132698       1.49032437
H       -1.07630031       2.11783386       0.41549772
18
Frame=3 idx=008111 GeodesicLength=0.2999795444823213 rxn_smarts="[C:1]([N:2]([C:3](=[O:4])[C:5]([C:6]([H:13])([H:14])[H:15])([C:7]([H:16])([H:17])[H:18])[H:12])[H:11])([H:8])([H:9])[H:10]>>[C:1](=[N:2][H:11])([H:9])[H:10].[C:3](=[O:4])([C:5]([C:6]([H:13])([H:14])[H:15])([C:7]([H:16])([H:17])[H:18])[H:12])[H:8]"
C        2.45088129       0.28094845      -0.37182857
N        1.75432138      -0.85426034      -0.53639922
C        0.62271504       0.00588977       0.62516224
O        0.75802114      -0.33066034       1.77342510
C       -0.68534100       0.05706886      -0.16560552
C       -1.36401157      -1.30784982      -0.13819910
C       -1.57383773       1.13645439       0.44865502
H        1.30294736       1.11604103       0.28704689
H        2.78679033       0.88475108      -1.21734457
H        3.05323998       0.33391131       0.53336176
H        1.37270655      -0.92465175      -1.47248240
H       -0.45232189       0.33901887      -1.19624394
H       -1.58350696      -1.59842188       0.88990765
H       -0.73377507      -2.08297736      -0.57515863
H       -2.30256342      -1.27347420      -0.69446199
H       -2.52030225       1.19622133      -0.09157638
H       -1.78819532       0.90386822       1.49282459
H       -1.09776786       2.11812240       0.40891707
18
Frame=4 idx=008111 GeodesicLength=0.3997002328785758 rxn_smarts="[C:1]([N:2]([C:3](=[O:4])[C:5]([C:6]([H:13])([H:14])[H:15])([C:7]([H:16])([H:17])[H:18])[H:12])[H:11])([H:8])([H:9])[H:10]>>[C:1](=[N:2][H:11])([H:9])[H:10].[C:3](=[O:4])([C:5]([C:6]([H:13])([H:14])[H:15])([C:7]([H:16])([H:17])[H:18])[H:12])[H:8]"
C        2.47992412       0.28365563      -0.37092290
N        1.75420477      -0.83106261      -0.55795276
C        0.61304302       0.01499809       0.61487065
O        0.75537043      -0.33372965       1.75949942
C       -0.70144391       0.05554771      -0.16383543
C       -1.37430041      -1.31201809      -0.12651405
C       -1.59136876       1.13470044       0.44905909
H        1.32478939       1.13425739       0.28434671
H        2.86738354       0.86520519      -1.20974489
H        3.06340433       0.30392821       0.54815283
H        1.39192377      -0.89073321      -1.50220227
H       -0.47613245       0.33316905      -1.19754395
H       -1.58693490      -1.59948993       0.90393233
H       -0.74291213      -2.08618880      -0.56369306
H       -2.31579965      -1.28510706      -0.67817634
H       -2.54085560       1.18804156      -0.08658546
H       -1.80024517       0.90648529       1.49535702
H       -1.12005041       2.11834079       0.40195305
18
Frame=5 idx=008111 GeodesicLength=0.49917652112523253 rxn_smarts="[C:1]([N:2]([C:3](=[O:4])[C:5]([C:6]([H:13])([H:14])[H:15])([C:7]([H:16])([H:17])[H:18])[H:12])[H:11])([H:8])([H:9])[H:10]>>[C:1](=[N:2][H:11])([H:9])[H:10].[C:3](=[O:4])([C:5]([C:6]([H:13])([H:14])[H:15])([C:7]([H:16])([H:17])[H:18])[H:12])[H:8]"
C        2.50954851       0.28626862      -0.36995460
N        1.75395185      -0.80565921      -0.58068333
C        0.60307364       0.02481345       0.60406850
O        0.75287252      -0.33647054       1.74471814
C       -0.71794940       0.05401318      -0.16212417
C       -1.38449811      -1.31631016      -0.11445563
C       -1.60943542       1.13280368       0.44939589
H        1.34765898       1.15298726       0.28219483
H        2.94973829       0.84192097      -1.20008018
H        3.07274310       0.27262342       0.56212439
H        1.41140273      -0.85391416      -1.53269613
H       -0.50078893       0.32703974      -1.19897208
H       -1.59007027      -1.60040525       0.91837513
H       -0.75161343      -2.08936791      -0.55161148
H       -2.32893431      -1.29729227      -0.66138785
H       -2.56205611       1.17932383      -0.08136034
H       -1.81246871       0.90917191       1.49787640
H       -1.14317493       2.11845343       0.39457251
18
Frame=6 idx=008111 GeodesicLength=0.5984756747582904 rxn_smarts="[C:1]([N:2]([C:3](=[O:4])[C:5]([C:6]([H:13])([H:14])[H:15])([C:7]([H:16])([H:17])[H:18])[H:12])[H:11])([H:8])([H:9])[H:10]>>[C:1](=[N:2][H:11])([H:9])[H:10].[C:3](=[O:4])([C:5]([C:6]([H:13])([H:14])[H:15])([C:7]([H:16])([H:17])[H:18])[H:12])[H:8]"
C        2.53976575       0.28875992      -0.36897063
N        1.75359758      -0.77784858      -0.60455298
C        0.59279393       0.03541462       0.59279185
O        0.75051780      -0.33883448       1.72909976
C       -0.73482443       0.05249307      -0.16046704
C       -1.39451717      -1.32072782      -0.10204244
C       -1.62807159       1.13077205       0.44966419
H        1.37167403       1.17226757       0.28076725
H        3.03343096       0.81438156      -1.18837176
H        3.08118535       0.23995616       0.57509674
H        1.43118283      -0.81402203      -1.56389506
H       -0.52622833       0.32065948      -1.20052064
H       -1.59285263      -1.60118233       0.93321827
H       -0.75973870      -2.09249281      -0.53893077
H       -2.34185376      -1.31005917      -0.64414030
H       -2.58391221       1.17005520      -0.07592597
H       -1.82493575       0.91191954       1.50037885
H       -1.16721364       2.11848804       0.38680068
18
Frame=7 idx=008111 GeodesicLength=0.6975427126458529 rxn_smarts="[C:1]([N:2]([C:3](=[O:4])[C:5]([C:6]([H:13])([H:14])[H:15])([C:7]([H:16])([H:17])[H:18])[H:12])[H:11])([H:8])([H:9])[H:10]>>[C:1](=[N:2][H:11])([H:9])[H:10].[C:3](=[O:4])([C:5]([C:6]([H:13])([H:14])[H:15])([C:7]([H:16])([H:17])[H:18])[H:12])[H:8]"
C        2.57056661       0.29108365      -0.36800550
N        1.75316100      -0.74739423      -0.62950511
C        0.58220018       0.04687789       0.58107098
O        0.74832356      -0.34076240       1.71263181
C       -0.75202632       0.05100502      -0.15886091
C       -1.40426498      -1.32525193      -0.08929104
C       -1.64728083       1.12858520       0.44983831
H        1.39696434       1.19209490       0.28026916
H        3.11791129       0.78209888      -1.17459718
H        3.08865047       0.20588778       0.58687465
H        1.45126295      -0.77084935      -1.59569259
H       -0.55239001       0.31402992      -1.20216460
H       -1.59520551      -1.60179527       0.94842923
H       -0.76715326      -2.09550553      -0.52564867
H       -2.35444007      -1.32342406      -0.62647061
H       -2.60640614       1.16017930      -0.07032187
H       -1.83766322       0.91471649       1.50282177
H       -1.19221007       2.11842374       0.37862217
18
Frame=8 idx=008111 GeodesicLength=0.7964879304117316 rxn_smarts="[C:1]([N:2]([C:3](=[O:4])[C:5]([C:6]([H:13])([H:14])[H:15])([C:7]([H:16])([H:17])[H:18])[H:12])[H:11])([H:8])([H:9])[H:10]>>[C:1](=[N:2][H:11])([H:9])[H:10].[C:3](=[O:4])([C:5]([C:6]([H:13])([H:14])[H:15])([C:7]([H:16])([H:17])[H:18])[H:12])[H:8]"
C        2.60198825       0.29318951      -0.36710247
N        1.75269605      -0.71406341      -0.65546131
C        0.57128932       0.05928899       0.56897070
O        0.74627708      -0.34218879       1.69535906
C       -0.76950219       0.04956665      -0.15730207
C       -1.41366165      -1.32989221      -0.07622578
C       -1.66707728       1.12624554       0.44989935
H        1.42371233       1.21247940       0.28096243
H        3.20249872       0.74462964      -1.15885824
H        3.09509246       0.17036961       0.59725916
H        1.47170201      -0.72421419      -1.62798761
H       -0.57916181       0.30715127      -1.20390066
H       -1.59710429      -1.60224570       0.96399010
H       -0.77372176      -2.09839248      -0.51177572
H       -2.36658271      -1.33743909      -0.60844590
H       -2.62952428       1.14965703      -0.06460266
H       -1.85071750       0.91757575       1.50519077
H       -1.21820273       2.11828249       0.37003083
18
Frame=9 idx=008111 GeodesicLength=0.8949318983553349 rxn_smarts="[C:1]([N:2]([C:3](=[O:4])[C:5]([C:6]([H:13])([H:14])[H:15])([C:7]([H:16])([H:17])[H:18])[H:12])[H:11])([H:8])([H:9])[H:10]>>[C:1](=[N:2][H:11])([H:9])[H:10].[C:3](=[O:4])([C:5]([C:6]([H:13])([H:14])[H:15])([C:7]([H:16])([H:17])[H:18])[H:12])[H:8]"
C        2.63392759       0.29490706      -0.36627641
N        1.75221119      -0.67761171      -0.68230202
C        0.56006605       0.07265329       0.55650851
O        0.74444027      -0.34313939       1.67720535
C       -0.78716871       0.04818385      -0.15579207
C       -1.42253595      -1.33457032      -0.06283517
C       -1.68740126       1.12371701       0.44974857
H        1.45198776       1.23326646       0.28309668
H        3.28622297       0.70174456      -1.14109274
H        3.10033744       0.13329282       0.60602437
H        1.49244116      -0.67388299      -1.66056120
H       -0.60646763       0.30000234      -1.20566798
H       -1.59837085      -1.60243247       0.97986095
H       -0.77923642      -2.10102631      -0.49722992
H       -2.37806455      -1.35202312      -0.59006210
H       -2.65317357       1.13844058      -0.05885902
H       -1.86400677       0.92049744       1.50733852
H       -1.24520872       2.11798088       0.36089567
18
Frame=10 idx=008111 GeodesicLength=0.9932827686757963 rxn_smarts="[C:1]([N:2]([C:3](=[O:4])[C:5]([C:6]([H:13])([H:14])[H:15])([C:7]([H:16])([H:17])[H:18])[H:12])[H:11])([H:8])([H:9])[H:10]>>[C:1](=[N:2][H:11])([H:9])[H:10].[C:3](=[O:4])([C:5]([C:6]([H:13])([H:14])[H:15])([C:7]([H:16])([H:17])[H:18])[H:12])[H:8]"
C        2.66650738       0.29616298      -0.36558520
N        1.75182585      -0.63784354      -0.70982288
C        0.54853425       0.08710240       0.54383558
O        0.74274317      -0.34346748       1.65834934
C       -0.80495049       0.04688648      -0.15431646
C       -1.43084068      -1.33934037      -0.04919033
C       -1.70828906       1.12102862       0.44939798
H        1.48209300       1.25449007       0.28701505
H        3.36818580       0.65307754      -1.12179856
H        3.10440486       0.09471558       0.61297644
H        1.51363628      -0.61986323      -1.69323608
H       -0.63407474       0.29260784      -1.20747962
H       -1.59908148      -1.60242411       0.99600408
H       -0.78358803      -2.10345400      -0.48209737
H       -2.38879770      -1.36728798      -0.57148355
H       -2.67733436       1.12652216      -0.05319604
H       -1.87773799       0.92348206       1.50929812
H       -1.27323606       2.11760498       0.35132951
18
Frame=11 idx=008111 GeodesicLength=1.0912520659911948 rxn_smarts="[C:1]([N:2]([C:3](=[O:4])[C:5]([C:6]([H:13])([H:14])[H:15])([C:7]([H:16])([H:17])[H:18])[H:12])[H:11])([H:8])([H:9])[H:10]>>[C:1](=[N:2][H:11])([H:9])[H:10].[C:3](=[O:4])([C:5]([C:6]([H:13])([H:14])[H:15])([C:7]([H:16])([H:17])[H:18])[H:12])[H:8]"
C        2.69965717       0.29674422      -0.36501571
N        1.75156177      -0.59449249      -0.73774940
C        0.53670754       0.10270337       0.53104291
O        0.74123194      -0.34310673       1.63880115
C       -0.82274394       0.04570293      -0.15286268
C       -1.43838525      -1.34410615      -0.03531761
C       -1.72970718       1.11812405       0.44875184
H        1.51419991       1.27595791       0.29304950
H        3.44718808       0.59838737      -1.10131653
H        3.10715735       0.05454836       0.61791071
H        1.53526650      -0.56201539      -1.72567171
H       -0.66183433       0.28497757      -1.20925913
H       -1.59906732      -1.60211662       1.01233807
H       -0.78654150      -2.10550740      -0.46633676
H       -2.39853815      -1.38315702      -0.55278302
H       -2.70192394       1.11381893      -0.04775497
H       -1.89190680       0.92648479       1.51091593
H       -1.30232185       2.11705228       0.34125740
18
Frame=12 idx=008111 GeodesicLength=1.189366205848751 rxn_smarts="[C:1]([N:2]([C:3](=[O:4])[C:5]([C:6]([H:13])([H:14])[H:15])([C:7]([H:16])([H:17])[H:18])[H:12])[H:11])([H:8])([H:9])[H:10]>>[C:1](=[N:2][H:11])([H:9])[H:10].[C:3](=[O:4])([C:5]([C:6]([H:13])([H:14])[H:15])([C:7]([H:16])([H:17])[H:18])[H:12])[H:8]"
C        2.73356358       0.29648002      -0.36460836
N        1.75161219      -0.54729810      -0.76588837
C        0.52461410       0.11960073       0.51829828
O        0.73990601      -0.34187772       1.61875985
C       -0.84050929       0.04465299      -0.15142354
C       -1.44512990      -1.34890448      -0.02125961
C       -1.75178708       1.11502745       0.44779255
H        1.54867078       1.29760353       0.30163165
H        3.52244397       0.53742564      -1.08022310
H        3.10868741       0.01268397       0.62063708
H        1.55753303      -0.50023231      -1.75772472
H       -0.68957140       0.27707731      -1.21105012
H       -1.59840158      -1.60150086       1.02887839
H       -0.78793527      -2.10721301      -0.44997643
H       -2.40724684      -1.39975827      -0.53410619
H       -2.72708498       1.10025495      -0.04264202
H       -1.90675291       0.92959048       1.51223311
H       -1.33261182       2.11638768       0.33067154
18
Frame=13 idx=008111 GeodesicLength=1.2864791402994025 rxn_smarts="[C:1]([N:2]([C:3](=[O:4])[C:5]([C:6]([H:13])([H:14])[H:15])([C:7]([H:16])([H:17])[H:18])[H:12])[H:11])([H:8])([H:9])[H:10]>>[C:1](=[N:2][H:11])([H:9])[H:10].[C:3](=[O:4])([C:5]([C:6]([H:13])([H:14])[H:15])([C:7]([H:16])([H:17])[H:18])[H:12])[H:8]"
C        2.76762148       0.29494554      -0.36430817
N        1.75178339      -0.49604298      -0.79384008
C        0.51217456       0.13763319       0.50562001
O        0.73862823      -0.34006413       1.59806350
C       -0.85796729       0.04371932      -0.15000186
C       -1.45074143      -1.35363902      -0.00693465
C       -1.77406836       1.11169798       0.44625557
H        1.58537937       1.31898113       0.31302470
H        3.59208618       0.47098116      -1.05876174
H        3.10820246      -0.03099565       0.62095654
H        1.58020616      -0.43442701      -1.78883245
H       -0.71692536       0.26891468      -1.21270145
H       -1.59679061      -1.60051742       1.04556924
H       -0.78755914      -2.10842565      -0.43276406
H       -2.41436167      -1.41688525      -0.51533597
H       -2.75213906       1.08586959      -0.03807697
H       -1.92181981       0.93275747       1.51284810
H       -1.36370908       2.11549703       0.31921973
18
Frame=14 idx=008111 GeodesicLength=1.383784431079886 rxn_smarts="[C:1]([N:2]([C:3](=[O:4])[C:5]([C:6]([H:13])([H:14])[H:15])([C:7]([H:16])([H:17])[H:18])[H:12])[H:11])([H:8])([H:9])[H:10]>>[C:1](=[N:2][H:11])([H:9])[H:10].[C:3](=[O:4])([C:5]([C:6]([H:13])([H:14])[H:15])([C:7]([H:16])([H:17])[H:18])[H:12])[H:8]"
C        2.80233138       0.29202160      -0.36422574
N        1.75257914      -0.44061491      -0.82113700
C        0.49950567       0.15700135       0.49338562
O        0.73749108      -0.33728092       1.57722584
C       -0.87514642       0.04292520      -0.14855107
C       -1.45536727      -1.35833972       0.00751077
C       -1.79692731       1.10816489       0.44420769
H        1.62494674       1.33998303       0.32785547
H        3.65547454       0.39907131      -1.03834736
H        3.10634367      -0.07634302       0.61864594
H        1.60370725      -0.36513803      -1.81871053
H       -0.74365581       0.26042814      -1.21428500
H       -1.59459663      -1.59912021       1.06238267
H       -0.78535469      -2.10918956      -0.41487356
H       -2.42012127      -1.43467957      -0.49687649
H       -2.77751688       1.07063871      -0.03433346
H       -1.93782170       0.93602907       1.51292263
H       -1.39587148       2.11444265       0.30720358
18
Frame=15 idx=008111 GeodesicLength=1.480847072071671 rxn_smarts="[C:1]([N:2]([C:3](=[O:4])[C:5]([C:6]([H:13])([H:14])[H:15])([C:7]([H:16])([H:17])[H:18])[H:12])[H:11])([H:8])([H:9])[H:10]>>[C:1](=[N:2][H:11])([H:9])[H:10].[C:3](=[O:4])([C:5]([C:6]([H:13])([H:14])[H:15])([C:7]([H:16])([H:17])[H:18])[H:12])[H:8]"
C        2.83734859       0.28733409      -0.36435459
N        1.75397567      -0.38066351      -0.84730585
C        0.48656634       0.17776227       0.48174720
O        0.73643732      -0.33351477       1.55630137
C       -0.89187064       0.04230713      -0.14704842
C       -1.45872139      -1.36292515       0.02211035
C       -1.82024817       1.10439612       0.44145746
H        1.66750470       1.36019537       0.34657020
H        3.71136072       0.32197623      -1.01971890
H        3.10265555      -0.12357968       0.61347323
H        1.62794319      -0.29232403      -1.84686430
H       -0.76946942       0.25164781      -1.21570641
H       -1.59160865      -1.59722868       1.07928794
H       -0.78100635      -2.10935574      -0.39613072
H       -2.42409604      -1.45307651      -0.47875105
H       -2.80298208       1.05447920      -0.03164040
H       -1.95470099       0.93940686       1.51220447
H       -1.42908834       2.11316300       0.29436841
18
Frame=16 idx=008111 GeodesicLength=1.5773742978208984 rxn_smarts="[C:1]([N:2]([C:3](=[O:4])[C:5]([C:6]([H:13])([H:14])[H:15])([C:7]([H:16])([H:17])[H:18])[H:12])[H:11])([H:8])([H:9])[H:10]>>[C:1](=[N:2][H:11])([H:9])[H:10].[C:3](=[O:4])([C:5]([C:6]([H:13])([H:14])[H:15])([C:7]([H:16])([H:17])[H:18])[H:12])[H:8]"
C        2.87228448       0.28061037      -0.36473464
N        1.75597867      -0.31577105      -0.87174225
C        0.47331524       0.20004137       0.47092328
O        0.73535637      -0.32864275       1.53542550
C       -0.90793196       0.04190941      -0.14545057
C       -1.46052979      -1.36735558       0.03688671
C       -1.84389674       1.10036175       0.43780592
H        1.71325109       1.37921387       0.36970211
H        3.75843339       0.23993682      -1.00383947
H        3.09662645      -0.17293910       0.60508535
H        1.65282351      -0.21605061      -1.87270371
H       -0.79396401       0.24261442      -1.21684604
H       -1.58770548      -1.59479952       1.09623671
H       -0.77420257      -2.10881702      -0.37633713
H       -2.42583293      -1.47210086      -0.46103755
H       -2.82823399       1.03728628      -0.03030266
H       -1.97248982       0.94287262       1.51041775
H       -1.46328192       2.11162958       0.28051068
