16
Frame=0 idx=003012 GeodesicLength=0.0 rxn_smarts="[C:1]([C@@:2]1([H:10])[C:3]([H:11])([H:12])[C:4]([H:13])([H:14])[C@:5]1([O:6][H:16])[H:15])([H:7])([H:8])[H:9]>>[C:1]([H:7])([H:8])([H:9])[H:14].[C@:2]12([H:10])[C:3]([H:11])([H:12])[C@@:4]1([H:13])[C@@:5]2([O:6][H:16])[H:15]"
C        1.60507408      -0.81723976      -0.62702530
C        0.18353703       0.02654597       0.68328328
C        0.02577770       1.51229084       0.52118693
C       -1.05709903       1.10205796      -0.46991295
C       -1.22751406      -0.22281374       0.17456377
O       -1.39538492      -1.36346147      -0.67162308
H        1.39914185      -1.84960583      -0.37532254
H        1.66793028      -0.68337539      -1.71085997
H        2.46040336      -0.38552801      -0.12211215
H        0.73678553      -0.51703705       1.44924998
H       -0.25298650       1.93929343       1.50970805
H        0.90852174       2.06997640       0.18072389
H       -1.88270283       1.74015349      -0.77137860
H        0.62832917      -0.14694590      -0.62455012
H       -1.91451668      -0.36976239       1.04493167
H       -1.88529676      -2.03454851      -0.19086281
16
Frame=1 idx=003012 GeodesicLength=0.12533132916343642 rxn_smarts="[C:1]([C@@:2]1([H:10])[C:3]([H:11])([H:12])[C:4]([H:13])([H:14])[C@:5]1([O:6][H:16])[H:15])([H:7])([H:8])[H:9]>>[C:1]([H:7])([H:8])([H:9])[H:14].[C@:2]12([H:10])[C:3]([H:11])([H:12])[C@@:4]1([H:13])[C@@:5]2([O:6][H:16])[H:15]"
C        1.60664894      -0.81764720      -0.63895974
C        0.18296210       0.02569812       0.68154082
C        0.01939513       1.51414645       0.54414834
C       -1.03827566       1.09422525      -0.46869091
C       -1.23298299      -0.22337028       0.18584615
O       -1.41326172      -1.36275245      -0.65608009
H        1.41006525      -1.85207873      -0.38562881
H        1.68278399      -0.70039538      -1.72361558
H        2.46491836      -0.38442056      -0.13915391
H        0.73219769      -0.52032263       1.44793707
H       -0.28376621       1.93249028       1.52743772
H        0.90127882       2.08159021       0.22025904
H       -1.84547913       1.73100645      -0.81634429
H        0.61678982      -0.12848829      -0.67096161
H       -1.92408323      -0.34867745       1.05414724
H       -1.87919115      -2.04100381      -0.16188143
16
Frame=2 idx=003012 GeodesicLength=0.25028049491101567 rxn_smarts="[C:1]([C@@:2]1([H:10])[C:3]([H:11])([H:12])[C:4]([H:13])([H:14])[C@:5]1([O:6][H:16])[H:15])([H:7])([H:8])[H:9]>>[C:1]([H:7])([H:8])([H:9])[H:14].[C@:2]12([H:10])[C:3]([H:11])([H:12])[C@@:4]1([H:13])[C@@:5]2([O:6][H:16])[H:15]"
C        1.60756066      -0.81804314      -0.65048200
C        0.18213449       0.02503369       0.68067508
C        0.01307436       1.51574742       0.56651316
C       -1.02010041       1.08658114      -0.46645320
C       -1.23829010      -0.22389414       0.19708216
O       -1.43031969      -1.36144970      -0.64133192
H        1.42137052      -1.85444464      -0.39462780
H        1.69610181      -0.71773928      -1.73565199
H        2.46896124      -0.38297390      -0.15642075
H        0.72736144      -0.52325840       1.44758746
H       -0.31349582       1.92652821       1.54375927
H        0.89389757       2.09201231       0.25803582
H       -1.80745723       1.72117127      -0.85846359
H        0.60476022      -0.10993082      -0.71760979
H       -1.93363254      -0.32828579       1.06259774
H       -1.87192652      -2.04705423      -0.13520965
16
Frame=3 idx=003012 GeodesicLength=0.3748956171178971 rxn_smarts="[C:1]([C@@:2]1([H:10])[C:3]([H:11])([H:12])[C:4]([H:13])([H:14])[C@:5]1([O:6][H:16])[H:15])([H:7])([H:8])[H:9]>>[C:1]([H:7])([H:8])([H:9])[H:14].[C@:2]12([H:10])[C:3]([H:11])([H:12])[C@@:4]1([H:13])[C@@:5]2([O:6][H:16])[H:15]"
C        1.60781138      -0.81837477      -0.66164754
C        0.18105671       0.02449255       0.68076087
C        0.00684859       1.51709605       0.58835431
C       -1.00243310       1.07905102      -0.46334590
C       -1.24343447      -0.22441261       0.20829354
O       -1.44659861      -1.35968012      -0.62723535
H        1.43309402      -1.85663634      -0.40244462
H        1.70795371      -0.73528640      -1.74702942
H        2.47249905      -0.38113882      -0.17394089
H        0.72232340      -0.52595214       1.44820432
H       -0.34231383       1.92140692       1.55876974
H        0.88649414       2.10131805       0.29425914
H       -1.76856977       1.71059606      -0.89796898
H        0.59218923      -0.09128471      -0.76468463
H       -1.94322430      -0.30845875       1.07031316
H       -1.86369614      -2.05273598      -0.11065777
16
Frame=4 idx=003012 GeodesicLength=0.4992378893873824 rxn_smarts="[C:1]([C@@:2]1([H:10])[C:3]([H:11])([H:12])[C:4]([H:13])([H:14])[C@:5]1([O:6][H:16])[H:15])([H:7])([H:8])[H:9]>>[C:1]([H:7])([H:8])([H:9])[H:14].[C@:2]12([H:10])[C:3]([H:11])([H:12])[C@@:4]1([H:13])[C@@:5]2([O:6][H:16])[H:15]"
C        1.60738364      -0.81858519      -0.67250004
C        0.17973087       0.02401358       0.68190445
C        0.00075211       1.51818978       0.60972905
C       -0.98510647       1.07154552      -0.45951648
C       -1.24840878      -0.22495105       0.21949419
O       -1.46210017      -1.35756194      -0.61366827
H        1.44528111      -1.85857992      -0.40917740
H        1.71837584      -0.75292061      -1.75779633
H        2.47548468      -0.37885150      -0.19174994
H        0.71713159      -0.52850791       1.44982132
H       -0.37034940       1.91713896       1.57252022
H        0.87918319       2.10955096       0.32910843
H       -1.72875525       1.69922207      -0.93500534
H        0.57901210      -0.07256399      -0.81238594
H       -1.95292762      -0.28907060       1.07729208
H       -1.85468742      -2.05806815      -0.08807001
16
Frame=5 idx=003012 GeodesicLength=0.6233941833057051 rxn_smarts="[C:1]([C@@:2]1([H:10])[C:3]([H:11])([H:12])[C:4]([H:13])([H:14])[C@:5]1([O:6][H:16])[H:15])([H:7])([H:8])[H:9]>>[C:1]([H:7])([H:8])([H:9])[H:14].[C@:2]12([H:10])[C:3]([H:11])([H:12])[C@@:4]1([H:13])[C@@:5]2([O:6][H:16])[H:15]"
C        1.60631414      -0.81866670      -0.68305862
C        0.17816551       0.02354944       0.68413554
C       -0.00518519       1.51903456       0.63066068
C       -0.96796898       1.06398674      -0.45511186
C       -1.25320386      -0.22552508       0.23066990
O       -1.47684672      -1.35519085      -0.60054843
H        1.45796131      -1.86023284      -0.41490244
H        1.72750574      -0.77060420      -1.76797050
H        2.47789671      -0.37608033      -0.20981823
H        0.71180843      -0.53099720       1.45242777
H       -0.39771261       1.91372630       1.58502981
H        0.87204820       2.11677634       0.36271771
H       -1.68811912       1.68707489      -0.96951387
H        0.56516860      -0.05377487      -0.86092718
H       -1.96277117      -0.27000135       1.08350553
H       -1.84506096      -2.06307486      -0.06729581
16
Frame=6 idx=003012 GeodesicLength=0.7473701886929803 rxn_smarts="[C:1]([C@@:2]1([H:10])[C:3]([H:11])([H:12])[C:4]([H:13])([H:14])[C@:5]1([O:6][H:16])[H:15])([H:7])([H:8])[H:9]>>[C:1]([H:7])([H:8])([H:9])[H:14].[C@:2]12([H:10])[C:3]([H:11])([H:12])[C@@:4]1([H:13])[C@@:5]2([O:6][H:16])[H:15]"
C        1.60455310      -0.81856812      -0.69334832
C        0.17635971       0.02303643       0.68760413
C       -0.01093026       1.51962025       0.65118018
C       -0.95078969       1.05625841      -0.45029726
C       -1.25780577      -0.22614704       0.24181376
O       -1.49078818      -1.35266645      -0.58779394
H        1.47118279      -1.86151451      -0.41969692
H        1.73529912      -0.78820477      -1.77758430
H        2.47966969      -0.37277060      -0.22819246
H        0.70639159      -0.53352748       1.45611307
H       -0.42453164       1.91120993       1.59626653
H        0.86519731       2.12299126       0.39524321
H       -1.64664159       1.67413985      -1.00149657
H        0.55058950      -0.03496002      -0.91049662
H       -1.97283120      -0.25111799       1.08887428
H       -1.83492448      -2.06777916      -0.04818877
16
Frame=7 idx=003012 GeodesicLength=0.8712095262307049 rxn_smarts="[C:1]([C@@:2]1([H:10])[C:3]([H:11])([H:12])[C:4]([H:13])([H:14])[C@:5]1([O:6][H:16])[H:15])([H:7])([H:8])[H:9]>>[C:1]([H:7])([H:8])([H:9])[H:14].[C@:2]12([H:10])[C:3]([H:11])([H:12])[C@@:4]1([H:13])[C@@:5]2([O:6][H:16])[H:15]"
C        1.60209424      -0.81827691      -0.70337306
C        0.17431120       0.02242046       0.69240537
C       -0.01644742       1.51994083       0.67129943
C       -0.93334138       1.04824838      -0.44522577
C       -1.26219579      -0.22682338       0.25290033
O       -1.50389166      -1.35007127      -0.57534895
H        1.48497569      -1.86235906      -0.42362214
H        1.74181782      -0.80565451      -1.78664432
H        2.48075352      -0.36888940      -0.24685829
H        0.70089668      -0.53618464       1.46093185
H       -0.45090010       1.90961739       1.60616365
H        0.85872085       2.12821267       0.42680783
H       -1.60448959       1.66048691      -1.03080561
H        0.53521541      -0.01616840      -0.96131460
H       -1.98314217      -0.23229651       1.09329091
H       -1.82437730      -2.07220257      -0.03060663
16
Frame=8 idx=003012 GeodesicLength=0.9949176087048415 rxn_smarts="[C:1]([C@@:2]1([H:10])[C:3]([H:11])([H:12])[C:4]([H:13])([H:14])[C@:5]1([O:6][H:16])[H:15])([H:7])([H:8])[H:9]>>[C:1]([H:7])([H:8])([H:9])[H:14].[C@:2]12([H:10])[C:3]([H:11])([H:12])[C@@:4]1([H:13])[C@@:5]2([O:6][H:16])[H:15]"
C        1.59893273      -0.81779027      -0.71313391
C        0.17203333       0.02165141       0.69865428
C       -0.02170464       1.51998624       0.69102365
C       -0.91535885       1.03982437      -0.44005256
C       -1.26634406      -0.22755921       0.26390138
O       -1.51609518      -1.34748558      -0.56316173
H        1.49938046      -1.86271373      -0.42673327
H        1.74707305      -0.82286121      -1.79515480
H        2.48111391      -0.36442138      -0.26581073
H        0.69535276      -0.53904850       1.46696251
H       -0.47692428       1.90897350       1.61462936
H        0.85270646       2.13244070       0.45753849
H       -1.56188969       1.64622950      -1.05729733
H        0.51899246       0.00254349      -1.01357876
H       -1.99374393      -0.21340946       1.09663298
H       -1.81352454      -2.07635988      -0.01441957
16
Frame=9 idx=003012 GeodesicLength=1.118750065203693 rxn_smarts="[C:1]([C@@:2]1([H:10])[C:3]([H:11])([H:12])[C:4]([H:13])([H:14])[C@:5]1([O:6][H:16])[H:15])([H:7])([H:8])[H:9]>>[C:1]([H:7])([H:8])([H:9])[H:14].[C@:2]12([H:10])[C:3]([H:11])([H:12])[C@@:4]1([H:13])[C@@:5]2([O:6][H:16])[H:15]"
C        1.59496699      -0.81706217      -0.72259266
C        0.16944679       0.02066025       0.70652534
C       -0.02665210       1.51970002       0.71040045
C       -0.89657477       1.03084974      -0.43490359
C       -1.27020809      -0.22835209       0.27479856
O       -1.52735049      -1.34497161      -0.55120481
H        1.51433064      -1.86240210      -0.42913809
H        1.75112234      -0.83974778      -1.80307755
H        2.48056612      -0.35930074      -0.28492932
H        0.68972286      -0.54225144       1.47429334
H       -0.50246863       1.90918708       1.62161600
H        0.84724364       2.13558467       0.48752510
H       -1.51904229       1.63143704      -1.08111499
H        0.50174155       0.02127396      -1.06757291
H       -2.00457826      -0.19433315       1.09878784
H       -1.80226630      -2.08027168       0.00058728
16
Frame=10 idx=003012 GeodesicLength=1.2424782782769708 rxn_smarts="[C:1]([C@@:2]1([H:10])[C:3]([H:11])([H:12])[C:4]([H:13])([H:14])[C@:5]1([O:6][H:16])[H:15])([H:7])([H:8])[H:9]>>[C:1]([H:7])([H:8])([H:9])[H:14].[C@:2]12([H:10])[C:3]([H:11])([H:12])[C@@:4]1([H:13])[C@@:5]2([O:6][H:16])[H:15]"
C        1.59028825      -0.81614195      -0.73176496
C        0.16663139       0.01940923       0.71606315
C       -0.03129273       1.51911817       0.72941673
C       -0.87673110       1.02118854      -0.42987800
C       -1.27377791      -0.22920306       0.28556555
O       -1.53759288      -1.34259825      -0.53943341
H        1.52992855      -1.86147825      -0.43087232
H        1.75387081      -0.85618535      -1.81046996
H        2.47920982      -0.35354323      -0.30430746
H        0.68406277      -0.54582670       1.48299059
H       -0.52780102       1.91037186       1.62696684
H        0.84238795       2.13774041       0.51694374
H       -1.47606858       1.61618346      -1.10195342
H        0.48344299       0.03987026      -1.12334909
H       -2.01571977      -0.17494964       1.09958619
H       -1.79083854      -2.08395550       0.01449584
16
Frame=11 idx=003012 GeodesicLength=1.3661176343270662 rxn_smarts="[C:1]([C@@:2]1([H:10])[C:3]([H:11])([H:12])[C:4]([H:13])([H:14])[C@:5]1([O:6][H:16])[H:15])([H:7])([H:8])[H:9]>>[C:1]([H:7])([H:8])([H:9])[H:14].[C@:2]12([H:10])[C:3]([H:11])([H:12])[C@@:4]1([H:13])[C@@:5]2([O:6][H:16])[H:15]"
C        1.58490955      -0.81504832      -0.74063128
C        0.16360025       0.01783385       0.72737131
C       -0.03560463       1.51822802       0.74807882
C       -0.85554897       1.01068334      -0.42506423
C       -1.27702009      -0.23011086       0.29617366
O       -1.54676133      -1.34042637      -0.52782282
H        1.54619549      -1.85991333      -0.43201291
H        1.75528836      -0.87206914      -1.81734901
H        2.47702740      -0.34715093      -0.32391890
H        0.67838193      -0.54986317       1.49313408
H       -0.55299697       1.91255689       1.63054887
H        0.83818781       2.13890437       0.54592588
H       -1.43319019       1.60056955      -1.11972128
H        0.46399315       0.05835479      -1.18103682
H       -2.02715862      -0.15512794       1.09886373
H       -1.77930316      -2.08742075       0.02746089
16
Frame=12 idx=003012 GeodesicLength=1.4896423259558385 rxn_smarts="[C:1]([C@@:2]1([H:10])[C:3]([H:11])([H:12])[C:4]([H:13])([H:14])[C@:5]1([O:6][H:16])[H:15])([H:7])([H:8])[H:9]>>[C:1]([H:7])([H:8])([H:9])[H:14].[C@:2]12([H:10])[C:3]([H:11])([H:12])[C@@:4]1([H:13])[C@@:5]2([O:6][H:16])[H:15]"
C        1.57886006      -0.81381006      -0.74916556
C        0.16036843       0.01588253       0.74054149
C       -0.03957627       1.51701870       0.76638725
C       -0.83276676       0.99917586      -0.42051726
C       -1.27989706      -0.23107617       0.30659758
O       -1.55479337      -1.33851490      -0.51635595
H        1.56312752      -1.85768722      -0.43266271
H        1.75533680      -0.88728503      -1.82374048
H        2.47401874      -0.34015838      -0.34372461
H        0.67268881      -0.55443070       1.50479785
H       -0.57811953       1.91575142       1.63221901
H        0.83467996       2.13908380       0.57458820
H       -1.39060881       1.58469461      -1.13436667
H        0.44326927       0.07678362      -1.24069606
H       -2.03888540      -0.13474380       1.09645911
H       -1.76770241      -2.09068428       0.03963881
16
Frame=13 idx=003012 GeodesicLength=1.6130164234029571 rxn_smarts="[C:1]([C@@:2]1([H:10])[C:3]([H:11])([H:12])[C:4]([H:13])([H:14])[C@:5]1([O:6][H:16])[H:15])([H:7])([H:8])[H:9]>>[C:1]([H:7])([H:8])([H:9])[H:14].[C@:2]12([H:10])[C:3]([H:11])([H:12])[C@@:4]1([H:13])[C@@:5]2([O:6][H:16])[H:15]"
C        1.57219694      -0.81247922      -0.75732995
C        0.15695252       0.01351942       0.75562628
C       -0.04321258       1.51549281       0.78433723
C       -0.80815964       0.98651906      -0.41625194
C       -1.28237318      -0.23209843       0.31680822
O       -1.56163948      -1.33690996      -0.50501952
H        1.58070250      -1.85481383      -0.43293969
H        1.75396209      -0.90172188      -1.82967153
H        2.47021846      -0.33264285      -0.36367400
H        0.66698012      -0.55956971       1.51804317
H       -0.60321141       1.91995392       1.63182227
H        0.83186274       2.13831124       0.60304050
H       -1.34850477       1.56864938      -1.14586683
H        0.42113542       0.09527066      -1.30231300
H       -2.05083679      -0.11371364       1.09220748
H       -1.75607295      -2.09376697       0.05118130
16
Frame=14 idx=003012 GeodesicLength=1.736208556951233 rxn_smarts="[C:1]([C@@:2]1([H:10])[C:3]([H:11])([H:12])[C:4]([H:13])([H:14])[C@:5]1([O:6][H:16])[H:15])([H:7])([H:8])[H:9]>>[C:1]([H:7])([H:8])([H:9])[H:14].[C@:2]12([H:10])[C:3]([H:11])([H:12])[C@@:4]1([H:13])[C@@:5]2([O:6][H:16])[H:15]"
C        1.56495383      -0.81110773      -0.76508537
C        0.15335911       0.01071517       0.77270733
C       -0.04653089       1.51364673       0.80192101
C       -0.78151570       0.97255903      -0.41225831
C       -1.28441226      -0.23317775       0.32678948
O       -1.56722361      -1.33566443      -0.49381242
H        1.59887039      -1.85132081      -0.43298863
H        1.75103827      -0.91521927      -1.83519130
H        2.46566355      -0.32470677      -0.38371733
H        0.66125220      -0.56532085       1.53294767
H       -0.62831154       1.92516745       1.62919125
H        0.82973590       2.13660225       0.63136827
H       -1.30694111       1.55246426      -1.15428937
H        0.39742972       0.11402482      -1.36578169
H       -2.06296764      -0.09195950       1.08594678
H       -1.74440022      -2.09670259       0.06225263
16
Frame=15 idx=003012 GeodesicLength=1.8591964918656156 rxn_smarts="[C:1]([C@@:2]1([H:10])[C:3]([H:11])([H:12])[C:4]([H:13])([H:14])[C@:5]1([O:6][H:16])[H:15])([H:7])([H:8])[H:9]>>[C:1]([H:7])([H:8])([H:9])[H:14].[C@:2]12([H:10])[C:3]([H:11])([H:12])[C@@:4]1([H:13])[C@@:5]2([O:6][H:16])[H:15]"
C        1.55720729      -0.80977938      -0.77237326
C        0.14958435       0.00747301       0.79180213
C       -0.04956074       1.51149127       0.81910224
C       -0.75269407       0.95716296      -0.40848871
C       -1.28597917      -0.23431858       0.33651647
O       -1.57147986      -1.33482424      -0.48273221
H        1.61755705      -1.84727929      -0.43296800
H        1.74644692      -0.92764787      -1.84034591
H        2.46043186      -0.31650785      -0.40377942
H        0.65548287      -0.57166971       1.54954931
H       -0.65341786       1.93136811       1.62414531
H        0.82825820       2.13400656       0.65962835
H       -1.26597157       1.53614386      -1.15968591
H        0.37198707       0.13336377      -1.43088762
H       -2.07518145      -0.06945437       1.07752078
H       -1.73267090      -2.09952825       0.07299645
16
Frame=16 idx=003012 GeodesicLength=1.9819734332217604 rxn_smarts="[C:1]([C@@:2]1([H:10])[C:3]([H:11])([H:12])[C:4]([H:13])([H:14])[C@:5]1([O:6][H:16])[H:15])([H:7])([H:8])[H:9]>>[C:1]([H:7])([H:8])([H:9])[H:14].[C@:2]12([H:10])[C:3]([H:11])([H:12])[C@@:4]1([H:13])[C@@:5]2([O:6][H:16])[H:15]"
C        1.54905839      -0.80861425      -0.77911925
C        0.14562403       0.00382087       0.81287963
C       -0.05235056       1.50905471       0.83582497
C       -0.72162073       0.94022400      -0.40486796
C       -1.28704410      -0.23552619       0.34595696
O       -1.57434737      -1.33443451      -0.47179731
H        1.63666920      -1.84283021      -0.43303526
H        1.74003445      -0.93890419      -1.84518408
H        2.45465076      -0.30826880      -0.42377806
H        0.64963504      -0.57856203       1.56786589
H       -0.67849948       1.93852598       1.61650310
H        0.82734410       2.13060419       0.68783707
H       -1.22563478       1.51966935      -1.16211780
H        0.34464323       0.15374488      -1.49728607
H       -2.08734504      -0.04620968       1.06678137
H       -1.72081714      -2.10229412       0.08353680
