11
Frame=0 idx=010684 GeodesicLength=0.0 rxn_smarts="[C:1](#[C:2][c:3]1[c:4]([H:9])[c:5]([H:10])[c:6]([H:11])[o:7]1)[H:8]>>[C:1](=[C:2])([c:3]1[c:4]([H:9])[c:5]([H:10])[c:6]([H:11])[o:7]1)[H:8]"
C        2.34399888      -0.11762895       0.09695991
C        1.96021919      -0.25264884      -1.08113600
C        0.56181528      -0.11439052      -0.48051598
C       -0.19451074       0.95507238      -0.09734524
C       -1.48439178       0.43718215       0.22259015
C       -1.40923956      -0.89702940       0.02718685
O       -0.17140774      -1.25281245      -0.39120999
H        2.72599043      -0.02501837       1.09364931
H        0.13562730       1.98012476      -0.07839168
H       -2.34934598       0.98741463       0.55463801
H       -2.11875531      -1.70026537       0.13357461
11
Frame=1 idx=010684 GeodesicLength=0.027645505802014976 rxn_smarts="[C:1](#[C:2][c:3]1[c:4]([H:9])[c:5]([H:10])[c:6]([H:11])[o:7]1)[H:8]>>[C:1](=[C:2])([c:3]1[c:4]([H:9])[c:5]([H:10])[c:6]([H:11])[o:7]1)[H:8]"
C        2.35553117      -0.12058985       0.09394147
C        1.95666141      -0.24119418      -1.08011288
C        0.56198281      -0.11399231      -0.45788165
C       -0.20018395       0.95579354      -0.08788529
C       -1.49267395       0.43792405       0.21929743
C       -1.41526005      -0.89649038       0.02338534
O       -0.17054177      -1.25370236      -0.36971394
H        2.76839162      -0.03944250       1.07905768
H        0.12546689       1.98244877      -0.07836468
H       -2.36413235       0.98912422       0.53221635
H       -2.12524183      -1.69987900       0.12606018
11
Frame=2 idx=010684 GeodesicLength=0.055085513144527726 rxn_smarts="[C:1](#[C:2][c:3]1[c:4]([H:9])[c:5]([H:10])[c:6]([H:11])[o:7]1)[H:8]>>[C:1](=[C:2])([c:3]1[c:4]([H:9])[c:5]([H:10])[c:6]([H:11])[o:7]1)[H:8]"
C        2.36673107      -0.12360647       0.09103515
C        1.95284814      -0.22859761      -1.07872103
C        0.56215055      -0.11280317      -0.43493108
C       -0.20614666       0.95695376      -0.07814389
C       -1.50136987       0.43884025       0.21467476
C       -1.42032084      -0.89609191       0.02122556
O       -0.16984102      -1.25380039      -0.34942910
H        2.81060156      -0.05677544       1.06344639
H        0.11510723       1.98507877      -0.07707128
H       -2.37954928       0.99081104       0.50681710
H       -2.13021089      -1.70000882       0.12109742
11
Frame=3 idx=010684 GeodesicLength=0.08272391776657816 rxn_smarts="[C:1](#[C:2][c:3]1[c:4]([H:9])[c:5]([H:10])[c:6]([H:11])[o:7]1)[H:8]>>[C:1](=[C:2])([c:3]1[c:4]([H:9])[c:5]([H:10])[c:6]([H:11])[o:7]1)[H:8]"
C        2.37843903      -0.12589045       0.08627851
C        1.94742712      -0.21420224      -1.07807982
C        0.56220892      -0.11079395      -0.41011570
C       -0.21221037       0.95829677      -0.06514106
C       -1.51128955       0.44004901       0.20763261
C       -1.42426529      -0.89621429       0.02338329
O       -0.16892555      -1.25340012      -0.32749142
H        2.85547245      -0.07792272       1.04385571
H        0.10537995       1.98762005      -0.06910945
H       -2.39805187       0.99320291       0.46996974
H       -2.13418484      -1.70074498       0.11881759
11
Frame=4 idx=010684 GeodesicLength=0.1100042519280586 rxn_smarts="[C:1](#[C:2][c:3]1[c:4]([H:9])[c:5]([H:10])[c:6]([H:11])[o:7]1)[H:8]>>[C:1](=[C:2])([c:3]1[c:4]([H:9])[c:5]([H:10])[c:6]([H:11])[o:7]1)[H:8]"
C        2.39073486      -0.12865424       0.08007455
C        1.94016467      -0.20274363      -1.07722638
C        0.56226984      -0.11020239      -0.38245198
C       -0.21799897       0.95875910      -0.05059352
C       -1.52151375       0.44134125       0.19935301
C       -1.42833409      -0.89669200       0.02868632
O       -0.16763274      -1.25427553      -0.29834026
H        2.90268094      -0.09203148       1.01965924
H        0.09708072       1.98887205      -0.05828214
H       -2.41566003       0.99577195       0.43274870
H       -2.14179146      -1.70014508       0.10637244
11
Frame=5 idx=010684 GeodesicLength=0.1369268439178673 rxn_smarts="[C:1](#[C:2][c:3]1[c:4]([H:9])[c:5]([H:10])[c:6]([H:11])[o:7]1)[H:8]>>[C:1](=[C:2])([c:3]1[c:4]([H:9])[c:5]([H:10])[c:6]([H:11])[o:7]1)[H:8]"
C        2.40219572      -0.13137222       0.07502134
C        1.93301161      -0.19090017      -1.07514008
C        0.56237928      -0.10895950      -0.35469263
C       -0.22421485       0.95975536      -0.03730855
C       -1.53114738       0.44251538       0.19174576
C       -1.43214491      -0.89699204       0.03346496
O       -0.16654667      -1.25448885      -0.27016355
H        2.94841985      -0.10813980       0.99534603
H        0.08782420       1.99079594      -0.04999749
H       -2.43167261       0.99748631       0.39744420
H       -2.14810425      -1.69970043       0.09428002
11
Frame=6 idx=010684 GeodesicLength=0.1638061068832395 rxn_smarts="[C:1](#[C:2][c:3]1[c:4]([H:9])[c:5]([H:10])[c:6]([H:11])[o:7]1)[H:8]>>[C:1](=[C:2])([c:3]1[c:4]([H:9])[c:5]([H:10])[c:6]([H:11])[o:7]1)[H:8]"
C        2.41292301      -0.13349998       0.07091448
C        1.92614397      -0.17700012      -1.07202910
C        0.56255562      -0.10631013      -0.32706299
C       -0.23102812       0.96157707      -0.02451660
C       -1.54086439       0.44372806       0.18290052
C       -1.43555339      -0.89708554       0.03690498
O       -0.16548983      -1.25344474      -0.24457009
H        2.99287894      -0.12983969       0.97052748
H        0.07759061       1.99363549      -0.04152892
H       -2.44747117       0.99859618       0.36010502
H       -2.15168523      -1.70035662       0.08835522
11
Frame=7 idx=010684 GeodesicLength=0.19049137323615192 rxn_smarts="[C:1](#[C:2][c:3]1[c:4]([H:9])[c:5]([H:10])[c:6]([H:11])[o:7]1)[H:8]>>[C:1](=[C:2])([c:3]1[c:4]([H:9])[c:5]([H:10])[c:6]([H:11])[o:7]1)[H:8]"
C        2.42366090      -0.13630869       0.06623875
C        1.91798894      -0.16474198      -1.06838006
C        0.56270955      -0.10412231      -0.29745539
C       -0.23769687       0.96311882      -0.01053057
C       -1.55033453       0.44491153       0.17426257
C       -1.43894478      -0.89728084       0.04237480
O       -0.16441012      -1.25279154      -0.21463236
H        3.03812953      -0.14813027       0.94233303
H        0.06781356       1.99608925      -0.03218208
H       -2.46239162       0.99957323       0.32168249
H       -2.15652457      -1.70031721       0.07628883
11
Frame=8 idx=010684 GeodesicLength=0.21702907399021057 rxn_smarts="[C:1](#[C:2][c:3]1[c:4]([H:9])[c:5]([H:10])[c:6]([H:11])[o:7]1)[H:8]>>[C:1](=[C:2])([c:3]1[c:4]([H:9])[c:5]([H:10])[c:6]([H:11])[o:7]1)[H:8]"
C        2.43372856      -0.13805960       0.06235083
C        1.90968932      -0.15147949      -1.06360898
C        0.56287895      -0.10083997      -0.26729614
C       -0.24493167       0.96532327       0.00294191
C       -1.55965166       0.44601477       0.16517822
C       -1.44180658      -0.89738213       0.04808895
O       -0.16311230      -1.25122733      -0.18461217
H        3.08253079      -0.17068859       0.91279788
H        0.05696486       1.99929767      -0.02386411
H       -2.47658819       0.99975009       0.28261678
H       -2.15970208      -1.70070871       0.06540683
11
Frame=9 idx=010684 GeodesicLength=0.243158097350747 rxn_smarts="[C:1](#[C:2][c:3]1[c:4]([H:9])[c:5]([H:10])[c:6]([H:11])[o:7]1)[H:8]>>[C:1](=[C:2])([c:3]1[c:4]([H:9])[c:5]([H:10])[c:6]([H:11])[o:7]1)[H:8]"
C        2.44325815      -0.14113220       0.05860427
C        1.90088092      -0.13898490      -1.05815211
C        0.56298021      -0.09755370      -0.23650178
C       -0.25203988       0.96747217       0.01687233
C       -1.56850126       0.44708350       0.15610414
C       -1.44467904      -0.89737127       0.05375057
O       -0.16212090      -1.24951835      -0.15354387
H        3.12570443      -0.19096647       0.88117821
H        0.04659993       2.00232768      -0.01443446
H       -2.48955041       0.99965727       0.24274612
H       -2.16253213      -1.70101374       0.05337657
11
Frame=10 idx=010684 GeodesicLength=0.2689489356788546 rxn_smarts="[C:1](#[C:2][c:3]1[c:4]([H:9])[c:5]([H:10])[c:6]([H:11])[o:7]1)[H:8]>>[C:1](=[C:2])([c:3]1[c:4]([H:9])[c:5]([H:10])[c:6]([H:11])[o:7]1)[H:8]"
C        2.45208721      -0.14487263       0.05562767
C        1.89200787      -0.12722183      -1.05166508
C        0.56302304      -0.09402988      -0.20544924
C       -0.25923613       0.96979267       0.03006789
C       -1.57684605       0.44808083       0.14719473
C       -1.44740993      -0.89725215       0.05929716
O       -0.16131849      -1.24748615      -0.12176755
H        3.16738430      -0.21035297       0.84849234
H        0.03611005       2.00548029      -0.00631166
H       -2.50107703       0.99908806       0.20506204
H       -2.16472485      -1.70122624       0.03945169
11
Frame=11 idx=010684 GeodesicLength=0.2944036118007308 rxn_smarts="[C:1](#[C:2][c:3]1[c:4]([H:9])[c:5]([H:10])[c:6]([H:11])[o:7]1)[H:8]>>[C:1](=[C:2])([c:3]1[c:4]([H:9])[c:5]([H:10])[c:6]([H:11])[o:7]1)[H:8]"
C        2.46020708      -0.14927036       0.05324279
C        1.88321879      -0.11520439      -1.04441758
C        0.56297591      -0.08996499      -0.17458262
C       -0.26649624       0.97236917       0.04303053
C       -1.58472465       0.44899225       0.13840727
C       -1.44986813      -0.89703549       0.06442723
O       -0.16073471      -1.24492734      -0.09076474
H        3.20709501      -0.23010588       0.81483494
H        0.02559352       2.00887113       0.00206031
H       -2.51150201       0.99801529       0.16695044
H       -2.16576457      -1.70173939       0.02681143
11
Frame=12 idx=010684 GeodesicLength=0.31954698550224775 rxn_smarts="[C:1](#[C:2][c:3]1[c:4]([H:9])[c:5]([H:10])[c:6]([H:11])[o:7]1)[H:8]>>[C:1](=[C:2])([c:3]1[c:4]([H:9])[c:5]([H:10])[c:6]([H:11])[o:7]1)[H:8]"
C        2.46761874      -0.15443785       0.05186175
C        1.87497549      -0.10353277      -1.03630466
C        0.56287022      -0.08555961      -0.14429630
C       -0.27373784       0.97519241       0.05474830
C       -1.59204300       0.44982448       0.12981884
C       -1.45211476      -0.89675802       0.06877392
O       -0.16040134      -1.24204338      -0.06062488
H        3.24441686      -0.24929848       0.78133165
H        0.01505141       2.01251789       0.00865066
H       -2.52065328       0.99649932       0.13214553
H       -2.16598249      -1.70240398       0.01389518
11
Frame=13 idx=010684 GeodesicLength=0.34432963055971877 rxn_smarts="[C:1](#[C:2][c:3]1[c:4]([H:9])[c:5]([H:10])[c:6]([H:11])[o:7]1)[H:8]>>[C:1](=[C:2])([c:3]1[c:4]([H:9])[c:5]([H:10])[c:6]([H:11])[o:7]1)[H:8]"
C        2.47438870      -0.15850843       0.05182923
C        1.86781162      -0.09000278      -1.02704791
C        0.56279377      -0.07981001      -0.11491059
C       -0.28142072       0.97863709       0.06527692
C       -1.59904815       0.45048049       0.12057326
C       -1.45350960      -0.89635446       0.07229941
O       -0.15965186      -1.23804700      -0.03305483
H        3.27862632      -0.27344524       0.74765310
H        0.00351168       2.01681422       0.01419892
H       -2.52918541       0.99407120       0.09808237
H       -2.16431635      -1.70383507       0.00510011
11
Frame=14 idx=010684 GeodesicLength=0.3690002724190064 rxn_smarts="[C:1](#[C:2][c:3]1[c:4]([H:9])[c:5]([H:10])[c:6]([H:11])[o:7]1)[H:8]>>[C:1](=[C:2])([c:3]1[c:4]([H:9])[c:5]([H:10])[c:6]([H:11])[o:7]1)[H:8]"
C        2.48074083      -0.16340868       0.05231063
C        1.86094791      -0.07681538      -1.01726467
C        0.56262744      -0.07386537      -0.08586917
C       -0.28895429       0.98221234       0.07527707
C       -1.60560663       0.45106798       0.11157024
C       -1.45478464      -0.89598775       0.07560081
O       -0.15916257      -1.23394456      -0.00573836
H        3.31101302      -0.29652670       0.71368751
H       -0.00774718       2.02126555       0.01908318
H       -2.53680869       0.99139410       0.06551840
H       -2.16226521      -1.70539155      -0.00417564
11
Frame=15 idx=010684 GeodesicLength=0.3932408064052202 rxn_smarts="[C:1](#[C:2][c:3]1[c:4]([H:9])[c:5]([H:10])[c:6]([H:11])[o:7]1)[H:8]>>[C:1](=[C:2])([c:3]1[c:4]([H:9])[c:5]([H:10])[c:6]([H:11])[o:7]1)[H:8]"
C        2.48634586      -0.17124434       0.05232244
C        1.85340538      -0.06557997      -1.00727344
C        0.56221414      -0.06863373      -0.05642936
C       -0.29592473       0.98526085       0.08624722
C       -1.61147685       0.45171227       0.10351714
C       -1.45623336      -0.89548259       0.07947582
O       -0.15940968      -1.23009815       0.02293747
H        3.34204814      -0.31357218       0.67827750
H       -0.01785388       2.02493360       0.02506616
H       -2.54286760       0.98897302       0.03224765
H       -2.16024742      -1.70626878      -0.01638862
11
Frame=16 idx=010684 GeodesicLength=0.4171477611002494 rxn_smarts="[C:1](#[C:2][c:3]1[c:4]([H:9])[c:5]([H:10])[c:6]([H:11])[o:7]1)[H:8]>>[C:1](=[C:2])([c:3]1[c:4]([H:9])[c:5]([H:10])[c:6]([H:11])[o:7]1)[H:8]"
C        2.49150530      -0.17798065       0.05307981
C        1.84668091      -0.05292751      -0.99666575
C        0.56180659      -0.06234016      -0.02783473
C       -0.30313382       0.98879859       0.09626415
C       -1.61697707       0.45215781       0.09487899
C       -1.45691693      -0.89496556       0.08291415
O       -0.15926110      -1.22548215       0.04994809
H        3.36997033      -0.33440388       0.64302122
H       -0.02856114       2.02915219       0.03043830
H       -2.54831933       0.98574640      -0.00016654
H       -2.15679374      -1.70775509      -0.02587767
