13
Frame=0 idx=000465 GeodesicLength=0.0 rxn_smarts="[O:1]([C@@:2]1([H:8])[C:3]([H:9])([H:10])[C@@:4]2([H:11])[N:5]([H:12])[C@@:6]12[H:13])[H:7]>>[O:1]([C@@:2]1([H:8])[C:3]([H:9])([H:10])[C@:6]1([N:5]([C:4][H:11])[H:12])[H:13])[H:7]"
O        1.93074053       0.58739799       0.61362626
C        1.12981401       0.29650696      -0.47357672
C        0.42139282      -1.00714464      -0.49865271
C       -1.29365735      -0.71753569       0.80780982
N       -0.83023570       0.65567764       1.04202444
C       -0.34183326       0.45226123      -0.28499464
H        1.33172699       0.75454807       1.35673423
H        1.52328985       0.68580293      -1.40590004
H        0.66967569      -1.69486964       0.28972517
H        0.16825136      -1.45191119      -1.45093022
H       -2.18552598      -0.65439545       0.14120493
H       -1.57070184       1.34668245       0.99080293
H       -0.95293715       0.74697936      -1.12787351
13
Frame=1 idx=000465 GeodesicLength=0.055686242616645336 rxn_smarts="[O:1]([C@@:2]1([H:8])[C:3]([H:9])([H:10])[C@@:4]2([H:11])[N:5]([H:12])[C@@:6]12[H:13])[H:7]>>[O:1]([C@@:2]1([H:8])[C:3]([H:9])([H:10])[C@:6]1([N:5]([C:4][H:11])[H:12])[H:13])[H:7]"
O        1.92698470       0.58844699       0.61737907
C        1.12773018       0.29823054      -0.47115862
C        0.41722227      -1.00692344      -0.50149210
C       -1.27210843      -0.70662308       0.81561172
N       -0.83725228       0.67194557       1.02796026
C       -0.34580415       0.46186026      -0.29782569
H        1.32852360       0.72121991       1.36830428
H        1.53112723       0.68147283      -1.40191545
H        0.67743209      -1.69988315       0.27929042
H        0.17669709      -1.45346726      -1.45656961
H       -2.18984665      -0.67476103       0.18543281
H       -1.58828206       1.35124165       0.97502366
H       -0.95242359       0.76724020      -1.14004076
13
Frame=2 idx=000465 GeodesicLength=0.11142738234574018 rxn_smarts="[O:1]([C@@:2]1([H:8])[C:3]([H:9])([H:10])[C@@:4]2([H:11])[N:5]([H:12])[C@@:6]12[H:13])[H:7]>>[O:1]([C@@:2]1([H:8])[C:3]([H:9])([H:10])[C@:6]1([N:5]([C:4][H:11])[H:12])[H:13])[H:7]"
O        1.92251058       0.58916616       0.62179121
C        1.12557406       0.29970333      -0.46862062
C        0.41291581      -1.00691536      -0.50453789
C       -1.25075210      -0.69533241       0.82272238
N       -0.84441242       0.68769008       1.01362220
C       -0.34975187       0.47129978      -0.31090811
H        1.32470242       0.68895305       1.37881837
H        1.53917100       0.67698657      -1.39749295
H        0.68469262      -1.70512084       0.26849525
H        0.18524699      -1.45501313      -1.46241309
H       -2.19296321      -0.69501462       0.23177346
H       -1.60586979       1.35508264       0.95920510
H       -0.95106407       0.78851476      -1.15245530
13
Frame=3 idx=000465 GeodesicLength=0.16719139524743365 rxn_smarts="[O:1]([C@@:2]1([H:8])[C:3]([H:9])([H:10])[C@@:4]2([H:11])[N:5]([H:12])[C@@:6]12[H:13])[H:7]>>[O:1]([C@@:2]1([H:8])[C:3]([H:9])([H:10])[C@:6]1([N:5]([C:4][H:11])[H:12])[H:13])[H:7]"
O        1.91738067       0.58953593       0.62677367
C        1.12332749       0.30093032      -0.46598454
C        0.40847273      -1.00712261      -0.50777833
C       -1.22969919      -0.68373289       0.82903232
N       -0.85175262       0.70283501       0.99901932
C       -0.35367541       0.48058104      -0.32423605
H        1.32027854       0.65780465       1.38836015
H        1.54736675       0.67233579      -1.39266787
H        0.69144026      -1.71054381       0.25740684
H        0.19391660      -1.45657208      -1.46843438
H       -2.19478603      -0.71507087       0.28021328
H       -1.62346872       1.35816631       0.94336616
H       -0.94880107       0.81085319      -1.16507058
13
Frame=4 idx=000465 GeodesicLength=0.2229433583111553 rxn_smarts="[O:1]([C@@:2]1([H:8])[C:3]([H:9])([H:10])[C@@:4]2([H:11])[N:5]([H:12])[C@@:6]12[H:13])[H:7]>>[O:1]([C@@:2]1([H:8])[C:3]([H:9])([H:10])[C@:6]1([N:5]([C:4][H:11])[H:12])[H:13])[H:7]"
O        1.91164975       0.58955587       0.63223985
C        1.12097287       0.30192039      -0.46327256
C        0.40389357      -1.00754474      -0.51120289
C       -1.20906354      -0.67189390       0.83443985
N       -0.85930969       0.71731549       0.98415680
C       -0.35757526       0.48970822      -0.33780756
H        1.31526850       0.62778471       1.39701730
H        1.55566094       0.66751618      -1.38747679
H        0.69766341      -1.71611243       0.24609169
H        0.20272151      -1.45816674      -1.47460634
H       -2.19521522      -0.73484626       0.33074089
H       -1.64108534       1.36046515       0.92751351
H       -0.94558149       0.83429808      -1.17783377
13
Frame=5 idx=000465 GeodesicLength=0.27864119899868467 rxn_smarts="[O:1]([C@@:2]1([H:8])[C:3]([H:9])([H:10])[C@@:4]2([H:11])[N:5]([H:12])[C@@:6]12[H:13])[H:7]>>[O:1]([C@@:2]1([H:8])[C:3]([H:9])([H:10])[C@:6]1([N:5]([C:4][H:11])[H:12])[H:13])[H:7]"
O        1.90535978       0.58924444       0.63810907
C        1.11849205       0.30268599      -0.46050654
C        0.39918033      -1.00817804      -0.51480185
C       -1.18896090      -0.65988617       0.83884919
N       -0.86711798       0.73107566       0.96903625
C       -0.36145364       0.49868754      -0.35162520
H        1.30968799       0.59885684       1.40487654
H        1.56400091       0.66252791      -1.38195623
H        0.70335513      -1.72178588       0.23461527
H        0.21168040      -1.45981751      -1.48090104
H       -2.19413918      -0.75425064       0.38334618
H       -1.65872472       1.36196354       0.91164495
H       -0.94136017       0.85887632      -1.19068659
13
Frame=6 idx=000465 GeodesicLength=0.3342378366107676 rxn_smarts="[O:1]([C@@:2]1([H:8])[C:3]([H:9])([H:10])[C@@:4]2([H:11])[N:5]([H:12])[C@@:6]12[H:13])[H:7]>>[O:1]([C@@:2]1([H:8])[C:3]([H:9])([H:10])[C@:6]1([N:5]([C:4][H:11])[H:12])[H:13])[H:7]"
O        1.89854158       0.58862804       0.64431102
C        1.11586707       0.30324038      -0.45770612
C        0.39433470      -1.00901832      -0.51856852
C       -1.16950950      -0.64777977       0.84217228
N       -0.87521056       0.74406941       0.95365621
C       -0.36531407       0.50752715      -0.36569420
H        1.30354990       0.57096128       1.41201721
H        1.57233718       0.65737476      -1.37613841
H        0.70851105      -1.72752773       0.22303750
H        0.22080955      -1.46154384      -1.48729253
H       -2.19142568      -0.77319251       0.43801791
H       -1.67639265       1.36265616       0.89574981
H       -0.93609857       0.88460498      -1.20356218
13
Frame=7 idx=000465 GeodesicLength=0.38968182701048704 rxn_smarts="[O:1]([C@@:2]1([H:8])[C:3]([H:9])([H:10])[C@@:4]2([H:11])[N:5]([H:12])[C@@:6]12[H:13])[H:7]>>[O:1]([C@@:2]1([H:8])[C:3]([H:9])([H:10])[C@:6]1([N:5]([C:4][H:11])[H:12])[H:13])[H:7]"
O        1.89121851       0.58774201       0.65078731
C        1.11308271       0.30359993      -0.45488955
C        0.38935782      -1.01005961      -0.52249730
C       -1.15082998      -0.63564674       0.84432766
N       -0.88361864       0.75625769       0.93801174
C       -0.36916156       0.51623773      -0.38002501
H        1.29686965       0.54401021       1.41851329
H        1.58062861       0.65206800      -1.37005417
H        0.71312739      -1.73330517       0.21141700
H        0.23012466      -1.46336142      -1.49375596
H       -2.18693092      -0.79157520       0.49474448
H       -1.69409653       1.36254827       0.87981220
H       -0.92977172       0.91148430      -1.21639166
13
Frame=8 idx=000465 GeodesicLength=0.44497847083481357 rxn_smarts="[O:1]([C@@:2]1([H:8])[C:3]([H:9])([H:10])[C@@:4]2([H:11])[N:5]([H:12])[C@@:6]12[H:13])[H:7]>>[O:1]([C@@:2]1([H:8])[C:3]([H:9])([H:10])[C@:6]1([N:5]([C:4][H:11])[H:12])[H:13])[H:7]"
O        1.88336277       0.58658972       0.65751678
C        1.11011260       0.30377422      -0.45206146
C        0.38424144      -1.01129076      -0.52661424
C       -1.13298424      -0.62352421       0.84527839
N       -0.89238918       0.76765930       0.92205933
C       -0.37300625       0.52483193      -0.39464629
H        1.28960769       0.51786274       1.42443940
H        1.58885384       0.64660930      -1.36369443
H        0.71719525      -1.73910377       0.19974531
H        0.23964632      -1.46526297      -1.50030461
H       -2.18041246      -0.80932076       0.55366135
H       -1.71189353       1.36164800       0.86373033
H       -0.92233423       0.93952727      -1.22910985
13
Frame=9 idx=000465 GeodesicLength=0.5000705407020177 rxn_smarts="[O:1]([C@@:2]1([H:8])[C:3]([H:9])([H:10])[C@@:4]2([H:11])[N:5]([H:12])[C@@:6]12[H:13])[H:7]>>[O:1]([C@@:2]1([H:8])[C:3]([H:9])([H:10])[C@:6]1([N:5]([C:4][H:11])[H:12])[H:13])[H:7]"
O        1.87496793       0.58519552       0.66447412
C        1.10694104       0.30377777      -0.44923336
C        0.37898143      -1.01270069      -0.53092508
C       -1.11608900      -0.61148197       0.84495093
N       -0.90155171       0.77824260       0.90578046
C       -0.37685113       0.53332159      -0.40957925
H        1.28175206       0.49241052       1.42985620
H        1.59698642       0.64102204      -1.35707477
H        0.72069947      -1.74489739       0.18806322
H        0.24938210      -1.46724728      -1.50692754
H       -2.17165691      -0.82630254       0.61479729
H       -1.72979683       1.35995623       0.84746534
H       -0.91376487       0.96870362      -1.24164756
13
Frame=10 idx=000465 GeodesicLength=0.5549685661855308 rxn_smarts="[O:1]([C@@:2]1([H:8])[C:3]([H:9])([H:10])[C@@:4]2([H:11])[N:5]([H:12])[C@@:6]12[H:13])[H:7]>>[O:1]([C@@:2]1([H:8])[C:3]([H:9])([H:10])[C@:6]1([N:5]([C:4][H:11])[H:12])[H:13])[H:7]"
O        1.86599667       0.58355617       0.67167483
C        1.10355261       0.30362042      -0.44640613
C        0.37356111      -1.01427665      -0.53547106
C       -1.10021891      -0.59955857       0.84330737
N       -0.91116406       0.78802883       0.88911899
C       -0.38070485       0.54172430      -0.42486879
H        1.27325174       0.46749918       1.43483616
H        1.60504095       0.63531797      -1.35017918
H        0.72361454      -1.75068312       0.17634774
H        0.25935099      -1.46929651      -1.51366174
H       -2.16036427      -0.84240948       0.67835307
H       -1.74789207       1.35746626       0.83089920
H       -0.90402446       0.99901120      -1.25395046
13
Frame=11 idx=000465 GeodesicLength=0.6096935371941575 rxn_smarts="[O:1]([C@@:2]1([H:8])[C:3]([H:9])([H:10])[C@@:4]2([H:11])[N:5]([H:12])[C@@:6]12[H:13])[H:7]>>[O:1]([C@@:2]1([H:8])[C:3]([H:9])([H:10])[C@:6]1([N:5]([C:4][H:11])[H:12])[H:13])[H:7]"
O        1.85640429       0.58164277       0.67915574
C        1.09992621       0.30330581      -0.44356823
C        0.36795385      -1.01601477      -0.54030232
C       -1.08545878      -0.58777991       0.84030850
N       -0.92130015       0.79705412       0.87200919
C       -0.38458254       0.55006733      -0.44055921
H        1.26403998       0.44299273       1.43944592
H        1.61303306       0.62950265      -1.34296655
H        0.72590418      -1.75648104       0.16455956
H        0.26954767      -1.47139530      -1.52055449
H       -2.14610424      -0.85753306       0.74453210
H       -1.76628776       1.35417996       0.81389374
H       -0.89307577       1.03045872      -1.26595396
13
Frame=12 idx=000465 GeodesicLength=0.664246895766872 rxn_smarts="[O:1]([C@@:2]1([H:8])[C:3]([H:9])([H:10])[C@@:4]2([H:11])[N:5]([H:12])[C@@:6]12[H:13])[H:7]>>[O:1]([C@@:2]1([H:8])[C:3]([H:9])([H:10])[C@:6]1([N:5]([C:4][H:11])[H:12])[H:13])[H:7]"
O        1.84610876       0.57943366       0.68697119
C        1.09603814       0.30283378      -0.44070269
C        0.36213156      -1.01791160      -0.54548870
C       -1.07190941      -0.57617516       0.83589011
N       -0.93204219       0.80535262       0.85438155
C       -0.38849361       0.55837421      -0.45669598
H        1.25400536       0.41873710       1.44374725
H        1.62099100       0.62358168      -1.33537786
H        0.72751250      -1.76230857       0.15262781
H        0.27999226      -1.47353383      -1.52767516
H       -2.12836032      -0.87148165       0.81359244
H       -1.78510185       1.35008405       0.79631165
H       -0.88087219       1.06301371      -1.27758162
13
Frame=13 idx=000465 GeodesicLength=0.7187665147725941 rxn_smarts="[O:1]([C@@:2]1([H:8])[C:3]([H:9])([H:10])[C@@:4]2([H:11])[N:5]([H:12])[C@@:6]12[H:13])[H:7]>>[O:1]([C@@:2]1([H:8])[C:3]([H:9])([H:10])[C@:6]1([N:5]([C:4][H:11])[H:12])[H:13])[H:7]"
O        1.83482569       0.57672295       0.69515083
C        1.09172757       0.30218509      -0.43774086
C        0.35601030      -1.01990618      -0.55102059
C       -1.05955930      -0.56475691       0.82992486
N       -0.94342240       0.81291851       0.83600648
C       -0.39243442       0.56670467      -0.47333705
H        1.24286450       0.39449474       1.44768713
H        1.62875865       0.61757734      -1.32721505
H        0.72829697      -1.76817995       0.14054133
H        0.29062206      -1.47554518      -1.53491569
H       -2.10606542      -0.88411278       0.88584223
H       -1.80433832       1.34510826       0.77779234
H       -0.86728588       1.09678943      -1.28871596
13
Frame=14 idx=000465 GeodesicLength=0.7730566810720333 rxn_smarts="[O:1]([C@@:2]1([H:8])[C:3]([H:9])([H:10])[C@@:4]2([H:11])[N:5]([H:12])[C@@:6]12[H:13])[H:7]>>[O:1]([C@@:2]1([H:8])[C:3]([H:9])([H:10])[C@:6]1([N:5]([C:4][H:11])[H:12])[H:13])[H:7]"
O        1.82267674       0.57362278       0.70386369
C        1.08712357       0.30137993      -0.43469856
C        0.34960123      -1.02202853      -0.55706190
C       -1.04877345      -0.55362592       0.82231672
N       -0.95559125       0.81974681       0.81696591
C       -0.39641788       0.57506580      -0.49054806
H        1.23064220       0.37016738       1.45149656
H        1.63658396       0.61151818      -1.31854678
H        0.72821584      -1.77411132       0.12821334
H        0.30152260      -1.47750973      -1.54256346
H       -2.07892876      -0.89499637       0.96153105
H       -1.82421777       1.33926306       0.75843022
H       -0.85243702       1.13150792      -1.29939875
13
Frame=15 idx=000465 GeodesicLength=0.8272622202970047 rxn_smarts="[O:1]([C@@:2]1([H:8])[C:3]([H:9])([H:10])[C@@:4]2([H:11])[N:5]([H:12])[C@@:6]12[H:13])[H:7]>>[O:1]([C@@:2]1([H:8])[C:3]([H:9])([H:10])[C@:6]1([N:5]([C:4][H:11])[H:12])[H:13])[H:7]"
O        1.80937314       0.56990039       0.71324790
C        1.08210301       0.30038206      -0.43148226
C        0.34280246      -1.02424669      -0.56369574
C       -1.03969875      -0.54279334       0.81287605
N       -0.96868606       0.82586576       0.79703181
C       -0.40044370       0.58353153      -0.50840901
H        1.21696344       0.34553016       1.45519824
H        1.64443519       0.60540862      -1.30912984
H        0.72705201      -1.78016631       0.11553828
H        0.31265689      -1.47929911      -1.55065493
H       -2.04546362      -0.90384894       1.04116983
H       -1.84488686       1.33249492       0.73785777
H       -0.83620715       1.16724096      -1.30954808
13
Frame=16 idx=000465 GeodesicLength=0.8814697542773752 rxn_smarts="[O:1]([C@@:2]1([H:8])[C:3]([H:9])([H:10])[C@@:4]2([H:11])[N:5]([H:12])[C@@:6]12[H:13])[H:7]>>[O:1]([C@@:2]1([H:8])[C:3]([H:9])([H:10])[C@:6]1([N:5]([C:4][H:11])[H:12])[H:13])[H:7]"
O        1.79464000       0.56536641       0.72353622
C        1.07657602       0.29915419      -0.42798398
C        0.33550187      -1.02653508      -0.57105875
C       -1.03263495      -0.53230325       0.80136851
N       -0.98289766       0.83129109       0.77601375
C       -0.40452124       0.59217287      -0.52701232
H        1.20144485       0.32028427       1.45890661
H        1.65235649       0.59925275      -1.29872000
H        0.72454604      -1.78640402       0.10238640
H        0.32402258      -1.48080989      -1.55933045
H       -2.00391050      -0.91014289       1.12527528
H       -1.86656753       1.32473760       0.71575779
H       -0.81855595       1.20393595      -1.31913907
