16
Frame=0 idx=004636 GeodesicLength=0.0 rxn_smarts="[C:1]1([H:7])([H:8])[C:2]([H:9])([H:10])[C:3]([H:11])([H:12])[C:4]([H:13])=[C:5]([H:14])[C:6]1([H:15])[H:16]>>[C:1]1([H:7])([H:8])[C:2]([H:9])([H:10])[C:3]([H:11])=[C:4]([H:13])[C:5]([H:14])=[C:6]1[H:15].[H:12][H:16]"
C        0.13280461      -1.37565054       0.13325329
C       -1.02901909      -0.55907793       0.74901591
C       -0.91544057       0.90842838       0.39333946
C        0.33301367       1.50936298       0.35876567
C        1.37224269       0.77273259      -0.20778094
C        1.05707029      -0.49206763      -0.67781771
H       -0.24227407      -2.19124783      -0.48755123
H        0.71958811      -1.83601744       0.93143005
H       -1.00439769      -0.64889175       1.83742721
H       -1.99789283      -0.94448327       0.42590897
H       -1.79053474       1.51874746       0.59402759
H       -0.88339729       0.48519125      -1.15247689
H        0.43131994       2.58130392       0.48357776
H        2.28058350       1.26915336      -0.52799170
H        1.75366452      -1.00435243      -1.33417867
H       -0.21733109       0.00686895      -1.51894871
16
Frame=1 idx=004636 GeodesicLength=0.08109946250411124 rxn_smarts="[C:1]1([H:7])([H:8])[C:2]([H:9])([H:10])[C:3]([H:11])([H:12])[C:4]([H:13])=[C:5]([H:14])[C:6]1([H:15])[H:16]>>[C:1]1([H:7])([H:8])[C:2]([H:9])([H:10])[C:3]([H:11])=[C:4]([H:13])[C:5]([H:14])=[C:6]1[H:15].[H:12][H:16]"
C        0.12794767      -1.37544587       0.12818276
C       -1.02320193      -0.55736660       0.75843124
C       -0.92279121       0.90716088       0.38337879
C        0.32782905       1.51039468       0.35944025
C        1.37176180       0.77158187      -0.19741325
C        1.05718473      -0.49207231      -0.67868347
H       -0.26353735      -2.17254319      -0.50722065
H        0.70909985      -1.86345203       0.91361562
H       -0.97432611      -0.63837717       1.84696515
H       -1.99714567      -0.94971050       0.45993020
H       -1.79440898       1.51621039       0.60267662
H       -0.88951394       0.49085829      -1.16868805
H        0.42050488       2.58472624       0.46761057
H        2.27860888       1.27108112      -0.51757474
H        1.78003428      -1.01043041      -1.30141779
H       -0.20804594       0.00738459      -1.54923323
16
Frame=2 idx=004636 GeodesicLength=0.16204123568160883 rxn_smarts="[C:1]1([H:7])([H:8])[C:2]([H:9])([H:10])[C:3]([H:11])([H:12])[C:4]([H:13])=[C:5]([H:14])[C:6]1([H:15])[H:16]>>[C:1]1([H:7])([H:8])[C:2]([H:9])([H:10])[C:3]([H:11])=[C:4]([H:13])[C:5]([H:14])=[C:6]1[H:15].[H:12][H:16]"
C        0.12308129      -1.37519702       0.12314096
C       -1.01714954      -0.55568745       0.76801214
C       -0.93016915       0.90555288       0.37347840
C        0.32247411       1.51134950       0.36000219
C        1.37109535       0.77041802      -0.18710021
C        1.05738219      -0.49213351      -0.67960444
H       -0.28473598      -2.15317119      -0.52639185
H        0.69791973      -1.89069426       0.89521009
H       -0.94384514      -0.62785853       1.85603823
H       -1.99560007      -0.95488458       0.49446457
H       -1.79815406       1.51322003       0.61090137
H       -0.89560477       0.49668880      -1.18506002
H        0.40971550       2.58773705       0.45185171
H        2.27650443       1.27297416      -0.50706033
H        1.80499458      -1.01619126      -1.26787945
H       -0.19790846       0.00787735      -1.58000336
16
Frame=3 idx=004636 GeodesicLength=0.2428450224474282 rxn_smarts="[C:1]1([H:7])([H:8])[C:2]([H:9])([H:10])[C:3]([H:11])([H:12])[C:4]([H:13])=[C:5]([H:14])[C:6]1([H:15])[H:16]>>[C:1]1([H:7])([H:8])[C:2]([H:9])([H:10])[C:3]([H:11])=[C:4]([H:13])[C:5]([H:14])=[C:6]1[H:15].[H:12][H:16]"
C        0.11820800      -1.37490658       0.11815605
C       -1.01086548      -0.55404848       0.77775568
C       -0.93755829       0.90359110       0.36368134
C        0.31696539       1.51221757       0.36047596
C        1.37024938       0.76924532      -0.17684850
C        1.05766986      -0.49226237      -0.68054615
H       -0.30585183      -2.13314837      -0.54501727
H        0.68603591      -1.91769707       0.87625941
H       -0.91301581      -0.61737468       1.86463397
H       -1.99323484      -0.95998825       0.52943822
H       -1.80178013       1.50977618       0.61870113
H       -0.90166527       0.50271629      -1.20156225
H        0.39895044       2.59034663       0.43630474
H        2.27424806       1.27484846      -0.49651024
H        1.82849991      -1.02163259      -1.23367658
H       -0.18685528       0.00831684      -1.61124552
16
Frame=4 idx=004636 GeodesicLength=0.3235571849263088 rxn_smarts="[C:1]1([H:7])([H:8])[C:2]([H:9])([H:10])[C:3]([H:11])([H:12])[C:4]([H:13])=[C:5]([H:14])[C:6]1([H:15])[H:16]>>[C:1]1([H:7])([H:8])[C:2]([H:9])([H:10])[C:3]([H:11])=[C:4]([H:13])[C:5]([H:14])=[C:6]1[H:15].[H:12][H:16]"
C        0.11333460      -1.37457963       0.11326168
C       -1.00435660      -0.55245661       0.78765756
C       -0.94494448       0.90126721       0.35402627
C        0.31131854       1.51299030       0.36088221
C        1.36923123       0.76806992      -0.16667184
C        1.05805539      -0.49247112      -0.68147417
H       -0.32685675      -2.11249690      -0.56304346
H        0.67344084      -1.94440407       0.85681874
H       -0.88190971      -0.60696164       1.87274511
H       -1.99003398      -0.96500735       0.56476689
H       -1.80529939       1.50588608       0.62607794
H       -0.90770311       0.50897590      -1.21816079
H        0.38821162       2.59256375       0.42099670
H        2.27182517       1.27671834      -0.48598630
H        1.85050217      -1.02675193      -1.19894443
H       -0.17481555       0.00865775      -1.64295209
16
Frame=5 idx=004636 GeodesicLength=0.40417453109376883 rxn_smarts="[C:1]1([H:7])([H:8])[C:2]([H:9])([H:10])[C:3]([H:11])([H:12])[C:4]([H:13])=[C:5]([H:14])[C:6]1([H:15])[H:16]>>[C:1]1([H:7])([H:8])[C:2]([H:9])([H:10])[C:3]([H:11])=[C:4]([H:13])[C:5]([H:14])=[C:6]1[H:15].[H:12][H:16]"
C        0.10846479      -1.37422053       0.10848593
C       -0.99763085      -0.55091646       0.79771276
C       -0.95231571       0.89857712       0.34454744
C        0.30554759       1.51366124       0.36123903
C        1.36804626       0.76689879      -0.15658686
C        1.05854023      -0.49276849      -0.68236324
H       -0.34772122      -2.09124364      -0.58042018
H        0.66013501      -1.97076150       0.83694147
H       -0.85059815      -0.59665178       1.88036892
H       -1.98599072      -0.96992997       0.60036836
H       -1.80872210       1.50155821       0.63304684
H       -0.91372628       0.51550022      -1.23482580
H        0.37749888       2.59440089       0.40595124
H        2.26922716       1.27859320      -0.47554047
H        1.87097392      -1.03155219      -1.16381076
H       -0.16172879       0.00885490      -1.67511469
16
Frame=6 idx=004636 GeodesicLength=0.48475380720256567 rxn_smarts="[C:1]1([H:7])([H:8])[C:2]([H:9])([H:10])[C:3]([H:11])([H:12])[C:4]([H:13])=[C:5]([H:14])[C:6]1([H:15])[H:16]>>[C:1]1([H:7])([H:8])[C:2]([H:9])([H:10])[C:3]([H:11])=[C:4]([H:13])[C:5]([H:14])=[C:6]1[H:15].[H:12][H:16]"
C        0.10359804      -1.37383253       0.10385039
C       -0.99069603      -0.54943107       0.80791694
C       -0.95966383       0.89552139       0.33527933
C        0.29966406       1.51422702       0.36156235
C        1.36669935       0.76574177      -0.14661276
C        1.05912454      -0.49316237      -0.68318778
H       -0.36842173      -2.06940964      -0.59711166
H        0.64611119      -1.99672526       0.81666478
H       -0.81913796      -0.58647812       1.88750535
H       -1.98110584      -0.97474248       0.63616853
H       -1.81206055       1.49680447       0.63963812
H       -0.91976280       0.52232907      -1.25151903
H        0.36680848       2.59587106       0.39118293
H        2.26644095       1.28048837      -0.46522922
H        1.88991867      -1.03604879      -1.12837326
H       -0.14751654       0.00884710      -1.70773501
16
Frame=7 idx=004636 GeodesicLength=0.5653581379995467 rxn_smarts="[C:1]1([H:7])([H:8])[C:2]([H:9])([H:10])[C:3]([H:11])([H:12])[C:4]([H:13])=[C:5]([H:14])[C:6]1([H:15])[H:16]>>[C:1]1([H:7])([H:8])[C:2]([H:9])([H:10])[C:3]([H:11])=[C:4]([H:13])[C:5]([H:14])=[C:6]1[H:15].[H:12][H:16]"
C        0.09873510      -1.37342193       0.09937378
C       -0.98356009      -0.54800291       0.81826572
C       -0.96698077       0.89210351       0.32625570
C        0.29367862       1.51468747       0.36186379
C        1.36519577       0.76460809      -0.13676993
C        1.05981130      -0.49366182      -0.68392472
H       -0.38892750      -2.04701907      -0.61308682
H        0.63136555      -2.02225256       0.79602269
H       -0.78759267      -0.57647342       1.89416010
H       -1.97538441      -0.97943601       0.67209613
H       -1.81532627       1.49164589       0.64589092
H       -0.92585581       0.52950295      -1.26819697
H        0.35613453       2.59699180       0.37669757
H        2.26346378       1.28241241      -0.45509607
H        1.90733467      -1.04024728      -1.09273061
H       -0.13209181       0.00856286      -1.74082128
16
Frame=8 idx=004636 GeodesicLength=0.6460159920540383 rxn_smarts="[C:1]1([H:7])([H:8])[C:2]([H:9])([H:10])[C:3]([H:11])([H:12])[C:4]([H:13])=[C:5]([H:14])[C:6]1([H:15])[H:16]>>[C:1]1([H:7])([H:8])[C:2]([H:9])([H:10])[C:3]([H:11])=[C:4]([H:13])[C:5]([H:14])=[C:6]1[H:15].[H:12][H:16]"
C        0.09387074      -1.37299067       0.09506813
C       -0.97622947      -0.54663187       0.82875398
C       -0.97426263       0.88832966       0.31750672
C        0.28759901       1.51504233       0.36215165
C        1.36353705       0.76350940      -0.12708404
C        1.06059453      -0.49427185      -0.68455995
H       -0.40921817      -2.02408939      -0.62831977
H        0.61589468      -2.04730185       0.77504283
H       -0.75601424      -0.56666628       1.90033635
H       -1.96883571      -0.98400004       0.70808895
H       -1.81852791       1.48609386       0.65185196
H       -0.93205281       0.53705895      -1.28481971
H        0.34547089       2.59777829       0.36251240
H        2.26028688       1.28437799      -0.44519206
H        1.92324636      -1.04416971      -1.05695327
H       -0.11535920       0.00793120      -1.77438415
16
Frame=9 idx=004636 GeodesicLength=0.7274008601763831 rxn_smarts="[C:1]1([H:7])([H:8])[C:2]([H:9])([H:10])[C:3]([H:11])([H:12])[C:4]([H:13])=[C:5]([H:14])[C:6]1([H:15])[H:16]>>[C:1]1([H:7])([H:8])[C:2]([H:9])([H:10])[C:3]([H:11])=[C:4]([H:13])[C:5]([H:14])=[C:6]1[H:15].[H:12][H:16]"
C        0.08896144      -1.37253635       0.09088905
C       -0.96871114      -0.54531153       0.83937761
C       -0.98151622       0.88423449       0.30909914
C        0.28141341       1.51531717       0.36237522
C        1.36169423       0.76248207      -0.11766158
C        1.06146825      -0.49499632      -0.68508553
H       -0.42932937      -2.00058695      -0.64289275
H        0.59968367      -2.07185881       0.75369561
H       -0.72442054      -0.55711420       1.90603713
H       -1.96148012      -0.98844124       0.74412984
H       -1.82166761       1.48018185       0.65766618
H       -0.93860947       0.54513396      -1.30126478
H        0.33481778       2.59826733       0.34866049
H        2.25689023       1.28641211      -0.43562595
H        1.93787390      -1.04790604      -1.02085459
H       -0.09706845       0.00672245      -1.80854506
16
Frame=10 idx=004636 GeodesicLength=0.8088454136989458 rxn_smarts="[C:1]1([H:7])([H:8])[C:2]([H:9])([H:10])[C:3]([H:11])([H:12])[C:4]([H:13])=[C:5]([H:14])[C:6]1([H:15])[H:16]>>[C:1]1([H:7])([H:8])[C:2]([H:9])([H:10])[C:3]([H:11])=[C:4]([H:13])[C:5]([H:14])=[C:6]1[H:15].[H:12][H:16]"
C        0.08403636      -1.37206621       0.08689194
C       -0.96101491      -0.54404804       0.85012438
C       -0.98873279       0.87980643       0.30102712
C        0.27514663       1.51549125       0.36259753
C        1.35969764       0.76151204      -0.10845028
C        1.06242830      -0.49584323      -0.68548596
H       -0.44918428      -1.97657753      -0.65671070
H        0.58275121      -2.09586715       0.73205136
H       -0.69288437      -0.54780365       1.91127697
H       -1.95333164      -0.99274268       0.78011378
H       -1.82475030       1.47391803       0.66331398
H       -0.94541062       0.55367823      -1.31755836
H        0.32416453       2.59845620       0.33513683
H        2.25327475       1.28851078      -0.42639299
H        1.95105019      -1.05138895      -0.98471045
H       -0.07724068       0.00496450      -1.84322515
16
Frame=11 idx=004636 GeodesicLength=0.890335025241701 rxn_smarts="[C:1]1([H:7])([H:8])[C:2]([H:9])([H:10])[C:3]([H:11])([H:12])[C:4]([H:13])=[C:5]([H:14])[C:6]1([H:15])[H:16]>>[C:1]1([H:7])([H:8])[C:2]([H:9])([H:10])[C:3]([H:11])=[C:4]([H:13])[C:5]([H:14])=[C:6]1[H:15].[H:12][H:16]"
C        0.07908406      -1.37158094       0.08307902
C       -0.95315374      -0.54284072       0.86098481
C       -0.99591493       0.87506244       0.29332097
C        0.26880409       1.51556754       0.36282691
C        1.35754766       0.76061038      -0.09947752
C        1.06346255      -0.49681531      -0.68575273
H       -0.46876421      -1.95207915      -0.66977991
H        0.56511068      -2.11928658       0.71013784
H       -0.66144715      -0.53875366       1.91606884
H       -1.94442294      -0.99689761       0.81597525
H       -1.82778035       1.46732578       0.66886403
H       -0.95253229       0.56274010      -1.33364939
H        0.31350833       2.59836308       0.32196834
H        2.24942913       1.29068556      -0.41755224
H        1.96283411      -1.05463758      -0.94856684
H       -0.05576499       0.00253668      -1.87844738
16
Frame=12 idx=004636 GeodesicLength=0.9718932557875712 rxn_smarts="[C:1]1([H:7])([H:8])[C:2]([H:9])([H:10])[C:3]([H:11])([H:12])[C:4]([H:13])=[C:5]([H:14])[C:6]1([H:15])[H:16]>>[C:1]1([H:7])([H:8])[C:2]([H:9])([H:10])[C:3]([H:11])=[C:4]([H:13])[C:5]([H:14])=[C:6]1[H:15].[H:12][H:16]"
C        0.07408724      -1.37107841       0.07944203
C       -0.94513716      -0.54168975       0.87194835
C       -1.00306889       0.87002056       0.28601485
C        0.26238671       1.51555120       0.36306453
C        1.35524068       0.75979249      -0.09077639
C        1.06455930      -0.49791403      -0.68587909
H       -0.48806315      -1.92709115      -0.68212365
H        0.54674997      -2.14208823       0.68795482
H       -0.63012453      -0.52998227       1.92042177
H       -1.93478460      -1.00090483       0.85167546
H       -1.83076108       1.46042705       0.67440501
H       -0.96007746       0.57236816      -1.34948027
H        0.30283753       2.59800887       0.30916570
H        2.24533947       1.29295396      -0.40916343
H        1.97329862      -1.05767745      -0.91242208
H       -0.03248266      -0.00069616      -1.91424761
16
Frame=13 idx=004636 GeodesicLength=1.053465480710655 rxn_smarts="[C:1]1([H:7])([H:8])[C:2]([H:9])([H:10])[C:3]([H:11])([H:12])[C:4]([H:13])=[C:5]([H:14])[C:6]1([H:15])[H:16]>>[C:1]1([H:7])([H:8])[C:2]([H:9])([H:10])[C:3]([H:11])=[C:4]([H:13])[C:5]([H:14])=[C:6]1[H:15].[H:12][H:16]"
C        0.06903176      -1.37055652       0.07597302
C       -0.93697315      -0.54059329       0.88300255
C       -1.01020172       0.86470052       0.27913736
C        0.25589585       1.51544709       0.36331154
C        1.35277330       0.75907309      -0.08237986
C        1.06570688      -0.49913957      -0.68586458
H       -0.50706623      -1.90162079      -0.69375652
H        0.52766212      -2.16423812       0.66550755
H       -0.59893823      -0.52150612       1.92433811
H       -1.92443982      -1.00476497       0.88717520
H       -1.83369257       1.45324438       0.68001599
H       -0.96814388       0.58260781      -1.36500000
H        0.29214511       2.59741330       0.29676019
H        2.24099300       1.29533083      -0.40128353
H        1.98248693      -1.06052315      -0.87628335
H       -0.00723936      -0.00487450      -1.95065367
16
Frame=14 idx=004636 GeodesicLength=1.1349934367742733 rxn_smarts="[C:1]1([H:7])([H:8])[C:2]([H:9])([H:10])[C:3]([H:11])([H:12])[C:4]([H:13])=[C:5]([H:14])[C:6]1([H:15])[H:16]>>[C:1]1([H:7])([H:8])[C:2]([H:9])([H:10])[C:3]([H:11])=[C:4]([H:13])[C:5]([H:14])=[C:6]1[H:15].[H:12][H:16]"
C        0.06390076      -1.37001272       0.07265947
C       -0.92867108      -0.53954927       0.89413812
C       -1.01732080       0.85912762       0.27272030
C        0.24933452       1.51526323       0.36357637
C        1.35014391       0.75846416      -0.07431262
C        1.06689487      -0.50049265      -0.68570637
H       -0.52575519      -1.87567874      -0.70470024
H        0.50785438      -2.18570947       0.64279736
H       -0.56791497      -0.51333901       1.92782991
H       -1.91342261      -1.00848183       0.92243458
H       -1.83656870       1.44580463       0.68577672
H       -0.97684286       0.59350551      -1.38014316
H        0.28142163       2.59659906       0.28476213
H        2.23637962       1.29782650      -0.39395743
H        1.99042780      -1.06317368      -0.84017485
H        0.02013872      -0.01015334      -1.98770029
16
Frame=15 idx=004636 GeodesicLength=1.2164216735096507 rxn_smarts="[C:1]1([H:7])([H:8])[C:2]([H:9])([H:10])[C:3]([H:11])([H:12])[C:4]([H:13])=[C:5]([H:14])[C:6]1([H:15])[H:16]>>[C:1]1([H:7])([H:8])[C:2]([H:9])([H:10])[C:3]([H:11])=[C:4]([H:13])[C:5]([H:14])=[C:6]1[H:15].[H:12][H:16]"
C        0.05867430      -1.36944376       0.06948286
C       -0.92023909      -0.53855633       0.90534451
C       -1.02443803       0.85332830       0.26679727
C        0.24270086       1.51501011       0.36386082
C        1.34734707       0.75798117      -0.06660517
C        1.06811238      -0.50197133      -0.68540418
H       -0.54412123      -1.84926370      -0.71498589
H        0.48732046      -2.20647453       0.61981476
H       -0.53706773      -0.50549352       1.93090255
H       -1.90175901      -1.01206279       0.95742597
H       -1.83938513       1.43813383       0.69177678
H       -0.98630259       0.60511662      -1.39484293
H        0.27065566       2.59559162       0.27319151
H        2.23148800       1.30045483      -0.38723194
H        1.99715631      -1.06563090      -0.80410578
H        0.04985776      -0.01671961      -2.02542113
16
Frame=16 idx=004636 GeodesicLength=1.297670553426412 rxn_smarts="[C:1]1([H:7])([H:8])[C:2]([H:9])([H:10])[C:3]([H:11])([H:12])[C:4]([H:13])=[C:5]([H:14])[C:6]1([H:15])[H:16]>>[C:1]1([H:7])([H:8])[C:2]([H:9])([H:10])[C:3]([H:11])=[C:4]([H:13])[C:5]([H:14])=[C:6]1[H:15].[H:12][H:16]"
C        0.05332857      -1.36884262       0.06641932
C       -0.91168307      -0.53761284       0.91661242
C       -1.03156691       0.84733122       0.26140449
C        0.23599278       1.51469922       0.36417006
C        1.34437604       0.75764076      -0.05928693
C        1.06934767      -0.50357208      -0.68495865
H       -0.56215516      -1.82236935      -0.72464910
H        0.46604857      -2.22650743       0.59653749
H       -0.50640393      -0.49798313       1.93355927
H       -1.88947347      -1.01551840       0.99212789
H       -1.84213516       1.43025815       0.69810988
H       -0.99665800       0.61749743      -1.40902895
H        0.25983330       2.59441725       0.26206330
H        2.22630334       1.30323225      -0.38115639
H        2.00270144      -1.06789366      -0.76807838
H        0.08214398      -0.02477676      -2.06384571
