13
Frame=0 idx=004530 GeodesicLength=0.0 rxn_smarts="[C:1]([C@@:2]1([H:10])[C:3]([H:11])([H:12])[N:4]=[C:5]([H:13])[O:6]1)([H:7])([H:8])[H:9]>>[C:1]([C:3]([C:2](=[O:6])[H:10])([H:11])[H:12])([H:7])([H:8])[H:9].[N:4]#[C:5][H:13]"
C        1.68965228       0.18432607       0.09976541
C        0.10986169       0.25369933      -0.54677799
C       -0.08324977      -0.86873099       0.31703526
N       -2.23576284      -0.76554755       0.22202864
C       -2.40928566       0.36454836       0.01543706
O       -0.50249409       1.35491886      -0.28133553
H        2.14388259       0.86847751      -0.61229016
H        1.68953938       0.63882977       1.08586728
H        2.24700006      -0.75077430       0.07875688
H        0.25385152      -0.03338170      -1.60260506
H        0.16984610      -1.87415258       0.00103749
H       -0.20786624      -0.68846489       1.37551754
H       -2.86497502       1.31625213      -0.15243686
13
Frame=1 idx=004530 GeodesicLength=0.06325321113606848 rxn_smarts="[C:1]([C@@:2]1([H:10])[C:3]([H:11])([H:12])[N:4]=[C:5]([H:13])[O:6]1)([H:7])([H:8])[H:9]>>[C:1]([C:3]([C:2](=[O:6])[H:10])([H:11])[H:12])([H:7])([H:8])[H:9].[N:4]#[C:5][H:13]"
C        1.68804377       0.18294171       0.10684516
C        0.10752398       0.25417136      -0.56222312
C       -0.07922840      -0.87065435       0.30658762
N       -2.25037573      -0.76034552       0.25694289
C       -2.40965659       0.37525107       0.05524651
O       -0.52367824       1.34722519      -0.29937151
H        2.15472693       0.86017504      -0.60440979
H        1.67829213       0.65133248       1.08683209
H        2.25770023      -0.74506717       0.10670788
H        0.26306038      -0.02760572      -1.61747171
H        0.16306872      -1.87358086      -0.02753445
H       -0.19200780      -0.71122788       1.36971686
H       -2.85746938       1.31738465      -0.17786843
13
Frame=2 idx=004530 GeodesicLength=0.12655429905105944 rxn_smarts="[C:1]([C@@:2]1([H:10])[C:3]([H:11])([H:12])[N:4]=[C:5]([H:13])[O:6]1)([H:7])([H:8])[H:9]>>[C:1]([C:3]([C:2](=[O:6])[H:10])([H:11])[H:12])([H:7])([H:8])[H:9].[N:4]#[C:5][H:13]"
C        1.68634066       0.18141861       0.11403259
C        0.10548039       0.25480623      -0.57824323
C       -0.07547352      -0.87218083       0.29591999
N       -2.26442725      -0.75412610       0.29188608
C       -2.40905113       0.38659120       0.09299296
O       -0.54482639       1.33940404      -0.31874264
H        2.16587619       0.85141190      -0.59623945
H        1.66669569       0.66395051       1.08753217
H        2.26762543      -0.73928683       0.13565347
H        0.27282629      -0.02181527      -1.63274995
H        0.15571696      -1.87252538      -0.05571061
H       -0.17682233      -0.73369912       1.36319349
H       -2.84996097       1.31605104      -0.19952489
13
Frame=3 idx=004530 GeodesicLength=0.18916034698628234 rxn_smarts="[C:1]([C@@:2]1([H:10])[C:3]([H:11])([H:12])[N:4]=[C:5]([H:13])[O:6]1)([H:7])([H:8])[H:9]>>[C:1]([C:3]([C:2](=[O:6])[H:10])([H:11])[H:12])([H:7])([H:8])[H:9].[N:4]#[C:5][H:13]"
C        1.68447475       0.17984583       0.12138097
C        0.10386805       0.25518888      -0.59503467
C       -0.07192136      -0.87324223       0.28493696
N       -2.27792585      -0.74716445       0.32635623
C       -2.40763975       0.39781987       0.12711226
O       -0.56606549       1.33072166      -0.34019409
H        2.17732763       0.84207349      -0.58755604
H        1.65433832       0.67687080       1.08764463
H        2.27682761      -0.73299760       0.16587734
H        0.28366690      -0.01666235      -1.64824794
H        0.14808296      -1.87077803      -0.08319099
H       -0.16258956      -0.75555724       1.35555623
H       -2.84244421       1.31388137      -0.21464088
13
Frame=4 idx=004530 GeodesicLength=0.25196024095783687 rxn_smarts="[C:1]([C@@:2]1([H:10])[C:3]([H:11])([H:12])[N:4]=[C:5]([H:13])[O:6]1)([H:7])([H:8])[H:9]>>[C:1]([C:3]([C:2](=[O:6])[H:10])([H:11])[H:12])([H:7])([H:8])[H:9].[N:4]#[C:5][H:13]"
C        1.68251916       0.17815209       0.12877745
C        0.10251714       0.25574750      -0.61218553
C       -0.06847962      -0.87417184       0.27377956
N       -2.29073003      -0.73933199       0.36159893
C       -2.40532765       0.40952183       0.15977705
O       -0.58738316       1.32178966      -0.36246297
H        2.18892388       0.83250341      -0.57858874
H        1.64174798       0.68972747       1.08753257
H        2.28527033      -0.72656374       0.19679682
H        0.29490366      -0.01122624      -1.66406901
H        0.14009436      -1.86880865      -0.11050734
H       -0.14876168      -0.77757294       1.34737276
H       -2.83529436       1.31023344      -0.22782155
13
Frame=5 idx=004530 GeodesicLength=0.31435952545161105 rxn_smarts="[C:1]([C@@:2]1([H:10])[C:3]([H:11])([H:12])[N:4]=[C:5]([H:13])[O:6]1)([H:7])([H:8])[H:9]>>[C:1]([C:3]([C:2](=[O:6])[H:10])([H:11])[H:12])([H:7])([H:8])[H:9].[N:4]#[C:5][H:13]"
C        1.68047561       0.17633178       0.13625384
C        0.10144922       0.25632339      -0.62966341
C       -0.06510088      -0.87484730       0.26240822
N       -2.30280090      -0.73057595       0.39735245
C       -2.40217734       0.42141879       0.19051617
O       -0.60885349       1.31218532      -0.38574900
H        2.20062737       0.82258432      -0.56913850
H        1.62889129       0.70246817       1.08699752
H        2.29297185      -0.71977521       0.22839842
H        0.30663059      -0.00573888      -1.67992440
H        0.13180227      -1.86634475      -0.13755216
H       -0.13534141      -0.79957447       1.33837917
H       -2.82857419       1.30554479      -0.23827830
13
Frame=6 idx=004530 GeodesicLength=0.37673076744426864 rxn_smarts="[C:1]([C@@:2]1([H:10])[C:3]([H:11])([H:12])[N:4]=[C:5]([H:13])[O:6]1)([H:7])([H:8])[H:9]>>[C:1]([C:3]([C:2](=[O:6])[H:10])([H:11])[H:12])([H:7])([H:8])[H:9].[N:4]#[C:5][H:13]"
C        1.67832820       0.17441636       0.14381250
C        0.10064635       0.25694936      -0.64746015
C       -0.06174343      -0.87543589       0.25086103
N       -2.31405854      -0.72100216       0.43385080
C       -2.39818168       0.43356903       0.21976645
O       -0.63053013       1.30197001      -0.40994121
H        2.21236229       0.81251453      -0.55923892
H        1.61576971       0.71508922       1.08618644
H        2.29993166      -0.71266965       0.26055079
H        0.31880631      -0.00011938      -1.69594261
H        0.12326580      -1.86363811      -0.16441444
H       -0.12226344      -0.82178764       1.32874000
H       -2.82233311       1.30014432      -0.24677069
13
Frame=7 idx=004530 GeodesicLength=0.43901171871370404 rxn_smarts="[C:1]([C@@:2]1([H:10])[C:3]([H:11])([H:12])[N:4]=[C:5]([H:13])[O:6]1)([H:7])([H:8])[H:9]>>[C:1]([C:3]([C:2](=[O:6])[H:10])([H:11])[H:12])([H:7])([H:8])[H:9].[N:4]#[C:5][H:13]"
C        1.67606545       0.17240257       0.15146144
C        0.10009308       0.25762173      -0.66552591
C       -0.05838505      -0.87596209       0.23911688
N       -2.32442874      -0.71053017       0.47120094
C       -2.39332077       0.44600381       0.24776229
O       -0.65245724       1.29102597      -0.43498305
H        2.22407863       0.80231784      -0.54883731
H        1.60239010       0.72753636       1.08509179
H        2.30613313      -0.70520546       0.29320148
H        0.33139972       0.00568193      -1.71205081
H        0.11449118      -1.86067067      -0.19116411
H       -0.10947508      -0.84428815       1.31840250
H       -2.81658440       1.29406633      -0.25367612
13
Frame=8 idx=004530 GeodesicLength=0.5011878309491077 rxn_smarts="[C:1]([C@@:2]1([H:10])[C:3]([H:11])([H:12])[N:4]=[C:5]([H:13])[O:6]1)([H:7])([H:8])[H:9]>>[C:1]([C:3]([C:2](=[O:6])[H:10])([H:11])[H:12])([H:7])([H:8])[H:9].[N:4]#[C:5][H:13]"
C        1.67367378       0.17028708       0.15921426
C        0.09978109       0.25835294      -0.68382473
C       -0.05501217      -0.87645675       0.22715289
N       -2.33382372      -0.69904143       0.50956136
C       -2.38757379       0.45877697       0.27467402
O       -0.67467890       1.27926407      -0.46083348
H        2.23573872       0.79202777      -0.53788586
H        1.58874525       0.73976210       1.08373089
H        2.31155661      -0.69736592       0.32629732
H        0.34440225       0.01172686      -1.72820592
H        0.10546855      -1.85744585      -0.21788119
H       -0.09693972      -0.86715186       1.30732400
H       -2.81133795       1.28726402      -0.25932356
13
Frame=9 idx=004530 GeodesicLength=0.5632480234902317 rxn_smarts="[C:1]([C@@:2]1([H:10])[C:3]([H:11])([H:12])[N:4]=[C:5]([H:13])[O:6]1)([H:7])([H:8])[H:9]>>[C:1]([C:3]([C:2](=[O:6])[H:10])([H:11])[H:12])([H:7])([H:8])[H:9].[N:4]#[C:5][H:13]"
C        1.67111843       0.16807714       0.16709173
C        0.09970245       0.25913484      -0.70234993
C       -0.05160980      -0.87695912       0.21493795
N       -2.34212928      -0.68643450       0.54902182
C       -2.38088738       0.47193686       0.30064124
O       -0.69724404       1.26656131      -0.48751339
H        2.24727851       0.78169073      -0.52633458
H        1.57478779       0.75174566       1.08212981
H        2.31615808      -0.68912080       0.35982326
H        0.35781714       0.01803738      -1.74439446
H        0.09620859      -1.85398099      -0.24463082
H       -0.08464429      -0.89044469       1.29545769
H       -2.80655619       1.27975617      -0.26388033
13
Frame=10 idx=004530 GeodesicLength=0.6252289216322765 rxn_smarts="[C:1]([C@@:2]1([H:10])[C:3]([H:11])([H:12])[N:4]=[C:5]([H:13])[O:6]1)([H:7])([H:8])[H:9]>>[C:1]([C:3]([C:2](=[O:6])[H:10])([H:11])[H:12])([H:7])([H:8])[H:9].[N:4]#[C:5][H:13]"
C        1.66837524       0.16577893       0.17511768
C        0.09985186       0.25996490      -0.72109905
C       -0.04816630      -0.87752143       0.20243891
N       -2.34923332      -0.67259255       0.58970561
C       -2.37322592       0.48553034       0.32574746
O       -0.72021468       1.25279546      -0.51505305
H        2.25866081       0.77135881      -0.51413069
H        1.56047075       0.76346682       1.08031720
H        2.31991688      -0.68044921       0.39376487
H        0.37166179       0.02464693      -1.76060486
H        0.08672285      -1.85031397      -0.27147662
H       -0.07258393      -0.91423122       1.28274980
H       -2.80223605       1.27156618      -0.26747725
13
Frame=11 idx=004530 GeodesicLength=0.6871381607487412 rxn_smarts="[C:1]([C@@:2]1([H:10])[C:3]([H:11])([H:12])[N:4]=[C:5]([H:13])[O:6]1)([H:7])([H:8])[H:9]>>[C:1]([C:3]([C:2](=[O:6])[H:10])([H:11])[H:12])([H:7])([H:8])[H:9].[N:4]#[C:5][H:13]"
C        1.66539794       0.16340180       0.18332238
C        0.10022265       0.26083263      -0.74008018
C       -0.04467002      -0.87819531       0.18960792
N       -2.35498121      -0.65736502       0.63172830
C       -2.36451567       0.49961913       0.35006822
O       -0.74365583       1.23780555      -0.54351186
H        2.26982264       0.76108574      -0.50120894
H        1.54571394       0.77490922       1.07832554
H        2.32277998      -0.67132075       0.42812948
H        0.38595897       0.03158074      -1.77683099
H        0.07702600      -1.84647370      -0.29849500
H       -0.06076036      -0.93857769       1.26913035
H       -2.79833904       1.26269766      -0.27018520
13
Frame=12 idx=004530 GeodesicLength=0.7489944174747132 rxn_smarts="[C:1]([C@@:2]1([H:10])[C:3]([H:11])([H:12])[N:4]=[C:5]([H:13])[O:6]1)([H:7])([H:8])[H:9]>>[C:1]([C:3]([C:2](=[O:6])[H:10])([H:11])[H:12])([H:7])([H:8])[H:9].[N:4]#[C:5][H:13]"
C        1.66213057       0.16095725       0.19174082
C        0.10080628       0.26172372      -0.75930795
C       -0.04110930      -0.87904361       0.17638676
N       -2.35918897      -0.64057295       0.67521905
C       -2.35466634       0.51427434       0.37365933
O       -0.76764264       1.22140082      -0.57296541
H        2.28069534       0.75093433      -0.48749357
H        1.53041370       0.78605694       1.07619018
H        2.32468596      -0.66170126       0.46293549
H        0.40073788       0.03886702      -1.79306896
H        0.06714101      -1.84249837      -0.32577156
H       -0.04918248      -0.96355678       1.25451590
H       -2.79482103       1.25315856      -0.27204008
13
Frame=13 idx=004530 GeodesicLength=0.8108265201254514 rxn_smarts="[C:1]([C@@:2]1([H:10])[C:3]([H:11])([H:12])[N:4]=[C:5]([H:13])[O:6]1)([H:7])([H:8])[H:9]>>[C:1]([C:3]([C:2](=[O:6])[H:10])([H:11])[H:12])([H:7])([H:8])[H:9].[N:4]#[C:5][H:13]"
C        1.65850120       0.15845929       0.20041508
C        0.10159068       0.26262099      -0.77880441
C       -0.03747210      -0.88014222       0.16270247
N       -2.36162561      -0.62199416       0.72033090
C       -2.34356047       0.52958474       0.39656174
O       -0.79226178       1.20335296      -0.60350765
H        2.29119623       0.74097881      -0.47289368
H        1.51443588       0.79689272       1.07395365
H        2.32555524      -0.65155244       0.49821516
H        0.41603266       0.04654083      -1.80931873
H        0.05709791      -1.83843572      -0.35341020
H       -0.03786332      -0.98925478       1.23880729
H       -2.79162651       1.24294899      -0.27305162
13
Frame=14 idx=004530 GeodesicLength=0.8726716555447184 rxn_smarts="[C:1]([C@@:2]1([H:10])[C:3]([H:11])([H:12])[N:4]=[C:5]([H:13])[O:6]1)([H:7])([H:8])[H:9]>>[C:1]([C:3]([C:2](=[O:6])[H:10])([H:11])[H:12])([H:7])([H:8])[H:9].[N:4]#[C:5][H:13]"
C        1.65441735       0.15592422       0.20939418
C        0.10255774       0.26350145      -0.79859805
C       -0.03374502      -0.88158318       0.14846487
N       -2.36200014      -0.60135404       0.76723895
C       -2.33104525       0.54565877       0.41880305
O       -0.81761372       1.18338236      -0.63524830
H        2.30122195       0.73130969      -0.45729847
H        1.49760735       0.80739256       1.07166526
H        2.32528606      -0.64082862       0.53401342
H        0.43187959       0.05464581      -1.82558069
H        0.04694050      -1.83434399      -0.38153430
H       -0.02682232      -1.01577230       1.22188467
H       -2.78868411       1.23206728      -0.27320460
13
Frame=15 idx=004530 GeodesicLength=0.9345862875370132 rxn_smarts="[C:1]([C@@:2]1([H:10])[C:3]([H:11])([H:12])[N:4]=[C:5]([H:13])[O:6]1)([H:7])([H:8])[H:9]>>[C:1]([C:3]([C:2](=[O:6])[H:10])([H:11])[H:12])([H:7])([H:8])[H:9].[N:4]#[C:5][H:13]"
C        1.64976317       0.15336885       0.21873570
C        0.10367958       0.26434205      -0.81872020
C       -0.02991331      -0.88347758       0.13356473
N       -2.35993867      -0.57830696       0.81615678
C       -2.31692962       0.56262916       0.44038757
O       -0.84381369       1.16115456      -0.66830160
H        2.31064458       0.72203474      -0.44057528
H        1.47971566       0.81752088       1.06938643
H        2.32374910      -0.62948221       0.57038629
H        0.44830944       0.06324738      -1.84185463
H        0.03672518      -1.83029403      -0.41029429
H       -0.01608386      -1.04322890       1.20360775
H       -2.78590755       1.22049205      -0.27247925
13
Frame=16 idx=004530 GeodesicLength=0.9966503313887993 rxn_smarts="[C:1]([C@@:2]1([H:10])[C:3]([H:11])([H:12])[N:4]=[C:5]([H:13])[O:6]1)([H:7])([H:8])[H:9]>>[C:1]([C:3]([C:2](=[O:6])[H:10])([H:11])[H:12])([H:7])([H:8])[H:9].[N:4]#[C:5][H:13]"
C        1.64439789       0.15080514       0.22850423
C        0.10491351       0.26512661      -0.83919565
C       -0.02596055      -0.88595404       0.11787484
N       -2.35495751      -0.55241240       0.86734325
C       -2.30098502       0.58065549       0.46128410
O       -0.87098842       1.13627842      -0.70276144
H        2.31930619       0.71327864      -0.42256838
H        1.46051194       0.82721697       1.06719469
H        2.32078361      -0.61747338       0.60739044
H        0.46533308       0.07244882      -1.85813221
H        0.02652462      -1.82636468      -0.43986892
H       -0.00568088      -1.07175747       1.18381587
H       -2.78319846       1.20815187      -0.27088080
